data_str_m2_o1_o16_pcu_sym.6
_audit_creation_date              2020-01-03
_audit_creation_method            'Materials Studio'
_symmetry_space_group_name_H-M    'P1'
_symmetry_Int_Tables_number       1
_symmetry_cell_setting            triclinic
loop_
_symmetry_equiv_pos_as_xyz
  x,y,z
_cell_length_a                    28.7430
_cell_length_b                    32.4807
_cell_length_c                    26.6828
_cell_angle_alpha                 91.6432
_cell_angle_beta                  72.8393
_cell_angle_gamma                 90.0008
loop_
_atom_site_label
_atom_site_type_symbol
_atom_site_fract_x
_atom_site_fract_y
_atom_site_fract_z
_atom_site_U_iso_or_equiv
_atom_site_adp_type
_atom_site_occupancy
Br1    Br    0.24543   0.04673   0.30447   0.00000  Uiso   1.00
Br2    Br    0.07713   0.10237   0.16986   0.00000  Uiso   1.00
Br3    Br    0.29912   0.10403   0.16773   0.00000  Uiso   1.00
Br4    Br    0.18179   0.09750   0.06619   0.00000  Uiso   1.00
Br5    Br    0.04755   0.10592   0.39361   0.00000  Uiso   1.00
C6     C     0.16652   0.24585   0.25058   0.00000  Uiso   1.00
C7     C     0.12558   0.16042   0.40729   0.00000  Uiso   1.00
C8     C     0.20013   0.31168   0.27099   0.00000  Uiso   1.00
C9     C     0.14055   0.16573   0.35012   0.00000  Uiso   1.00
C10    C     0.20007   0.02106   0.27293   0.00000  Uiso   1.00
C11    C     0.16596   0.04274   0.25449   0.00000  Uiso   1.00
C12    C     0.13103   0.02099   0.23742   0.00000  Uiso   1.00
C13    C     0.13104   0.31177   0.23632   0.00000  Uiso   1.00
C14    C     0.16607   0.29039   0.25230   0.00000  Uiso   1.00
C15    C     0.29954   0.19238   0.28325   0.00000  Uiso   1.00
C16    C     0.01566   0.19239   0.28320   0.00000  Uiso   1.00
C17    C     0.14899   0.16293   0.48839   0.00000  Uiso   1.00
C18    C     0.03358   0.14065   0.21681   0.00000  Uiso   1.00
C19    C     0.31761   0.14084   0.21652   0.00000  Uiso   1.00
C20    C     0.16626   0.08745   0.25199   0.00000  Uiso   1.00
C21    C     0.19278   0.16786   0.15009   0.00000  Uiso   1.00
C22    C     0.23827   0.22883   0.02919   0.00000  Uiso   1.00
C23    C     0.20744   0.17763   0.09461   0.00000  Uiso   1.00
C24    C     0.08748   0.13310   0.43080   0.00000  Uiso   1.00
C25    C     0.07854   0.12340   0.48324   0.00000  Uiso   1.00
C26    C     0.10902   0.13770   0.01161   0.00000  Uiso   1.00
C27    C     0.15372   0.17807   0.43791   0.00000  Uiso   1.00
C28    C     0.18189   0.17631   0.01584   0.00000  Uiso   1.00
C29    C     0.21127   0.21116   0.49822   0.00000  Uiso   1.00
C30    C     0.21276   0.22823   0.45037   0.00000  Uiso   1.00
C31    C     0.18537   0.21129   0.41994   0.00000  Uiso   1.00
C32    C     0.18630   0.15659   0.06066   0.00000  Uiso   1.00
C33    C     0.23437   0.21331   0.07838   0.00000  Uiso   1.00
Cu34   Cu    0.11978   0.16666   0.25000   0.00000  Uiso   1.00
Cu35   Cu    0.21355   0.16667   0.25000   0.00000  Uiso   1.00
H36    H     0.25119   0.22973   0.10434   0.00000  Uiso   1.00
H37    H     0.04854   0.10352   0.00186   0.00000  Uiso   1.00
H38    H     0.22630   0.29511   0.28509   0.00000  Uiso   1.00
H39    H     0.10390   0.03671   0.22421   0.00000  Uiso   1.00
H40    H     0.10414   0.29566   0.22221   0.00000  Uiso   1.00
H41    H     0.27377   0.21309   0.30996   0.00000  Uiso   1.00
H42    H     0.02687   0.21308   0.30989   0.00000  Uiso   1.00
H43    H     0.23534   0.25467   0.43628   0.00000  Uiso   1.00
H44    H     0.09979   0.13003   0.05247   0.00000  Uiso   1.00
H45    H     0.18732   0.22597   0.38349   0.00000  Uiso   1.00
H46    H     0.25999   0.25602   0.01676   0.00000  Uiso   1.00
N47    N     0.04931   0.16666   0.24998   0.00000  Uiso   1.00
N48    N     0.28402   0.16669   0.24999   0.00000  Uiso   1.00
O49    O     0.12708   0.22678   0.25000   0.00000  Uiso   1.00
O50    O     0.20627   0.22679   0.25000   0.00000  Uiso   1.00
O51    O     0.10775   0.16665   0.32549   0.00000  Uiso   1.00
O52    O     0.18694   0.16666   0.32549   0.00000  Uiso   1.00
O53    O     0.12706   0.10654   0.24999   0.00000  Uiso   1.00
O54    O     0.20625   0.10655   0.24999   0.00000  Uiso   1.00
O55    O     0.14640   0.16667   0.17451   0.00000  Uiso   1.00
O56    O     0.22559   0.16668   0.17451   0.00000  Uiso   1.00
Br57   Br    0.57876   0.04673   0.30447   0.00000  Uiso   1.00
Br58   Br    0.41047   0.10237   0.16986   0.00000  Uiso   1.00
Br59   Br    0.63245   0.10403   0.16773   0.00000  Uiso   1.00
Br60   Br    0.51512   0.09750   0.06619   0.00000  Uiso   1.00
Br61   Br    0.38088   0.10592   0.39361   0.00000  Uiso   1.00
C62    C     0.49985   0.24585   0.25058   0.00000  Uiso   1.00
C63    C     0.45891   0.16042   0.40729   0.00000  Uiso   1.00
C64    C     0.53347   0.31168   0.27099   0.00000  Uiso   1.00
C65    C     0.47389   0.16573   0.35012   0.00000  Uiso   1.00
C66    C     0.53340   0.02106   0.27293   0.00000  Uiso   1.00
C67    C     0.49930   0.04274   0.25449   0.00000  Uiso   1.00
C68    C     0.46436   0.02099   0.23742   0.00000  Uiso   1.00
C69    C     0.46437   0.31177   0.23632   0.00000  Uiso   1.00
C70    C     0.49940   0.29039   0.25230   0.00000  Uiso   1.00
C71    C     0.63287   0.19238   0.28325   0.00000  Uiso   1.00
C72    C     0.34900   0.19239   0.28320   0.00000  Uiso   1.00
C73    C     0.48232   0.16293   0.48839   0.00000  Uiso   1.00
C74    C     0.36691   0.14065   0.21681   0.00000  Uiso   1.00
C75    C     0.65095   0.14084   0.21652   0.00000  Uiso   1.00
C76    C     0.49959   0.08745   0.25199   0.00000  Uiso   1.00
C77    C     0.52611   0.16786   0.15009   0.00000  Uiso   1.00
C78    C     0.57160   0.22883   0.02919   0.00000  Uiso   1.00
C79    C     0.54077   0.17763   0.09461   0.00000  Uiso   1.00
C80    C     0.42081   0.13310   0.43080   0.00000  Uiso   1.00
C81    C     0.41187   0.12340   0.48324   0.00000  Uiso   1.00
C82    C     0.44235   0.13770   0.01161   0.00000  Uiso   1.00
C83    C     0.48705   0.17807   0.43791   0.00000  Uiso   1.00
C84    C     0.51522   0.17631   0.01584   0.00000  Uiso   1.00
C85    C     0.54460   0.21116   0.49822   0.00000  Uiso   1.00
C86    C     0.54609   0.22823   0.45037   0.00000  Uiso   1.00
C87    C     0.51870   0.21129   0.41994   0.00000  Uiso   1.00
C88    C     0.51963   0.15659   0.06066   0.00000  Uiso   1.00
C89    C     0.56771   0.21331   0.07838   0.00000  Uiso   1.00
Cu90   Cu    0.45311   0.16666   0.25000   0.00000  Uiso   1.00
Cu91   Cu    0.54689   0.16667   0.25000   0.00000  Uiso   1.00
H92    H     0.58452   0.22973   0.10434   0.00000  Uiso   1.00
H93    H     0.38187   0.10352   0.00186   0.00000  Uiso   1.00
H94    H     0.55963   0.29511   0.28509   0.00000  Uiso   1.00
H95    H     0.43724   0.03671   0.22421   0.00000  Uiso   1.00
H96    H     0.43747   0.29566   0.22221   0.00000  Uiso   1.00
H97    H     0.60710   0.21309   0.30996   0.00000  Uiso   1.00
H98    H     0.36020   0.21308   0.30989   0.00000  Uiso   1.00
H99    H     0.56867   0.25467   0.43628   0.00000  Uiso   1.00
H100   H     0.43313   0.13003   0.05247   0.00000  Uiso   1.00
H101   H     0.52065   0.22597   0.38349   0.00000  Uiso   1.00
H102   H     0.59332   0.25602   0.01676   0.00000  Uiso   1.00
N103   N     0.38265   0.16666   0.24998   0.00000  Uiso   1.00
N104   N     0.61735   0.16669   0.24999   0.00000  Uiso   1.00
O105   O     0.46042   0.22678   0.25000   0.00000  Uiso   1.00
O106   O     0.53961   0.22679   0.25000   0.00000  Uiso   1.00
O107   O     0.44108   0.16665   0.32549   0.00000  Uiso   1.00
O108   O     0.52027   0.16666   0.32549   0.00000  Uiso   1.00
O109   O     0.46039   0.10654   0.24999   0.00000  Uiso   1.00
O110   O     0.53958   0.10655   0.24999   0.00000  Uiso   1.00
O111   O     0.47973   0.16667   0.17451   0.00000  Uiso   1.00
O112   O     0.55892   0.16668   0.17451   0.00000  Uiso   1.00
Br113  Br    0.91209   0.04673   0.30447   0.00000  Uiso   1.00
Br114  Br    0.74380   0.10237   0.16986   0.00000  Uiso   1.00
Br115  Br    0.96578   0.10403   0.16773   0.00000  Uiso   1.00
Br116  Br    0.84845   0.09750   0.06619   0.00000  Uiso   1.00
Br117  Br    0.71422   0.10592   0.39361   0.00000  Uiso   1.00
C118   C     0.83318   0.24585   0.25058   0.00000  Uiso   1.00
C119   C     0.79225   0.16042   0.40729   0.00000  Uiso   1.00
C120   C     0.86680   0.31168   0.27099   0.00000  Uiso   1.00
C121   C     0.80722   0.16573   0.35012   0.00000  Uiso   1.00
C122   C     0.86674   0.02106   0.27293   0.00000  Uiso   1.00
C123   C     0.83263   0.04274   0.25449   0.00000  Uiso   1.00
C124   C     0.79769   0.02099   0.23742   0.00000  Uiso   1.00
C125   C     0.79771   0.31177   0.23632   0.00000  Uiso   1.00
C126   C     0.83274   0.29039   0.25230   0.00000  Uiso   1.00
C127   C     0.96621   0.19238   0.28325   0.00000  Uiso   1.00
C128   C     0.68233   0.19239   0.28320   0.00000  Uiso   1.00
C129   C     0.81566   0.16293   0.48839   0.00000  Uiso   1.00
C130   C     0.70025   0.14065   0.21681   0.00000  Uiso   1.00
C131   C     0.98428   0.14084   0.21652   0.00000  Uiso   1.00
C132   C     0.83292   0.08745   0.25199   0.00000  Uiso   1.00
C133   C     0.85944   0.16786   0.15009   0.00000  Uiso   1.00
C134   C     0.90494   0.22883   0.02919   0.00000  Uiso   1.00
C135   C     0.87411   0.17763   0.09461   0.00000  Uiso   1.00
C136   C     0.75414   0.13310   0.43080   0.00000  Uiso   1.00
C137   C     0.74520   0.12340   0.48324   0.00000  Uiso   1.00
C138   C     0.77568   0.13770   0.01161   0.00000  Uiso   1.00
C139   C     0.82039   0.17807   0.43791   0.00000  Uiso   1.00
C140   C     0.84855   0.17631   0.01584   0.00000  Uiso   1.00
C141   C     0.87794   0.21116   0.49822   0.00000  Uiso   1.00
C142   C     0.87942   0.22823   0.45037   0.00000  Uiso   1.00
C143   C     0.85204   0.21129   0.41994   0.00000  Uiso   1.00
C144   C     0.85297   0.15659   0.06066   0.00000  Uiso   1.00
C145   C     0.90104   0.21331   0.07838   0.00000  Uiso   1.00
Cu146  Cu    0.78645   0.16666   0.25000   0.00000  Uiso   1.00
Cu147  Cu    0.88022   0.16667   0.25000   0.00000  Uiso   1.00
H148   H     0.91786   0.22973   0.10434   0.00000  Uiso   1.00
H149   H     0.71521   0.10352   0.00186   0.00000  Uiso   1.00
H150   H     0.89296   0.29511   0.28509   0.00000  Uiso   1.00
H151   H     0.77057   0.03671   0.22421   0.00000  Uiso   1.00
H152   H     0.77080   0.29566   0.22221   0.00000  Uiso   1.00
H153   H     0.94044   0.21309   0.30996   0.00000  Uiso   1.00
H154   H     0.69353   0.21308   0.30989   0.00000  Uiso   1.00
H155   H     0.90200   0.25467   0.43628   0.00000  Uiso   1.00
H156   H     0.76646   0.13003   0.05247   0.00000  Uiso   1.00
H157   H     0.85399   0.22597   0.38349   0.00000  Uiso   1.00
H158   H     0.92665   0.25602   0.01676   0.00000  Uiso   1.00
N159   N     0.71598   0.16666   0.24998   0.00000  Uiso   1.00
N160   N     0.95069   0.16669   0.24999   0.00000  Uiso   1.00
O161   O     0.79375   0.22678   0.25000   0.00000  Uiso   1.00
O162   O     0.87294   0.22679   0.25000   0.00000  Uiso   1.00
O163   O     0.77441   0.16665   0.32549   0.00000  Uiso   1.00
O164   O     0.85360   0.16666   0.32549   0.00000  Uiso   1.00
O165   O     0.79373   0.10654   0.24999   0.00000  Uiso   1.00
O166   O     0.87292   0.10655   0.24999   0.00000  Uiso   1.00
O167   O     0.81306   0.16667   0.17451   0.00000  Uiso   1.00
O168   O     0.89225   0.16668   0.17451   0.00000  Uiso   1.00
Br169  Br    0.24543   0.38006   0.30447   0.00000  Uiso   1.00
Br170  Br    0.07713   0.43570   0.16986   0.00000  Uiso   1.00
Br171  Br    0.29912   0.43737   0.16773   0.00000  Uiso   1.00
Br172  Br    0.18179   0.43083   0.06619   0.00000  Uiso   1.00
Br173  Br    0.04755   0.43926   0.39361   0.00000  Uiso   1.00
C174   C     0.16652   0.57918   0.25058   0.00000  Uiso   1.00
C175   C     0.12558   0.49375   0.40729   0.00000  Uiso   1.00
C176   C     0.20013   0.64501   0.27099   0.00000  Uiso   1.00
C177   C     0.14055   0.49906   0.35012   0.00000  Uiso   1.00
C178   C     0.20007   0.35439   0.27293   0.00000  Uiso   1.00
C179   C     0.16596   0.37607   0.25449   0.00000  Uiso   1.00
C180   C     0.13103   0.35432   0.23742   0.00000  Uiso   1.00
C181   C     0.13104   0.64511   0.23632   0.00000  Uiso   1.00
C182   C     0.16607   0.62372   0.25230   0.00000  Uiso   1.00
C183   C     0.29954   0.52571   0.28325   0.00000  Uiso   1.00
C184   C     0.01566   0.52573   0.28320   0.00000  Uiso   1.00
C185   C     0.14899   0.49627   0.48839   0.00000  Uiso   1.00
C186   C     0.03358   0.47398   0.21681   0.00000  Uiso   1.00
C187   C     0.31761   0.47417   0.21652   0.00000  Uiso   1.00
C188   C     0.16626   0.42078   0.25199   0.00000  Uiso   1.00
C189   C     0.19278   0.50119   0.15009   0.00000  Uiso   1.00
C190   C     0.23827   0.56216   0.02919   0.00000  Uiso   1.00
C191   C     0.20744   0.51096   0.09461   0.00000  Uiso   1.00
C192   C     0.08748   0.46643   0.43080   0.00000  Uiso   1.00
C193   C     0.07854   0.45673   0.48324   0.00000  Uiso   1.00
C194   C     0.10902   0.47103   0.01161   0.00000  Uiso   1.00
C195   C     0.15372   0.51140   0.43791   0.00000  Uiso   1.00
C196   C     0.18189   0.50964   0.01584   0.00000  Uiso   1.00
C197   C     0.21127   0.54450   0.49822   0.00000  Uiso   1.00
C198   C     0.21276   0.56156   0.45037   0.00000  Uiso   1.00
C199   C     0.18537   0.54462   0.41994   0.00000  Uiso   1.00
C200   C     0.18630   0.48993   0.06066   0.00000  Uiso   1.00
C201   C     0.23437   0.54664   0.07838   0.00000  Uiso   1.00
Cu202  Cu    0.11978   0.49999   0.25000   0.00000  Uiso   1.00
Cu203  Cu    0.21355   0.50001   0.25000   0.00000  Uiso   1.00
H204   H     0.25119   0.56306   0.10434   0.00000  Uiso   1.00
H205   H     0.04854   0.43685   0.00186   0.00000  Uiso   1.00
H206   H     0.22630   0.62845   0.28509   0.00000  Uiso   1.00
H207   H     0.10390   0.37004   0.22421   0.00000  Uiso   1.00
H208   H     0.10414   0.62899   0.22221   0.00000  Uiso   1.00
H209   H     0.27377   0.54642   0.30996   0.00000  Uiso   1.00
H210   H     0.02687   0.54642   0.30989   0.00000  Uiso   1.00
H211   H     0.23534   0.58801   0.43628   0.00000  Uiso   1.00
H212   H     0.09979   0.46336   0.05247   0.00000  Uiso   1.00
H213   H     0.18732   0.55930   0.38349   0.00000  Uiso   1.00
H214   H     0.25999   0.58936   0.01676   0.00000  Uiso   1.00
N215   N     0.04931   0.49999   0.24998   0.00000  Uiso   1.00
N216   N     0.28402   0.50002   0.24999   0.00000  Uiso   1.00
O217   O     0.12708   0.56011   0.25000   0.00000  Uiso   1.00
O218   O     0.20627   0.56012   0.25000   0.00000  Uiso   1.00
O219   O     0.10775   0.49998   0.32549   0.00000  Uiso   1.00
O220   O     0.18694   0.49999   0.32549   0.00000  Uiso   1.00
O221   O     0.12706   0.43988   0.24999   0.00000  Uiso   1.00
O222   O     0.20625   0.43989   0.24999   0.00000  Uiso   1.00
O223   O     0.14640   0.50001   0.17451   0.00000  Uiso   1.00
O224   O     0.22559   0.50002   0.17451   0.00000  Uiso   1.00
Br225  Br    0.57876   0.38006   0.30447   0.00000  Uiso   1.00
Br226  Br    0.41047   0.43570   0.16986   0.00000  Uiso   1.00
Br227  Br    0.63245   0.43737   0.16773   0.00000  Uiso   1.00
Br228  Br    0.51512   0.43083   0.06619   0.00000  Uiso   1.00
Br229  Br    0.38088   0.43926   0.39361   0.00000  Uiso   1.00
C230   C     0.49985   0.57918   0.25058   0.00000  Uiso   1.00
C231   C     0.45891   0.49375   0.40729   0.00000  Uiso   1.00
C232   C     0.53347   0.64501   0.27099   0.00000  Uiso   1.00
C233   C     0.47389   0.49906   0.35012   0.00000  Uiso   1.00
C234   C     0.53340   0.35439   0.27293   0.00000  Uiso   1.00
C235   C     0.49930   0.37607   0.25449   0.00000  Uiso   1.00
C236   C     0.46436   0.35432   0.23742   0.00000  Uiso   1.00
C237   C     0.46437   0.64511   0.23632   0.00000  Uiso   1.00
C238   C     0.49940   0.62372   0.25230   0.00000  Uiso   1.00
C239   C     0.63287   0.52571   0.28325   0.00000  Uiso   1.00
C240   C     0.34900   0.52573   0.28320   0.00000  Uiso   1.00
C241   C     0.48232   0.49627   0.48839   0.00000  Uiso   1.00
C242   C     0.36691   0.47398   0.21681   0.00000  Uiso   1.00
C243   C     0.65095   0.47417   0.21652   0.00000  Uiso   1.00
C244   C     0.49959   0.42078   0.25199   0.00000  Uiso   1.00
C245   C     0.52611   0.50119   0.15009   0.00000  Uiso   1.00
C246   C     0.57160   0.56216   0.02919   0.00000  Uiso   1.00
C247   C     0.54077   0.51096   0.09461   0.00000  Uiso   1.00
C248   C     0.42081   0.46643   0.43080   0.00000  Uiso   1.00
C249   C     0.41187   0.45673   0.48324   0.00000  Uiso   1.00
C250   C     0.44235   0.47103   0.01161   0.00000  Uiso   1.00
C251   C     0.48705   0.51140   0.43791   0.00000  Uiso   1.00
C252   C     0.51522   0.50964   0.01584   0.00000  Uiso   1.00
C253   C     0.54460   0.54450   0.49822   0.00000  Uiso   1.00
C254   C     0.54609   0.56156   0.45037   0.00000  Uiso   1.00
C255   C     0.51870   0.54462   0.41994   0.00000  Uiso   1.00
C256   C     0.51963   0.48993   0.06066   0.00000  Uiso   1.00
C257   C     0.56771   0.54664   0.07838   0.00000  Uiso   1.00
Cu258  Cu    0.45311   0.49999   0.25000   0.00000  Uiso   1.00
Cu259  Cu    0.54689   0.50001   0.25000   0.00000  Uiso   1.00
H260   H     0.58452   0.56306   0.10434   0.00000  Uiso   1.00
H261   H     0.38187   0.43685   0.00186   0.00000  Uiso   1.00
H262   H     0.55963   0.62845   0.28509   0.00000  Uiso   1.00
H263   H     0.43724   0.37004   0.22421   0.00000  Uiso   1.00
H264   H     0.43747   0.62899   0.22221   0.00000  Uiso   1.00
H265   H     0.60710   0.54642   0.30996   0.00000  Uiso   1.00
H266   H     0.36020   0.54642   0.30989   0.00000  Uiso   1.00
H267   H     0.56867   0.58801   0.43628   0.00000  Uiso   1.00
H268   H     0.43313   0.46336   0.05247   0.00000  Uiso   1.00
H269   H     0.52065   0.55930   0.38349   0.00000  Uiso   1.00
H270   H     0.59332   0.58936   0.01676   0.00000  Uiso   1.00
N271   N     0.38265   0.49999   0.24998   0.00000  Uiso   1.00
N272   N     0.61735   0.50002   0.24999   0.00000  Uiso   1.00
O273   O     0.46042   0.56011   0.25000   0.00000  Uiso   1.00
O274   O     0.53961   0.56012   0.25000   0.00000  Uiso   1.00
O275   O     0.44108   0.49998   0.32549   0.00000  Uiso   1.00
O276   O     0.52027   0.49999   0.32549   0.00000  Uiso   1.00
O277   O     0.46039   0.43988   0.24999   0.00000  Uiso   1.00
O278   O     0.53958   0.43989   0.24999   0.00000  Uiso   1.00
O279   O     0.47973   0.50001   0.17451   0.00000  Uiso   1.00
O280   O     0.55892   0.50002   0.17451   0.00000  Uiso   1.00
Br281  Br    0.91209   0.38006   0.30447   0.00000  Uiso   1.00
Br282  Br    0.74380   0.43570   0.16986   0.00000  Uiso   1.00
Br283  Br    0.96578   0.43737   0.16773   0.00000  Uiso   1.00
Br284  Br    0.84845   0.43083   0.06619   0.00000  Uiso   1.00
Br285  Br    0.71422   0.43926   0.39361   0.00000  Uiso   1.00
C286   C     0.83318   0.57918   0.25058   0.00000  Uiso   1.00
C287   C     0.79225   0.49375   0.40729   0.00000  Uiso   1.00
C288   C     0.86680   0.64501   0.27099   0.00000  Uiso   1.00
C289   C     0.80722   0.49906   0.35012   0.00000  Uiso   1.00
C290   C     0.86674   0.35439   0.27293   0.00000  Uiso   1.00
C291   C     0.83263   0.37607   0.25449   0.00000  Uiso   1.00
C292   C     0.79769   0.35432   0.23742   0.00000  Uiso   1.00
C293   C     0.79771   0.64511   0.23632   0.00000  Uiso   1.00
C294   C     0.83274   0.62372   0.25230   0.00000  Uiso   1.00
C295   C     0.96621   0.52571   0.28325   0.00000  Uiso   1.00
C296   C     0.68233   0.52573   0.28320   0.00000  Uiso   1.00
C297   C     0.81566   0.49627   0.48839   0.00000  Uiso   1.00
C298   C     0.70025   0.47398   0.21681   0.00000  Uiso   1.00
C299   C     0.98428   0.47417   0.21652   0.00000  Uiso   1.00
C300   C     0.83292   0.42078   0.25199   0.00000  Uiso   1.00
C301   C     0.85944   0.50119   0.15009   0.00000  Uiso   1.00
C302   C     0.90494   0.56216   0.02919   0.00000  Uiso   1.00
C303   C     0.87411   0.51096   0.09461   0.00000  Uiso   1.00
C304   C     0.75414   0.46643   0.43080   0.00000  Uiso   1.00
C305   C     0.74520   0.45673   0.48324   0.00000  Uiso   1.00
C306   C     0.77568   0.47103   0.01161   0.00000  Uiso   1.00
C307   C     0.82039   0.51140   0.43791   0.00000  Uiso   1.00
C308   C     0.84855   0.50964   0.01584   0.00000  Uiso   1.00
C309   C     0.87794   0.54450   0.49822   0.00000  Uiso   1.00
C310   C     0.87942   0.56156   0.45037   0.00000  Uiso   1.00
C311   C     0.85204   0.54462   0.41994   0.00000  Uiso   1.00
C312   C     0.85297   0.48993   0.06066   0.00000  Uiso   1.00
C313   C     0.90104   0.54664   0.07838   0.00000  Uiso   1.00
Cu314  Cu    0.78645   0.49999   0.25000   0.00000  Uiso   1.00
Cu315  Cu    0.88022   0.50001   0.25000   0.00000  Uiso   1.00
H316   H     0.91786   0.56306   0.10434   0.00000  Uiso   1.00
H317   H     0.71521   0.43685   0.00186   0.00000  Uiso   1.00
H318   H     0.89296   0.62845   0.28509   0.00000  Uiso   1.00
H319   H     0.77057   0.37004   0.22421   0.00000  Uiso   1.00
H320   H     0.77080   0.62899   0.22221   0.00000  Uiso   1.00
H321   H     0.94044   0.54642   0.30996   0.00000  Uiso   1.00
H322   H     0.69353   0.54642   0.30989   0.00000  Uiso   1.00
H323   H     0.90200   0.58801   0.43628   0.00000  Uiso   1.00
H324   H     0.76646   0.46336   0.05247   0.00000  Uiso   1.00
H325   H     0.85399   0.55930   0.38349   0.00000  Uiso   1.00
H326   H     0.92665   0.58936   0.01676   0.00000  Uiso   1.00
N327   N     0.71598   0.49999   0.24998   0.00000  Uiso   1.00
N328   N     0.95069   0.50002   0.24999   0.00000  Uiso   1.00
O329   O     0.79375   0.56011   0.25000   0.00000  Uiso   1.00
O330   O     0.87294   0.56012   0.25000   0.00000  Uiso   1.00
O331   O     0.77441   0.49998   0.32549   0.00000  Uiso   1.00
O332   O     0.85360   0.49999   0.32549   0.00000  Uiso   1.00
O333   O     0.79373   0.43988   0.24999   0.00000  Uiso   1.00
O334   O     0.87292   0.43989   0.24999   0.00000  Uiso   1.00
O335   O     0.81306   0.50001   0.17451   0.00000  Uiso   1.00
O336   O     0.89225   0.50002   0.17451   0.00000  Uiso   1.00
Br337  Br    0.24543   0.71340   0.30447   0.00000  Uiso   1.00
Br338  Br    0.07713   0.76903   0.16986   0.00000  Uiso   1.00
Br339  Br    0.29912   0.77070   0.16773   0.00000  Uiso   1.00
Br340  Br    0.18179   0.76416   0.06619   0.00000  Uiso   1.00
Br341  Br    0.04755   0.77259   0.39361   0.00000  Uiso   1.00
C342   C     0.16652   0.91251   0.25058   0.00000  Uiso   1.00
C343   C     0.12558   0.82709   0.40729   0.00000  Uiso   1.00
C344   C     0.20013   0.97835   0.27099   0.00000  Uiso   1.00
C345   C     0.14055   0.83239   0.35012   0.00000  Uiso   1.00
C346   C     0.20007   0.68773   0.27293   0.00000  Uiso   1.00
C347   C     0.16596   0.70940   0.25449   0.00000  Uiso   1.00
C348   C     0.13103   0.68765   0.23742   0.00000  Uiso   1.00
C349   C     0.13104   0.97844   0.23632   0.00000  Uiso   1.00
C350   C     0.16607   0.95705   0.25230   0.00000  Uiso   1.00
C351   C     0.29954   0.85904   0.28325   0.00000  Uiso   1.00
C352   C     0.01566   0.85906   0.28320   0.00000  Uiso   1.00
C353   C     0.14899   0.82960   0.48839   0.00000  Uiso   1.00
C354   C     0.03358   0.80731   0.21681   0.00000  Uiso   1.00
C355   C     0.31761   0.80751   0.21652   0.00000  Uiso   1.00
C356   C     0.16626   0.75412   0.25199   0.00000  Uiso   1.00
C357   C     0.19278   0.83452   0.15009   0.00000  Uiso   1.00
C358   C     0.23827   0.89550   0.02919   0.00000  Uiso   1.00
C359   C     0.20744   0.84430   0.09461   0.00000  Uiso   1.00
C360   C     0.08748   0.79977   0.43080   0.00000  Uiso   1.00
C361   C     0.07854   0.79006   0.48324   0.00000  Uiso   1.00
C362   C     0.10902   0.80437   0.01161   0.00000  Uiso   1.00
C363   C     0.15372   0.84474   0.43791   0.00000  Uiso   1.00
C364   C     0.18189   0.84297   0.01584   0.00000  Uiso   1.00
C365   C     0.21127   0.87783   0.49822   0.00000  Uiso   1.00
C366   C     0.21276   0.89490   0.45037   0.00000  Uiso   1.00
C367   C     0.18537   0.87796   0.41994   0.00000  Uiso   1.00
C368   C     0.18630   0.82326   0.06066   0.00000  Uiso   1.00
C369   C     0.23437   0.87997   0.07838   0.00000  Uiso   1.00
Cu370  Cu    0.11978   0.83333   0.25000   0.00000  Uiso   1.00
Cu371  Cu    0.21355   0.83334   0.25000   0.00000  Uiso   1.00
H372   H     0.25119   0.89639   0.10434   0.00000  Uiso   1.00
H373   H     0.04854   0.77019   0.00186   0.00000  Uiso   1.00
H374   H     0.22630   0.96178   0.28509   0.00000  Uiso   1.00
H375   H     0.10390   0.70337   0.22421   0.00000  Uiso   1.00
H376   H     0.10414   0.96232   0.22221   0.00000  Uiso   1.00
H377   H     0.27377   0.87975   0.30996   0.00000  Uiso   1.00
H378   H     0.02687   0.87975   0.30989   0.00000  Uiso   1.00
H379   H     0.23534   0.92134   0.43628   0.00000  Uiso   1.00
H380   H     0.09979   0.79670   0.05247   0.00000  Uiso   1.00
H381   H     0.18732   0.89263   0.38349   0.00000  Uiso   1.00
H382   H     0.25999   0.92269   0.01676   0.00000  Uiso   1.00
N383   N     0.04931   0.83332   0.24998   0.00000  Uiso   1.00
N384   N     0.28402   0.83335   0.24999   0.00000  Uiso   1.00
O385   O     0.12708   0.89345   0.25000   0.00000  Uiso   1.00
O386   O     0.20627   0.89346   0.25000   0.00000  Uiso   1.00
O387   O     0.10775   0.83332   0.32549   0.00000  Uiso   1.00
O388   O     0.18694   0.83333   0.32549   0.00000  Uiso   1.00
O389   O     0.12706   0.77321   0.24999   0.00000  Uiso   1.00
O390   O     0.20625   0.77322   0.24999   0.00000  Uiso   1.00
O391   O     0.14640   0.83334   0.17451   0.00000  Uiso   1.00
O392   O     0.22559   0.83335   0.17451   0.00000  Uiso   1.00
Br393  Br    0.57876   0.71340   0.30447   0.00000  Uiso   1.00
Br394  Br    0.41047   0.76903   0.16986   0.00000  Uiso   1.00
Br395  Br    0.63245   0.77070   0.16773   0.00000  Uiso   1.00
Br396  Br    0.51512   0.76416   0.06619   0.00000  Uiso   1.00
Br397  Br    0.38088   0.77259   0.39361   0.00000  Uiso   1.00
C398   C     0.49985   0.91251   0.25058   0.00000  Uiso   1.00
C399   C     0.45891   0.82709   0.40729   0.00000  Uiso   1.00
C400   C     0.53347   0.97835   0.27099   0.00000  Uiso   1.00
C401   C     0.47389   0.83239   0.35012   0.00000  Uiso   1.00
C402   C     0.53340   0.68773   0.27293   0.00000  Uiso   1.00
C403   C     0.49930   0.70940   0.25449   0.00000  Uiso   1.00
C404   C     0.46436   0.68765   0.23742   0.00000  Uiso   1.00
C405   C     0.46437   0.97844   0.23632   0.00000  Uiso   1.00
C406   C     0.49940   0.95705   0.25230   0.00000  Uiso   1.00
C407   C     0.63287   0.85904   0.28325   0.00000  Uiso   1.00
C408   C     0.34900   0.85906   0.28320   0.00000  Uiso   1.00
C409   C     0.48232   0.82960   0.48839   0.00000  Uiso   1.00
C410   C     0.36691   0.80731   0.21681   0.00000  Uiso   1.00
C411   C     0.65095   0.80751   0.21652   0.00000  Uiso   1.00
C412   C     0.49959   0.75412   0.25199   0.00000  Uiso   1.00
C413   C     0.52611   0.83452   0.15009   0.00000  Uiso   1.00
C414   C     0.57160   0.89550   0.02919   0.00000  Uiso   1.00
C415   C     0.54077   0.84430   0.09461   0.00000  Uiso   1.00
C416   C     0.42081   0.79977   0.43080   0.00000  Uiso   1.00
C417   C     0.41187   0.79006   0.48324   0.00000  Uiso   1.00
C418   C     0.44235   0.80437   0.01161   0.00000  Uiso   1.00
C419   C     0.48705   0.84474   0.43791   0.00000  Uiso   1.00
C420   C     0.51522   0.84297   0.01584   0.00000  Uiso   1.00
C421   C     0.54460   0.87783   0.49822   0.00000  Uiso   1.00
C422   C     0.54609   0.89490   0.45037   0.00000  Uiso   1.00
C423   C     0.51870   0.87796   0.41994   0.00000  Uiso   1.00
C424   C     0.51963   0.82326   0.06066   0.00000  Uiso   1.00
C425   C     0.56771   0.87997   0.07838   0.00000  Uiso   1.00
Cu426  Cu    0.45311   0.83333   0.25000   0.00000  Uiso   1.00
Cu427  Cu    0.54689   0.83334   0.25000   0.00000  Uiso   1.00
H428   H     0.58452   0.89639   0.10434   0.00000  Uiso   1.00
H429   H     0.38187   0.77019   0.00186   0.00000  Uiso   1.00
H430   H     0.55963   0.96178   0.28509   0.00000  Uiso   1.00
H431   H     0.43724   0.70337   0.22421   0.00000  Uiso   1.00
H432   H     0.43747   0.96232   0.22221   0.00000  Uiso   1.00
H433   H     0.60710   0.87975   0.30996   0.00000  Uiso   1.00
H434   H     0.36020   0.87975   0.30989   0.00000  Uiso   1.00
H435   H     0.56867   0.92134   0.43628   0.00000  Uiso   1.00
H436   H     0.43313   0.79670   0.05247   0.00000  Uiso   1.00
H437   H     0.52065   0.89263   0.38349   0.00000  Uiso   1.00
H438   H     0.59332   0.92269   0.01676   0.00000  Uiso   1.00
N439   N     0.38265   0.83332   0.24998   0.00000  Uiso   1.00
N440   N     0.61735   0.83335   0.24999   0.00000  Uiso   1.00
O441   O     0.46042   0.89345   0.25000   0.00000  Uiso   1.00
O442   O     0.53961   0.89346   0.25000   0.00000  Uiso   1.00
O443   O     0.44108   0.83332   0.32549   0.00000  Uiso   1.00
O444   O     0.52027   0.83333   0.32549   0.00000  Uiso   1.00
O445   O     0.46039   0.77321   0.24999   0.00000  Uiso   1.00
O446   O     0.53958   0.77322   0.24999   0.00000  Uiso   1.00
O447   O     0.47973   0.83334   0.17451   0.00000  Uiso   1.00
O448   O     0.55892   0.83335   0.17451   0.00000  Uiso   1.00
Br449  Br    0.91209   0.71340   0.30447   0.00000  Uiso   1.00
Br450  Br    0.74380   0.76903   0.16986   0.00000  Uiso   1.00
Br451  Br    0.96578   0.77070   0.16773   0.00000  Uiso   1.00
Br452  Br    0.84845   0.76416   0.06619   0.00000  Uiso   1.00
Br453  Br    0.71422   0.77259   0.39361   0.00000  Uiso   1.00
C454   C     0.83318   0.91251   0.25058   0.00000  Uiso   1.00
C455   C     0.79225   0.82709   0.40729   0.00000  Uiso   1.00
C456   C     0.86680   0.97835   0.27099   0.00000  Uiso   1.00
C457   C     0.80722   0.83239   0.35012   0.00000  Uiso   1.00
C458   C     0.86674   0.68773   0.27293   0.00000  Uiso   1.00
C459   C     0.83263   0.70940   0.25449   0.00000  Uiso   1.00
C460   C     0.79769   0.68765   0.23742   0.00000  Uiso   1.00
C461   C     0.79771   0.97844   0.23632   0.00000  Uiso   1.00
C462   C     0.83274   0.95705   0.25230   0.00000  Uiso   1.00
C463   C     0.96621   0.85904   0.28325   0.00000  Uiso   1.00
C464   C     0.68233   0.85906   0.28320   0.00000  Uiso   1.00
C465   C     0.81566   0.82960   0.48839   0.00000  Uiso   1.00
C466   C     0.70025   0.80731   0.21681   0.00000  Uiso   1.00
C467   C     0.98428   0.80751   0.21652   0.00000  Uiso   1.00
C468   C     0.83292   0.75412   0.25199   0.00000  Uiso   1.00
C469   C     0.85944   0.83452   0.15009   0.00000  Uiso   1.00
C470   C     0.90494   0.89550   0.02919   0.00000  Uiso   1.00
C471   C     0.87411   0.84430   0.09461   0.00000  Uiso   1.00
C472   C     0.75414   0.79977   0.43080   0.00000  Uiso   1.00
C473   C     0.74520   0.79006   0.48324   0.00000  Uiso   1.00
C474   C     0.77568   0.80437   0.01161   0.00000  Uiso   1.00
C475   C     0.82039   0.84474   0.43791   0.00000  Uiso   1.00
C476   C     0.84855   0.84297   0.01584   0.00000  Uiso   1.00
C477   C     0.87794   0.87783   0.49822   0.00000  Uiso   1.00
C478   C     0.87942   0.89490   0.45037   0.00000  Uiso   1.00
C479   C     0.85204   0.87796   0.41994   0.00000  Uiso   1.00
C480   C     0.85297   0.82326   0.06066   0.00000  Uiso   1.00
C481   C     0.90104   0.87997   0.07838   0.00000  Uiso   1.00
Cu482  Cu    0.78645   0.83333   0.25000   0.00000  Uiso   1.00
Cu483  Cu    0.88022   0.83334   0.25000   0.00000  Uiso   1.00
H484   H     0.91786   0.89639   0.10434   0.00000  Uiso   1.00
H485   H     0.71521   0.77019   0.00186   0.00000  Uiso   1.00
H486   H     0.89296   0.96178   0.28509   0.00000  Uiso   1.00
H487   H     0.77057   0.70337   0.22421   0.00000  Uiso   1.00
H488   H     0.77080   0.96232   0.22221   0.00000  Uiso   1.00
H489   H     0.94044   0.87975   0.30996   0.00000  Uiso   1.00
H490   H     0.69353   0.87975   0.30989   0.00000  Uiso   1.00
H491   H     0.90200   0.92134   0.43628   0.00000  Uiso   1.00
H492   H     0.76646   0.79670   0.05247   0.00000  Uiso   1.00
H493   H     0.85399   0.89263   0.38349   0.00000  Uiso   1.00
H494   H     0.92665   0.92269   0.01676   0.00000  Uiso   1.00
N495   N     0.71598   0.83332   0.24998   0.00000  Uiso   1.00
N496   N     0.95069   0.83335   0.24999   0.00000  Uiso   1.00
O497   O     0.79375   0.89345   0.25000   0.00000  Uiso   1.00
O498   O     0.87294   0.89346   0.25000   0.00000  Uiso   1.00
O499   O     0.77441   0.83332   0.32549   0.00000  Uiso   1.00
O500   O     0.85360   0.83333   0.32549   0.00000  Uiso   1.00
O501   O     0.79373   0.77321   0.24999   0.00000  Uiso   1.00
O502   O     0.87292   0.77322   0.24999   0.00000  Uiso   1.00
O503   O     0.81306   0.83334   0.17451   0.00000  Uiso   1.00
O504   O     0.89225   0.83335   0.17451   0.00000  Uiso   1.00
Br505  Br    0.24543   0.04673   0.80447   0.00000  Uiso   1.00
Br506  Br    0.07713   0.10237   0.66986   0.00000  Uiso   1.00
Br507  Br    0.29912   0.10403   0.66773   0.00000  Uiso   1.00
Br508  Br    0.18179   0.09750   0.56619   0.00000  Uiso   1.00
Br509  Br    0.04755   0.10592   0.89361   0.00000  Uiso   1.00
C510   C     0.16652   0.24585   0.75058   0.00000  Uiso   1.00
C511   C     0.12558   0.16042   0.90729   0.00000  Uiso   1.00
C512   C     0.20013   0.31168   0.77099   0.00000  Uiso   1.00
C513   C     0.14055   0.16573   0.85012   0.00000  Uiso   1.00
C514   C     0.20007   0.02106   0.77293   0.00000  Uiso   1.00
C515   C     0.16596   0.04274   0.75449   0.00000  Uiso   1.00
C516   C     0.13103   0.02099   0.73742   0.00000  Uiso   1.00
C517   C     0.13104   0.31177   0.73632   0.00000  Uiso   1.00
C518   C     0.16607   0.29039   0.75230   0.00000  Uiso   1.00
C519   C     0.29954   0.19238   0.78325   0.00000  Uiso   1.00
C520   C     0.01566   0.19239   0.78320   0.00000  Uiso   1.00
C521   C     0.14899   0.16293   0.98839   0.00000  Uiso   1.00
C522   C     0.03358   0.14065   0.71681   0.00000  Uiso   1.00
C523   C     0.31761   0.14084   0.71652   0.00000  Uiso   1.00
C524   C     0.16626   0.08745   0.75199   0.00000  Uiso   1.00
C525   C     0.19278   0.16786   0.65009   0.00000  Uiso   1.00
C526   C     0.23827   0.22883   0.52919   0.00000  Uiso   1.00
C527   C     0.20744   0.17763   0.59461   0.00000  Uiso   1.00
C528   C     0.08748   0.13310   0.93080   0.00000  Uiso   1.00
C529   C     0.07854   0.12340   0.98324   0.00000  Uiso   1.00
C530   C     0.10902   0.13770   0.51161   0.00000  Uiso   1.00
C531   C     0.15372   0.17807   0.93791   0.00000  Uiso   1.00
C532   C     0.18189   0.17631   0.51584   0.00000  Uiso   1.00
C533   C     0.21127   0.21116   0.99822   0.00000  Uiso   1.00
C534   C     0.21276   0.22823   0.95037   0.00000  Uiso   1.00
C535   C     0.18537   0.21129   0.91994   0.00000  Uiso   1.00
C536   C     0.18630   0.15659   0.56066   0.00000  Uiso   1.00
C537   C     0.23437   0.21331   0.57838   0.00000  Uiso   1.00
Cu538  Cu    0.11978   0.16666   0.75000   0.00000  Uiso   1.00
Cu539  Cu    0.21355   0.16667   0.75000   0.00000  Uiso   1.00
H540   H     0.25119   0.22973   0.60434   0.00000  Uiso   1.00
H541   H     0.04854   0.10352   0.50186   0.00000  Uiso   1.00
H542   H     0.22630   0.29511   0.78509   0.00000  Uiso   1.00
H543   H     0.10390   0.03671   0.72421   0.00000  Uiso   1.00
H544   H     0.10414   0.29566   0.72221   0.00000  Uiso   1.00
H545   H     0.27377   0.21309   0.80996   0.00000  Uiso   1.00
H546   H     0.02687   0.21308   0.80989   0.00000  Uiso   1.00
H547   H     0.23534   0.25467   0.93628   0.00000  Uiso   1.00
H548   H     0.09979   0.13003   0.55247   0.00000  Uiso   1.00
H549   H     0.18732   0.22597   0.88349   0.00000  Uiso   1.00
H550   H     0.25999   0.25602   0.51676   0.00000  Uiso   1.00
N551   N     0.04931   0.16666   0.74998   0.00000  Uiso   1.00
N552   N     0.28402   0.16669   0.74999   0.00000  Uiso   1.00
O553   O     0.12708   0.22678   0.75000   0.00000  Uiso   1.00
O554   O     0.20627   0.22679   0.75000   0.00000  Uiso   1.00
O555   O     0.10775   0.16665   0.82549   0.00000  Uiso   1.00
O556   O     0.18694   0.16666   0.82549   0.00000  Uiso   1.00
O557   O     0.12706   0.10654   0.74999   0.00000  Uiso   1.00
O558   O     0.20625   0.10655   0.74999   0.00000  Uiso   1.00
O559   O     0.14640   0.16667   0.67451   0.00000  Uiso   1.00
O560   O     0.22559   0.16668   0.67451   0.00000  Uiso   1.00
Br561  Br    0.57876   0.04673   0.80447   0.00000  Uiso   1.00
Br562  Br    0.41047   0.10237   0.66986   0.00000  Uiso   1.00
Br563  Br    0.63245   0.10403   0.66773   0.00000  Uiso   1.00
Br564  Br    0.51512   0.09750   0.56619   0.00000  Uiso   1.00
Br565  Br    0.38088   0.10592   0.89361   0.00000  Uiso   1.00
C566   C     0.49985   0.24585   0.75058   0.00000  Uiso   1.00
C567   C     0.45891   0.16042   0.90729   0.00000  Uiso   1.00
C568   C     0.53347   0.31168   0.77099   0.00000  Uiso   1.00
C569   C     0.47389   0.16573   0.85012   0.00000  Uiso   1.00
C570   C     0.53340   0.02106   0.77293   0.00000  Uiso   1.00
C571   C     0.49930   0.04274   0.75449   0.00000  Uiso   1.00
C572   C     0.46436   0.02099   0.73742   0.00000  Uiso   1.00
C573   C     0.46437   0.31177   0.73632   0.00000  Uiso   1.00
C574   C     0.49940   0.29039   0.75230   0.00000  Uiso   1.00
C575   C     0.63287   0.19238   0.78325   0.00000  Uiso   1.00
C576   C     0.34900   0.19239   0.78320   0.00000  Uiso   1.00
C577   C     0.48232   0.16293   0.98839   0.00000  Uiso   1.00
C578   C     0.36691   0.14065   0.71681   0.00000  Uiso   1.00
C579   C     0.65095   0.14084   0.71652   0.00000  Uiso   1.00
C580   C     0.49959   0.08745   0.75199   0.00000  Uiso   1.00
C581   C     0.52611   0.16786   0.65009   0.00000  Uiso   1.00
C582   C     0.57160   0.22883   0.52919   0.00000  Uiso   1.00
C583   C     0.54077   0.17763   0.59461   0.00000  Uiso   1.00
C584   C     0.42081   0.13310   0.93080   0.00000  Uiso   1.00
C585   C     0.41187   0.12340   0.98324   0.00000  Uiso   1.00
C586   C     0.44235   0.13770   0.51161   0.00000  Uiso   1.00
C587   C     0.48705   0.17807   0.93791   0.00000  Uiso   1.00
C588   C     0.51522   0.17631   0.51584   0.00000  Uiso   1.00
C589   C     0.54460   0.21116   0.99822   0.00000  Uiso   1.00
C590   C     0.54609   0.22823   0.95037   0.00000  Uiso   1.00
C591   C     0.51870   0.21129   0.91994   0.00000  Uiso   1.00
C592   C     0.51963   0.15659   0.56066   0.00000  Uiso   1.00
C593   C     0.56771   0.21331   0.57838   0.00000  Uiso   1.00
Cu594  Cu    0.45311   0.16666   0.75000   0.00000  Uiso   1.00
Cu595  Cu    0.54689   0.16667   0.75000   0.00000  Uiso   1.00
H596   H     0.58452   0.22973   0.60434   0.00000  Uiso   1.00
H597   H     0.38187   0.10352   0.50186   0.00000  Uiso   1.00
H598   H     0.55963   0.29511   0.78509   0.00000  Uiso   1.00
H599   H     0.43724   0.03671   0.72421   0.00000  Uiso   1.00
H600   H     0.43747   0.29566   0.72221   0.00000  Uiso   1.00
H601   H     0.60710   0.21309   0.80996   0.00000  Uiso   1.00
H602   H     0.36020   0.21308   0.80989   0.00000  Uiso   1.00
H603   H     0.56867   0.25467   0.93628   0.00000  Uiso   1.00
H604   H     0.43313   0.13003   0.55247   0.00000  Uiso   1.00
H605   H     0.52065   0.22597   0.88349   0.00000  Uiso   1.00
H606   H     0.59332   0.25602   0.51676   0.00000  Uiso   1.00
N607   N     0.38265   0.16666   0.74998   0.00000  Uiso   1.00
N608   N     0.61735   0.16669   0.74999   0.00000  Uiso   1.00
O609   O     0.46042   0.22678   0.75000   0.00000  Uiso   1.00
O610   O     0.53961   0.22679   0.75000   0.00000  Uiso   1.00
O611   O     0.44108   0.16665   0.82549   0.00000  Uiso   1.00
O612   O     0.52027   0.16666   0.82549   0.00000  Uiso   1.00
O613   O     0.46039   0.10654   0.74999   0.00000  Uiso   1.00
O614   O     0.53958   0.10655   0.74999   0.00000  Uiso   1.00
O615   O     0.47973   0.16667   0.67451   0.00000  Uiso   1.00
O616   O     0.55892   0.16668   0.67451   0.00000  Uiso   1.00
Br617  Br    0.91209   0.04673   0.80447   0.00000  Uiso   1.00
Br618  Br    0.74380   0.10237   0.66986   0.00000  Uiso   1.00
Br619  Br    0.96578   0.10403   0.66773   0.00000  Uiso   1.00
Br620  Br    0.84845   0.09750   0.56619   0.00000  Uiso   1.00
Br621  Br    0.71422   0.10592   0.89361   0.00000  Uiso   1.00
C622   C     0.83318   0.24585   0.75058   0.00000  Uiso   1.00
C623   C     0.79225   0.16042   0.90729   0.00000  Uiso   1.00
C624   C     0.86680   0.31168   0.77099   0.00000  Uiso   1.00
C625   C     0.80722   0.16573   0.85012   0.00000  Uiso   1.00
C626   C     0.86674   0.02106   0.77293   0.00000  Uiso   1.00
C627   C     0.83263   0.04274   0.75449   0.00000  Uiso   1.00
C628   C     0.79769   0.02099   0.73742   0.00000  Uiso   1.00
C629   C     0.79771   0.31177   0.73632   0.00000  Uiso   1.00
C630   C     0.83274   0.29039   0.75230   0.00000  Uiso   1.00
C631   C     0.96621   0.19238   0.78325   0.00000  Uiso   1.00
C632   C     0.68233   0.19239   0.78320   0.00000  Uiso   1.00
C633   C     0.81566   0.16293   0.98839   0.00000  Uiso   1.00
C634   C     0.70025   0.14065   0.71681   0.00000  Uiso   1.00
C635   C     0.98428   0.14084   0.71652   0.00000  Uiso   1.00
C636   C     0.83292   0.08745   0.75199   0.00000  Uiso   1.00
C637   C     0.85944   0.16786   0.65009   0.00000  Uiso   1.00
C638   C     0.90494   0.22883   0.52919   0.00000  Uiso   1.00
C639   C     0.87411   0.17763   0.59461   0.00000  Uiso   1.00
C640   C     0.75414   0.13310   0.93080   0.00000  Uiso   1.00
C641   C     0.74520   0.12340   0.98324   0.00000  Uiso   1.00
C642   C     0.77568   0.13770   0.51161   0.00000  Uiso   1.00
C643   C     0.82039   0.17807   0.93791   0.00000  Uiso   1.00
C644   C     0.84855   0.17631   0.51584   0.00000  Uiso   1.00
C645   C     0.87794   0.21116   0.99822   0.00000  Uiso   1.00
C646   C     0.87942   0.22823   0.95037   0.00000  Uiso   1.00
C647   C     0.85204   0.21129   0.91994   0.00000  Uiso   1.00
C648   C     0.85297   0.15659   0.56066   0.00000  Uiso   1.00
C649   C     0.90104   0.21331   0.57838   0.00000  Uiso   1.00
Cu650  Cu    0.78645   0.16666   0.75000   0.00000  Uiso   1.00
Cu651  Cu    0.88022   0.16667   0.75000   0.00000  Uiso   1.00
H652   H     0.91786   0.22973   0.60434   0.00000  Uiso   1.00
H653   H     0.71521   0.10352   0.50186   0.00000  Uiso   1.00
H654   H     0.89296   0.29511   0.78509   0.00000  Uiso   1.00
H655   H     0.77057   0.03671   0.72421   0.00000  Uiso   1.00
H656   H     0.77080   0.29566   0.72221   0.00000  Uiso   1.00
H657   H     0.94044   0.21309   0.80996   0.00000  Uiso   1.00
H658   H     0.69353   0.21308   0.80989   0.00000  Uiso   1.00
H659   H     0.90200   0.25467   0.93628   0.00000  Uiso   1.00
H660   H     0.76646   0.13003   0.55247   0.00000  Uiso   1.00
H661   H     0.85399   0.22597   0.88349   0.00000  Uiso   1.00
H662   H     0.92665   0.25602   0.51676   0.00000  Uiso   1.00
N663   N     0.71598   0.16666   0.74998   0.00000  Uiso   1.00
N664   N     0.95069   0.16669   0.74999   0.00000  Uiso   1.00
O665   O     0.79375   0.22678   0.75000   0.00000  Uiso   1.00
O666   O     0.87294   0.22679   0.75000   0.00000  Uiso   1.00
O667   O     0.77441   0.16665   0.82549   0.00000  Uiso   1.00
O668   O     0.85360   0.16666   0.82549   0.00000  Uiso   1.00
O669   O     0.79373   0.10654   0.74999   0.00000  Uiso   1.00
O670   O     0.87292   0.10655   0.74999   0.00000  Uiso   1.00
O671   O     0.81306   0.16667   0.67451   0.00000  Uiso   1.00
O672   O     0.89225   0.16668   0.67451   0.00000  Uiso   1.00
Br673  Br    0.24543   0.38006   0.80447   0.00000  Uiso   1.00
Br674  Br    0.07713   0.43570   0.66986   0.00000  Uiso   1.00
Br675  Br    0.29912   0.43737   0.66773   0.00000  Uiso   1.00
Br676  Br    0.18179   0.43083   0.56619   0.00000  Uiso   1.00
Br677  Br    0.04755   0.43926   0.89361   0.00000  Uiso   1.00
C678   C     0.16652   0.57918   0.75058   0.00000  Uiso   1.00
C679   C     0.12558   0.49375   0.90729   0.00000  Uiso   1.00
C680   C     0.20013   0.64501   0.77099   0.00000  Uiso   1.00
C681   C     0.14055   0.49906   0.85012   0.00000  Uiso   1.00
C682   C     0.20007   0.35439   0.77293   0.00000  Uiso   1.00
C683   C     0.16596   0.37607   0.75449   0.00000  Uiso   1.00
C684   C     0.13103   0.35432   0.73742   0.00000  Uiso   1.00
C685   C     0.13104   0.64511   0.73632   0.00000  Uiso   1.00
C686   C     0.16607   0.62372   0.75230   0.00000  Uiso   1.00
C687   C     0.29954   0.52571   0.78325   0.00000  Uiso   1.00
C688   C     0.01566   0.52573   0.78320   0.00000  Uiso   1.00
C689   C     0.14899   0.49627   0.98839   0.00000  Uiso   1.00
C690   C     0.03358   0.47398   0.71681   0.00000  Uiso   1.00
C691   C     0.31761   0.47417   0.71652   0.00000  Uiso   1.00
C692   C     0.16626   0.42078   0.75199   0.00000  Uiso   1.00
C693   C     0.19278   0.50119   0.65009   0.00000  Uiso   1.00
C694   C     0.23827   0.56216   0.52919   0.00000  Uiso   1.00
C695   C     0.20744   0.51096   0.59461   0.00000  Uiso   1.00
C696   C     0.08748   0.46643   0.93080   0.00000  Uiso   1.00
C697   C     0.07854   0.45673   0.98324   0.00000  Uiso   1.00
C698   C     0.10902   0.47103   0.51161   0.00000  Uiso   1.00
C699   C     0.15372   0.51140   0.93791   0.00000  Uiso   1.00
C700   C     0.18189   0.50964   0.51584   0.00000  Uiso   1.00
C701   C     0.21127   0.54450   0.99822   0.00000  Uiso   1.00
C702   C     0.21276   0.56156   0.95037   0.00000  Uiso   1.00
C703   C     0.18537   0.54462   0.91994   0.00000  Uiso   1.00
C704   C     0.18630   0.48993   0.56066   0.00000  Uiso   1.00
C705   C     0.23437   0.54664   0.57838   0.00000  Uiso   1.00
Cu706  Cu    0.11978   0.49999   0.75000   0.00000  Uiso   1.00
Cu707  Cu    0.21355   0.50001   0.75000   0.00000  Uiso   1.00
H708   H     0.25119   0.56306   0.60434   0.00000  Uiso   1.00
H709   H     0.04854   0.43685   0.50186   0.00000  Uiso   1.00
H710   H     0.22630   0.62845   0.78509   0.00000  Uiso   1.00
H711   H     0.10390   0.37004   0.72421   0.00000  Uiso   1.00
H712   H     0.10414   0.62899   0.72221   0.00000  Uiso   1.00
H713   H     0.27377   0.54642   0.80996   0.00000  Uiso   1.00
H714   H     0.02687   0.54642   0.80989   0.00000  Uiso   1.00
H715   H     0.23534   0.58801   0.93628   0.00000  Uiso   1.00
H716   H     0.09979   0.46336   0.55247   0.00000  Uiso   1.00
H717   H     0.18732   0.55930   0.88349   0.00000  Uiso   1.00
H718   H     0.25999   0.58936   0.51676   0.00000  Uiso   1.00
N719   N     0.04931   0.49999   0.74998   0.00000  Uiso   1.00
N720   N     0.28402   0.50002   0.74999   0.00000  Uiso   1.00
O721   O     0.12708   0.56011   0.75000   0.00000  Uiso   1.00
O722   O     0.20627   0.56012   0.75000   0.00000  Uiso   1.00
O723   O     0.10775   0.49998   0.82549   0.00000  Uiso   1.00
O724   O     0.18694   0.49999   0.82549   0.00000  Uiso   1.00
O725   O     0.12706   0.43988   0.74999   0.00000  Uiso   1.00
O726   O     0.20625   0.43989   0.74999   0.00000  Uiso   1.00
O727   O     0.14640   0.50001   0.67451   0.00000  Uiso   1.00
O728   O     0.22559   0.50002   0.67451   0.00000  Uiso   1.00
Br729  Br    0.57876   0.38006   0.80447   0.00000  Uiso   1.00
Br730  Br    0.41047   0.43570   0.66986   0.00000  Uiso   1.00
Br731  Br    0.63245   0.43737   0.66773   0.00000  Uiso   1.00
Br732  Br    0.51512   0.43083   0.56619   0.00000  Uiso   1.00
Br733  Br    0.38088   0.43926   0.89361   0.00000  Uiso   1.00
C734   C     0.49985   0.57918   0.75058   0.00000  Uiso   1.00
C735   C     0.45891   0.49375   0.90729   0.00000  Uiso   1.00
C736   C     0.53347   0.64501   0.77099   0.00000  Uiso   1.00
C737   C     0.47389   0.49906   0.85012   0.00000  Uiso   1.00
C738   C     0.53340   0.35439   0.77293   0.00000  Uiso   1.00
C739   C     0.49930   0.37607   0.75449   0.00000  Uiso   1.00
C740   C     0.46436   0.35432   0.73742   0.00000  Uiso   1.00
C741   C     0.46437   0.64511   0.73632   0.00000  Uiso   1.00
C742   C     0.49940   0.62372   0.75230   0.00000  Uiso   1.00
C743   C     0.63287   0.52571   0.78325   0.00000  Uiso   1.00
C744   C     0.34900   0.52573   0.78320   0.00000  Uiso   1.00
C745   C     0.48232   0.49627   0.98839   0.00000  Uiso   1.00
C746   C     0.36691   0.47398   0.71681   0.00000  Uiso   1.00
C747   C     0.65095   0.47417   0.71652   0.00000  Uiso   1.00
C748   C     0.49959   0.42078   0.75199   0.00000  Uiso   1.00
C749   C     0.52611   0.50119   0.65009   0.00000  Uiso   1.00
C750   C     0.57160   0.56216   0.52919   0.00000  Uiso   1.00
C751   C     0.54077   0.51096   0.59461   0.00000  Uiso   1.00
C752   C     0.42081   0.46643   0.93080   0.00000  Uiso   1.00
C753   C     0.41187   0.45673   0.98324   0.00000  Uiso   1.00
C754   C     0.44235   0.47103   0.51161   0.00000  Uiso   1.00
C755   C     0.48705   0.51140   0.93791   0.00000  Uiso   1.00
C756   C     0.51522   0.50964   0.51584   0.00000  Uiso   1.00
C757   C     0.54460   0.54450   0.99822   0.00000  Uiso   1.00
C758   C     0.54609   0.56156   0.95037   0.00000  Uiso   1.00
C759   C     0.51870   0.54462   0.91994   0.00000  Uiso   1.00
C760   C     0.51963   0.48993   0.56066   0.00000  Uiso   1.00
C761   C     0.56771   0.54664   0.57838   0.00000  Uiso   1.00
Cu762  Cu    0.45311   0.49999   0.75000   0.00000  Uiso   1.00
Cu763  Cu    0.54689   0.50001   0.75000   0.00000  Uiso   1.00
H764   H     0.58452   0.56306   0.60434   0.00000  Uiso   1.00
H765   H     0.38187   0.43685   0.50186   0.00000  Uiso   1.00
H766   H     0.55963   0.62845   0.78509   0.00000  Uiso   1.00
H767   H     0.43724   0.37004   0.72421   0.00000  Uiso   1.00
H768   H     0.43747   0.62899   0.72221   0.00000  Uiso   1.00
H769   H     0.60710   0.54642   0.80996   0.00000  Uiso   1.00
H770   H     0.36020   0.54642   0.80989   0.00000  Uiso   1.00
H771   H     0.56867   0.58801   0.93628   0.00000  Uiso   1.00
H772   H     0.43313   0.46336   0.55247   0.00000  Uiso   1.00
H773   H     0.52065   0.55930   0.88349   0.00000  Uiso   1.00
H774   H     0.59332   0.58936   0.51676   0.00000  Uiso   1.00
N775   N     0.38265   0.49999   0.74998   0.00000  Uiso   1.00
N776   N     0.61735   0.50002   0.74999   0.00000  Uiso   1.00
O777   O     0.46042   0.56011   0.75000   0.00000  Uiso   1.00
O778   O     0.53961   0.56012   0.75000   0.00000  Uiso   1.00
O779   O     0.44108   0.49998   0.82549   0.00000  Uiso   1.00
O780   O     0.52027   0.49999   0.82549   0.00000  Uiso   1.00
O781   O     0.46039   0.43988   0.74999   0.00000  Uiso   1.00
O782   O     0.53958   0.43989   0.74999   0.00000  Uiso   1.00
O783   O     0.47973   0.50001   0.67451   0.00000  Uiso   1.00
O784   O     0.55892   0.50002   0.67451   0.00000  Uiso   1.00
Br785  Br    0.91209   0.38006   0.80447   0.00000  Uiso   1.00
Br786  Br    0.74380   0.43570   0.66986   0.00000  Uiso   1.00
Br787  Br    0.96578   0.43737   0.66773   0.00000  Uiso   1.00
Br788  Br    0.84845   0.43083   0.56619   0.00000  Uiso   1.00
Br789  Br    0.71422   0.43926   0.89361   0.00000  Uiso   1.00
C790   C     0.83318   0.57918   0.75058   0.00000  Uiso   1.00
C791   C     0.79225   0.49375   0.90729   0.00000  Uiso   1.00
C792   C     0.86680   0.64501   0.77099   0.00000  Uiso   1.00
C793   C     0.80722   0.49906   0.85012   0.00000  Uiso   1.00
C794   C     0.86674   0.35439   0.77293   0.00000  Uiso   1.00
C795   C     0.83263   0.37607   0.75449   0.00000  Uiso   1.00
C796   C     0.79769   0.35432   0.73742   0.00000  Uiso   1.00
C797   C     0.79771   0.64511   0.73632   0.00000  Uiso   1.00
C798   C     0.83274   0.62372   0.75230   0.00000  Uiso   1.00
C799   C     0.96621   0.52571   0.78325   0.00000  Uiso   1.00
C800   C     0.68233   0.52573   0.78320   0.00000  Uiso   1.00
C801   C     0.81566   0.49627   0.98839   0.00000  Uiso   1.00
C802   C     0.70025   0.47398   0.71681   0.00000  Uiso   1.00
C803   C     0.98428   0.47417   0.71652   0.00000  Uiso   1.00
C804   C     0.83292   0.42078   0.75199   0.00000  Uiso   1.00
C805   C     0.85944   0.50119   0.65009   0.00000  Uiso   1.00
C806   C     0.90494   0.56216   0.52919   0.00000  Uiso   1.00
C807   C     0.87411   0.51096   0.59461   0.00000  Uiso   1.00
C808   C     0.75414   0.46643   0.93080   0.00000  Uiso   1.00
C809   C     0.74520   0.45673   0.98324   0.00000  Uiso   1.00
C810   C     0.77568   0.47103   0.51161   0.00000  Uiso   1.00
C811   C     0.82039   0.51140   0.93791   0.00000  Uiso   1.00
C812   C     0.84855   0.50964   0.51584   0.00000  Uiso   1.00
C813   C     0.87794   0.54450   0.99822   0.00000  Uiso   1.00
C814   C     0.87942   0.56156   0.95037   0.00000  Uiso   1.00
C815   C     0.85204   0.54462   0.91994   0.00000  Uiso   1.00
C816   C     0.85297   0.48993   0.56066   0.00000  Uiso   1.00
C817   C     0.90104   0.54664   0.57838   0.00000  Uiso   1.00
Cu818  Cu    0.78645   0.49999   0.75000   0.00000  Uiso   1.00
Cu819  Cu    0.88022   0.50001   0.75000   0.00000  Uiso   1.00
H820   H     0.91786   0.56306   0.60434   0.00000  Uiso   1.00
H821   H     0.71521   0.43685   0.50186   0.00000  Uiso   1.00
H822   H     0.89296   0.62845   0.78509   0.00000  Uiso   1.00
H823   H     0.77057   0.37004   0.72421   0.00000  Uiso   1.00
H824   H     0.77080   0.62899   0.72221   0.00000  Uiso   1.00
H825   H     0.94044   0.54642   0.80996   0.00000  Uiso   1.00
H826   H     0.69353   0.54642   0.80989   0.00000  Uiso   1.00
H827   H     0.90200   0.58801   0.93628   0.00000  Uiso   1.00
H828   H     0.76646   0.46336   0.55247   0.00000  Uiso   1.00
H829   H     0.85399   0.55930   0.88349   0.00000  Uiso   1.00
H830   H     0.92665   0.58936   0.51676   0.00000  Uiso   1.00
N831   N     0.71598   0.49999   0.74998   0.00000  Uiso   1.00
N832   N     0.95069   0.50002   0.74999   0.00000  Uiso   1.00
O833   O     0.79375   0.56011   0.75000   0.00000  Uiso   1.00
O834   O     0.87294   0.56012   0.75000   0.00000  Uiso   1.00
O835   O     0.77441   0.49998   0.82549   0.00000  Uiso   1.00
O836   O     0.85360   0.49999   0.82549   0.00000  Uiso   1.00
O837   O     0.79373   0.43988   0.74999   0.00000  Uiso   1.00
O838   O     0.87292   0.43989   0.74999   0.00000  Uiso   1.00
O839   O     0.81306   0.50001   0.67451   0.00000  Uiso   1.00
O840   O     0.89225   0.50002   0.67451   0.00000  Uiso   1.00
Br841  Br    0.24543   0.71340   0.80447   0.00000  Uiso   1.00
Br842  Br    0.07713   0.76903   0.66986   0.00000  Uiso   1.00
Br843  Br    0.29912   0.77070   0.66773   0.00000  Uiso   1.00
Br844  Br    0.18179   0.76416   0.56619   0.00000  Uiso   1.00
Br845  Br    0.04755   0.77259   0.89361   0.00000  Uiso   1.00
C846   C     0.16652   0.91251   0.75058   0.00000  Uiso   1.00
C847   C     0.12558   0.82709   0.90729   0.00000  Uiso   1.00
C848   C     0.20013   0.97835   0.77099   0.00000  Uiso   1.00
C849   C     0.14055   0.83239   0.85012   0.00000  Uiso   1.00
C850   C     0.20007   0.68773   0.77293   0.00000  Uiso   1.00
C851   C     0.16596   0.70940   0.75449   0.00000  Uiso   1.00
C852   C     0.13103   0.68765   0.73742   0.00000  Uiso   1.00
C853   C     0.13104   0.97844   0.73632   0.00000  Uiso   1.00
C854   C     0.16607   0.95705   0.75230   0.00000  Uiso   1.00
C855   C     0.29954   0.85904   0.78325   0.00000  Uiso   1.00
C856   C     0.01566   0.85906   0.78320   0.00000  Uiso   1.00
C857   C     0.14899   0.82960   0.98839   0.00000  Uiso   1.00
C858   C     0.03358   0.80731   0.71681   0.00000  Uiso   1.00
C859   C     0.31761   0.80751   0.71652   0.00000  Uiso   1.00
C860   C     0.16626   0.75412   0.75199   0.00000  Uiso   1.00
C861   C     0.19278   0.83452   0.65009   0.00000  Uiso   1.00
C862   C     0.23827   0.89550   0.52919   0.00000  Uiso   1.00
C863   C     0.20744   0.84430   0.59461   0.00000  Uiso   1.00
C864   C     0.08748   0.79977   0.93080   0.00000  Uiso   1.00
C865   C     0.07854   0.79006   0.98324   0.00000  Uiso   1.00
C866   C     0.10902   0.80437   0.51161   0.00000  Uiso   1.00
C867   C     0.15372   0.84474   0.93791   0.00000  Uiso   1.00
C868   C     0.18189   0.84297   0.51584   0.00000  Uiso   1.00
C869   C     0.21127   0.87783   0.99822   0.00000  Uiso   1.00
C870   C     0.21276   0.89490   0.95037   0.00000  Uiso   1.00
C871   C     0.18537   0.87796   0.91994   0.00000  Uiso   1.00
C872   C     0.18630   0.82326   0.56066   0.00000  Uiso   1.00
C873   C     0.23437   0.87997   0.57838   0.00000  Uiso   1.00
Cu874  Cu    0.11978   0.83333   0.75000   0.00000  Uiso   1.00
Cu875  Cu    0.21355   0.83334   0.75000   0.00000  Uiso   1.00
H876   H     0.25119   0.89639   0.60434   0.00000  Uiso   1.00
H877   H     0.04854   0.77019   0.50186   0.00000  Uiso   1.00
H878   H     0.22630   0.96178   0.78509   0.00000  Uiso   1.00
H879   H     0.10390   0.70337   0.72421   0.00000  Uiso   1.00
H880   H     0.10414   0.96232   0.72221   0.00000  Uiso   1.00
H881   H     0.27377   0.87975   0.80996   0.00000  Uiso   1.00
H882   H     0.02687   0.87975   0.80989   0.00000  Uiso   1.00
H883   H     0.23534   0.92134   0.93628   0.00000  Uiso   1.00
H884   H     0.09979   0.79670   0.55247   0.00000  Uiso   1.00
H885   H     0.18732   0.89263   0.88349   0.00000  Uiso   1.00
H886   H     0.25999   0.92269   0.51676   0.00000  Uiso   1.00
N887   N     0.04931   0.83332   0.74998   0.00000  Uiso   1.00
N888   N     0.28402   0.83335   0.74999   0.00000  Uiso   1.00
O889   O     0.12708   0.89345   0.75000   0.00000  Uiso   1.00
O890   O     0.20627   0.89346   0.75000   0.00000  Uiso   1.00
O891   O     0.10775   0.83332   0.82549   0.00000  Uiso   1.00
O892   O     0.18694   0.83333   0.82549   0.00000  Uiso   1.00
O893   O     0.12706   0.77321   0.74999   0.00000  Uiso   1.00
O894   O     0.20625   0.77322   0.74999   0.00000  Uiso   1.00
O895   O     0.14640   0.83334   0.67451   0.00000  Uiso   1.00
O896   O     0.22559   0.83335   0.67451   0.00000  Uiso   1.00
Br897  Br    0.57876   0.71340   0.80447   0.00000  Uiso   1.00
Br898  Br    0.41047   0.76903   0.66986   0.00000  Uiso   1.00
Br899  Br    0.63245   0.77070   0.66773   0.00000  Uiso   1.00
Br900  Br    0.51512   0.76416   0.56619   0.00000  Uiso   1.00
Br901  Br    0.38088   0.77259   0.89361   0.00000  Uiso   1.00
C902   C     0.49985   0.91251   0.75058   0.00000  Uiso   1.00
C903   C     0.45891   0.82709   0.90729   0.00000  Uiso   1.00
C904   C     0.53347   0.97835   0.77099   0.00000  Uiso   1.00
C905   C     0.47389   0.83239   0.85012   0.00000  Uiso   1.00
C906   C     0.53340   0.68773   0.77293   0.00000  Uiso   1.00
C907   C     0.49930   0.70940   0.75449   0.00000  Uiso   1.00
C908   C     0.46436   0.68765   0.73742   0.00000  Uiso   1.00
C909   C     0.46437   0.97844   0.73632   0.00000  Uiso   1.00
C910   C     0.49940   0.95705   0.75230   0.00000  Uiso   1.00
C911   C     0.63287   0.85904   0.78325   0.00000  Uiso   1.00
C912   C     0.34900   0.85906   0.78320   0.00000  Uiso   1.00
C913   C     0.48232   0.82960   0.98839   0.00000  Uiso   1.00
C914   C     0.36691   0.80731   0.71681   0.00000  Uiso   1.00
C915   C     0.65095   0.80751   0.71652   0.00000  Uiso   1.00
C916   C     0.49959   0.75412   0.75199   0.00000  Uiso   1.00
C917   C     0.52611   0.83452   0.65009   0.00000  Uiso   1.00
C918   C     0.57160   0.89550   0.52919   0.00000  Uiso   1.00
C919   C     0.54077   0.84430   0.59461   0.00000  Uiso   1.00
C920   C     0.42081   0.79977   0.93080   0.00000  Uiso   1.00
C921   C     0.41187   0.79006   0.98324   0.00000  Uiso   1.00
C922   C     0.44235   0.80437   0.51161   0.00000  Uiso   1.00
C923   C     0.48705   0.84474   0.93791   0.00000  Uiso   1.00
C924   C     0.51522   0.84297   0.51584   0.00000  Uiso   1.00
C925   C     0.54460   0.87783   0.99822   0.00000  Uiso   1.00
C926   C     0.54609   0.89490   0.95037   0.00000  Uiso   1.00
C927   C     0.51870   0.87796   0.91994   0.00000  Uiso   1.00
C928   C     0.51963   0.82326   0.56066   0.00000  Uiso   1.00
C929   C     0.56771   0.87997   0.57838   0.00000  Uiso   1.00
Cu930  Cu    0.45311   0.83333   0.75000   0.00000  Uiso   1.00
Cu931  Cu    0.54689   0.83334   0.75000   0.00000  Uiso   1.00
H932   H     0.58452   0.89639   0.60434   0.00000  Uiso   1.00
H933   H     0.38187   0.77019   0.50186   0.00000  Uiso   1.00
H934   H     0.55963   0.96178   0.78509   0.00000  Uiso   1.00
H935   H     0.43724   0.70337   0.72421   0.00000  Uiso   1.00
H936   H     0.43747   0.96232   0.72221   0.00000  Uiso   1.00
H937   H     0.60710   0.87975   0.80996   0.00000  Uiso   1.00
H938   H     0.36020   0.87975   0.80989   0.00000  Uiso   1.00
H939   H     0.56867   0.92134   0.93628   0.00000  Uiso   1.00
H940   H     0.43313   0.79670   0.55247   0.00000  Uiso   1.00
H941   H     0.52065   0.89263   0.88349   0.00000  Uiso   1.00
H942   H     0.59332   0.92269   0.51676   0.00000  Uiso   1.00
N943   N     0.38265   0.83332   0.74998   0.00000  Uiso   1.00
N944   N     0.61735   0.83335   0.74999   0.00000  Uiso   1.00
O945   O     0.46042   0.89345   0.75000   0.00000  Uiso   1.00
O946   O     0.53961   0.89346   0.75000   0.00000  Uiso   1.00
O947   O     0.44108   0.83332   0.82549   0.00000  Uiso   1.00
O948   O     0.52027   0.83333   0.82549   0.00000  Uiso   1.00
O949   O     0.46039   0.77321   0.74999   0.00000  Uiso   1.00
O950   O     0.53958   0.77322   0.74999   0.00000  Uiso   1.00
O951   O     0.47973   0.83334   0.67451   0.00000  Uiso   1.00
O952   O     0.55892   0.83335   0.67451   0.00000  Uiso   1.00
Br953  Br    0.91209   0.71340   0.80447   0.00000  Uiso   1.00
Br954  Br    0.74380   0.76903   0.66986   0.00000  Uiso   1.00
Br955  Br    0.96578   0.77070   0.66773   0.00000  Uiso   1.00
Br956  Br    0.84845   0.76416   0.56619   0.00000  Uiso   1.00
Br957  Br    0.71422   0.77259   0.89361   0.00000  Uiso   1.00
C958   C     0.83318   0.91251   0.75058   0.00000  Uiso   1.00
C959   C     0.79225   0.82709   0.90729   0.00000  Uiso   1.00
C960   C     0.86680   0.97835   0.77099   0.00000  Uiso   1.00
C961   C     0.80722   0.83239   0.85012   0.00000  Uiso   1.00
C962   C     0.86674   0.68773   0.77293   0.00000  Uiso   1.00
C963   C     0.83263   0.70940   0.75449   0.00000  Uiso   1.00
C964   C     0.79769   0.68765   0.73742   0.00000  Uiso   1.00
C965   C     0.79771   0.97844   0.73632   0.00000  Uiso   1.00
C966   C     0.83274   0.95705   0.75230   0.00000  Uiso   1.00
C967   C     0.96621   0.85904   0.78325   0.00000  Uiso   1.00
C968   C     0.68233   0.85906   0.78320   0.00000  Uiso   1.00
C969   C     0.81566   0.82960   0.98839   0.00000  Uiso   1.00
C970   C     0.70025   0.80731   0.71681   0.00000  Uiso   1.00
C971   C     0.98428   0.80751   0.71652   0.00000  Uiso   1.00
C972   C     0.83292   0.75412   0.75199   0.00000  Uiso   1.00
C973   C     0.85944   0.83452   0.65009   0.00000  Uiso   1.00
C974   C     0.90494   0.89550   0.52919   0.00000  Uiso   1.00
C975   C     0.87411   0.84430   0.59461   0.00000  Uiso   1.00
C976   C     0.75414   0.79977   0.93080   0.00000  Uiso   1.00
C977   C     0.74520   0.79006   0.98324   0.00000  Uiso   1.00
C978   C     0.77568   0.80437   0.51161   0.00000  Uiso   1.00
C979   C     0.82039   0.84474   0.93791   0.00000  Uiso   1.00
C980   C     0.84855   0.84297   0.51584   0.00000  Uiso   1.00
C981   C     0.87794   0.87783   0.99822   0.00000  Uiso   1.00
C982   C     0.87942   0.89490   0.95037   0.00000  Uiso   1.00
C983   C     0.85204   0.87796   0.91994   0.00000  Uiso   1.00
C984   C     0.85297   0.82326   0.56066   0.00000  Uiso   1.00
C985   C     0.90104   0.87997   0.57838   0.00000  Uiso   1.00
Cu986  Cu    0.78645   0.83333   0.75000   0.00000  Uiso   1.00
Cu987  Cu    0.88022   0.83334   0.75000   0.00000  Uiso   1.00
H988   H     0.91786   0.89639   0.60434   0.00000  Uiso   1.00
H989   H     0.71521   0.77019   0.50186   0.00000  Uiso   1.00
H990   H     0.89296   0.96178   0.78509   0.00000  Uiso   1.00
H991   H     0.77057   0.70337   0.72421   0.00000  Uiso   1.00
H992   H     0.77080   0.96232   0.72221   0.00000  Uiso   1.00
H993   H     0.94044   0.87975   0.80996   0.00000  Uiso   1.00
H994   H     0.69353   0.87975   0.80989   0.00000  Uiso   1.00
H995   H     0.90200   0.92134   0.93628   0.00000  Uiso   1.00
H996   H     0.76646   0.79670   0.55247   0.00000  Uiso   1.00
H997   H     0.85399   0.89263   0.88349   0.00000  Uiso   1.00
H998   H     0.92665   0.92269   0.51676   0.00000  Uiso   1.00
N999   N     0.71598   0.83332   0.74998   0.00000  Uiso   1.00
N1000  N     0.95069   0.83335   0.74999   0.00000  Uiso   1.00
O1001  O     0.79375   0.89345   0.75000   0.00000  Uiso   1.00
O1002  O     0.87294   0.89346   0.75000   0.00000  Uiso   1.00
O1003  O     0.77441   0.83332   0.82549   0.00000  Uiso   1.00
O1004  O     0.85360   0.83333   0.82549   0.00000  Uiso   1.00
O1005  O     0.79373   0.77321   0.74999   0.00000  Uiso   1.00
O1006  O     0.87292   0.77322   0.74999   0.00000  Uiso   1.00
O1007  O     0.81306   0.83334   0.67451   0.00000  Uiso   1.00
O1008  O     0.89225   0.83335   0.67451   0.00000  Uiso   1.00
loop_
_geom_bond_atom_site_label_1
_geom_bond_atom_site_label_2
_geom_bond_distance
_geom_bond_site_symmetry_2
_ccdc_geom_bond_type
Br1    C10     1.926   .     S
Br2    C18     1.915   .     S
Br3    C19     1.930   .     S
Br4    C32     1.931   .     S
Br5    C24     1.924   .     S
C6     O50     1.295   .     A
C6     O49     1.295   .     A
C6     C14     1.446   .     S
C7     C27     1.419   .     A
C7     C9      1.473   .     S
C7     C24     1.417   .     A
C8     H38     1.084   .     S
C8     C14     1.398   .     A
C8     C178    1.387   .     S
C9     O51     1.300   .     A
C9     O52     1.302   .     A
C10    C11     1.415   .     A
C10    C344    1.387   1_545 S
C11    C12     1.402   .     A
C11    C20     1.456   .     S
C12    H39     1.079   .     S
C12    C349    1.381   1_545 S
C13    C14     1.396   .     A
C13    H40     1.084   .     S
C13    C180    1.381   .     S
C15    N48     1.369   .     A
C15    H41     1.082   .     S
C15    C72     1.421   .     S
C16    N47     1.368   .     A
C16    H42     1.082   .     S
C16    C127    1.421   1_455 S
C17    C27     1.416   .     A
C17    C530    1.409   .     S
C17    C532    1.418   .     S
C18    N47     1.377   .     A
C18    C131    1.419   1_455 S
C19    N48     1.372   .     A
C19    C74     1.419   .     S
C20    O54     1.294   .     A
C20    O53     1.302   .     A
C21    O56     1.296   .     A
C21    C23     1.459   .     S
C21    O55     1.301   .     A
C22    H46     1.084   .     S
C22    C33     1.393   .     A
C22    C533    1.402   1_554 S
C23    C32     1.395   .     A
C23    C33     1.400   .     A
C24    C25     1.391   .     A
C25    C530    1.388   .     S
C25    H541    1.083   .     S
C26    H44     1.080   .     S
C26    C521    1.409   1_554 S
C26    C529    1.388   1_554 S
C27    C31     1.412   .     A
C28    C32     1.411   .     A
C28    C521    1.418   1_554 S
C28    C533    1.419   1_554 S
C29    C30     1.396   .     A
C29    C526    1.402   .     S
C29    C532    1.419   .     S
C30    C31     1.390   .     A
C30    H43     1.084   .     S
C31    H45     1.082   .     S
C33    H36     1.084   .     S
Cu34   O55     1.932   .     S
Cu34   O51     1.941   .     S
Cu34   O53     1.964   .     S
Cu34   Cu35    2.695   .     S
Cu34   O49     1.964   .     S
Cu34   N47     2.026   .     S
Cu35   O56     1.941   .     S
Cu35   O54     1.964   .     S
Cu35   O50     1.964   .     S
Cu35   N48     2.025   .     S
Cu35   O52     1.932   .     S
H37    C529    1.083   1_554 S
Br57   C66     1.926   .     S
Br58   C74     1.915   .     S
Br59   C75     1.930   .     S
Br60   C88     1.931   .     S
Br61   C80     1.924   .     S
C62    O106    1.295   .     A
C62    O105    1.295   .     A
C62    C70     1.446   .     S
C63    C83     1.419   .     A
C63    C65     1.473   .     S
C63    C80     1.417   .     A
C64    H94     1.084   .     S
C64    C70     1.398   .     A
C64    C234    1.387   .     S
C65    O107    1.300   .     A
C65    O108    1.302   .     A
C66    C67     1.415   .     A
C66    C400    1.387   1_545 S
C67    C68     1.402   .     A
C67    C76     1.456   .     S
C68    H95     1.079   .     S
C68    C405    1.381   1_545 S
C69    C70     1.396   .     A
C69    H96     1.084   .     S
C69    C236    1.381   .     S
C71    N104    1.369   .     A
C71    H97     1.082   .     S
C71    C128    1.421   .     S
C72    N103    1.368   .     A
C72    H98     1.082   .     S
C73    C83     1.416   .     A
C73    C586    1.409   .     S
C73    C588    1.418   .     S
C74    N103    1.377   .     A
C75    N104    1.372   .     A
C75    C130    1.419   .     S
C76    O110    1.294   .     A
C76    O109    1.302   .     A
C77    O112    1.296   .     A
C77    C79     1.459   .     S
C77    O111    1.301   .     A
C78    H102    1.084   .     S
C78    C89     1.393   .     A
C78    C589    1.402   1_554 S
C79    C88     1.395   .     A
C79    C89     1.400   .     A
C80    C81     1.391   .     A
C81    C586    1.388   .     S
C81    H597    1.083   .     S
C82    H100    1.080   .     S
C82    C577    1.409   1_554 S
C82    C585    1.388   1_554 S
C83    C87     1.412   .     A
C84    C88     1.411   .     A
C84    C577    1.418   1_554 S
C84    C589    1.419   1_554 S
C85    C86     1.396   .     A
C85    C582    1.402   .     S
C85    C588    1.419   .     S
C86    C87     1.390   .     A
C86    H99     1.084   .     S
C87    H101    1.082   .     S
C89    H92     1.084   .     S
Cu90   O111    1.932   .     S
Cu90   O107    1.941   .     S
Cu90   O109    1.964   .     S
Cu90   Cu91    2.695   .     S
Cu90   O105    1.964   .     S
Cu90   N103    2.026   .     S
Cu91   O112    1.941   .     S
Cu91   O110    1.964   .     S
Cu91   O106    1.964   .     S
Cu91   N104    2.025   .     S
Cu91   O108    1.932   .     S
H93    C585    1.083   1_554 S
Br113  C122    1.926   .     S
Br114  C130    1.915   .     S
Br115  C131    1.930   .     S
Br116  C144    1.931   .     S
Br117  C136    1.924   .     S
C118   O162    1.295   .     A
C118   O161    1.295   .     A
C118   C126    1.446   .     S
C119   C139    1.419   .     A
C119   C121    1.473   .     S
C119   C136    1.417   .     A
C120   H150    1.084   .     S
C120   C126    1.398   .     A
C120   C290    1.387   .     S
C121   O163    1.300   .     A
C121   O164    1.302   .     A
C122   C123    1.415   .     A
C122   C456    1.387   1_545 S
C123   C124    1.402   .     A
C123   C132    1.456   .     S
C124   H151    1.079   .     S
C124   C461    1.381   1_545 S
C125   C126    1.396   .     A
C125   H152    1.084   .     S
C125   C292    1.381   .     S
C127   N160    1.369   .     A
C127   H153    1.082   .     S
C127   C16     1.421   1_655 S
C128   N159    1.368   .     A
C128   H154    1.082   .     S
C129   C139    1.416   .     A
C129   C642    1.409   .     S
C129   C644    1.418   .     S
C130   N159    1.377   .     A
C131   N160    1.372   .     A
C131   C18     1.419   1_655 S
C132   O166    1.294   .     A
C132   O165    1.302   .     A
C133   O168    1.296   .     A
C133   C135    1.459   .     S
C133   O167    1.301   .     A
C134   H158    1.084   .     S
C134   C145    1.393   .     A
C134   C645    1.402   1_554 S
C135   C144    1.395   .     A
C135   C145    1.400   .     A
C136   C137    1.391   .     A
C137   C642    1.388   .     S
C137   H653    1.083   .     S
C138   H156    1.080   .     S
C138   C633    1.409   1_554 S
C138   C641    1.388   1_554 S
C139   C143    1.412   .     A
C140   C144    1.411   .     A
C140   C633    1.418   1_554 S
C140   C645    1.419   1_554 S
C141   C142    1.396   .     A
C141   C638    1.402   .     S
C141   C644    1.419   .     S
C142   C143    1.390   .     A
C142   H155    1.084   .     S
C143   H157    1.082   .     S
C145   H148    1.084   .     S
Cu146  O167    1.932   .     S
Cu146  O163    1.941   .     S
Cu146  O165    1.964   .     S
Cu146  Cu147   2.695   .     S
Cu146  O161    1.964   .     S
Cu146  N159    2.026   .     S
Cu147  O168    1.941   .     S
Cu147  O166    1.964   .     S
Cu147  O162    1.964   .     S
Cu147  N160    2.025   .     S
Cu147  O164    1.932   .     S
H149   C641    1.083   1_554 S
Br169  C178    1.926   .     S
Br170  C186    1.915   .     S
Br171  C187    1.930   .     S
Br172  C200    1.931   .     S
Br173  C192    1.924   .     S
C174   O218    1.295   .     A
C174   O217    1.295   .     A
C174   C182    1.446   .     S
C175   C195    1.419   .     A
C175   C177    1.473   .     S
C175   C192    1.417   .     A
C176   H206    1.084   .     S
C176   C182    1.398   .     A
C176   C346    1.387   .     S
C177   O219    1.300   .     A
C177   O220    1.302   .     A
C178   C179    1.415   .     A
C179   C180    1.402   .     A
C179   C188    1.456   .     S
C180   H207    1.079   .     S
C181   C182    1.396   .     A
C181   H208    1.084   .     S
C181   C348    1.381   .     S
C183   N216    1.369   .     A
C183   H209    1.082   .     S
C183   C240    1.421   .     S
C184   N215    1.368   .     A
C184   H210    1.082   .     S
C184   C295    1.421   1_455 S
C185   C195    1.416   .     A
C185   C698    1.409   .     S
C185   C700    1.418   .     S
C186   N215    1.377   .     A
C186   C299    1.419   1_455 S
C187   N216    1.372   .     A
C187   C242    1.419   .     S
C188   O222    1.294   .     A
C188   O221    1.302   .     A
C189   O224    1.296   .     A
C189   C191    1.459   .     S
C189   O223    1.301   .     A
C190   H214    1.084   .     S
C190   C201    1.393   .     A
C190   C701    1.402   1_554 S
C191   C200    1.395   .     A
C191   C201    1.400   .     A
C192   C193    1.391   .     A
C193   C698    1.388   .     S
C193   H709    1.083   .     S
C194   H212    1.080   .     S
C194   C689    1.409   1_554 S
C194   C697    1.388   1_554 S
C195   C199    1.412   .     A
C196   C200    1.411   .     A
C196   C689    1.418   1_554 S
C196   C701    1.419   1_554 S
C197   C198    1.396   .     A
C197   C694    1.402   .     S
C197   C700    1.419   .     S
C198   C199    1.390   .     A
C198   H211    1.084   .     S
C199   H213    1.082   .     S
C201   H204    1.084   .     S
Cu202  O223    1.932   .     S
Cu202  O219    1.941   .     S
Cu202  O221    1.964   .     S
Cu202  Cu203   2.695   .     S
Cu202  O217    1.964   .     S
Cu202  N215    2.026   .     S
Cu203  O224    1.941   .     S
Cu203  O222    1.964   .     S
Cu203  O218    1.964   .     S
Cu203  N216    2.025   .     S
Cu203  O220    1.932   .     S
H205   C697    1.083   1_554 S
Br225  C234    1.926   .     S
Br226  C242    1.915   .     S
Br227  C243    1.930   .     S
Br228  C256    1.931   .     S
Br229  C248    1.924   .     S
C230   O274    1.295   .     A
C230   O273    1.295   .     A
C230   C238    1.446   .     S
C231   C251    1.419   .     A
C231   C233    1.473   .     S
C231   C248    1.417   .     A
C232   H262    1.084   .     S
C232   C238    1.398   .     A
C232   C402    1.387   .     S
C233   O275    1.300   .     A
C233   O276    1.302   .     A
C234   C235    1.415   .     A
C235   C236    1.402   .     A
C235   C244    1.456   .     S
C236   H263    1.079   .     S
C237   C238    1.396   .     A
C237   H264    1.084   .     S
C237   C404    1.381   .     S
C239   N272    1.369   .     A
C239   H265    1.082   .     S
C239   C296    1.421   .     S
C240   N271    1.368   .     A
C240   H266    1.082   .     S
C241   C251    1.416   .     A
C241   C754    1.409   .     S
C241   C756    1.418   .     S
C242   N271    1.377   .     A
C243   N272    1.372   .     A
C243   C298    1.419   .     S
C244   O278    1.294   .     A
C244   O277    1.302   .     A
C245   O280    1.296   .     A
C245   C247    1.459   .     S
C245   O279    1.301   .     A
C246   H270    1.084   .     S
C246   C257    1.393   .     A
C246   C757    1.402   1_554 S
C247   C256    1.395   .     A
C247   C257    1.400   .     A
C248   C249    1.391   .     A
C249   C754    1.388   .     S
C249   H765    1.083   .     S
C250   H268    1.080   .     S
C250   C745    1.409   1_554 S
C250   C753    1.388   1_554 S
C251   C255    1.412   .     A
C252   C256    1.411   .     A
C252   C745    1.418   1_554 S
C252   C757    1.419   1_554 S
C253   C254    1.396   .     A
C253   C750    1.402   .     S
C253   C756    1.419   .     S
C254   C255    1.390   .     A
C254   H267    1.084   .     S
C255   H269    1.082   .     S
C257   H260    1.084   .     S
Cu258  O279    1.932   .     S
Cu258  O275    1.941   .     S
Cu258  O277    1.964   .     S
Cu258  Cu259   2.695   .     S
Cu258  O273    1.964   .     S
Cu258  N271    2.026   .     S
Cu259  O280    1.941   .     S
Cu259  O278    1.964   .     S
Cu259  O274    1.964   .     S
Cu259  N272    2.025   .     S
Cu259  O276    1.932   .     S
H261   C753    1.083   1_554 S
Br281  C290    1.926   .     S
Br282  C298    1.915   .     S
Br283  C299    1.930   .     S
Br284  C312    1.931   .     S
Br285  C304    1.924   .     S
C286   O330    1.295   .     A
C286   O329    1.295   .     A
C286   C294    1.446   .     S
C287   C307    1.419   .     A
C287   C289    1.473   .     S
C287   C304    1.417   .     A
C288   H318    1.084   .     S
C288   C294    1.398   .     A
C288   C458    1.387   .     S
C289   O331    1.300   .     A
C289   O332    1.302   .     A
C290   C291    1.415   .     A
C291   C292    1.402   .     A
C291   C300    1.456   .     S
C292   H319    1.079   .     S
C293   C294    1.396   .     A
C293   H320    1.084   .     S
C293   C460    1.381   .     S
C295   N328    1.369   .     A
C295   H321    1.082   .     S
C295   C184    1.421   1_655 S
C296   N327    1.368   .     A
C296   H322    1.082   .     S
C297   C307    1.416   .     A
C297   C810    1.409   .     S
C297   C812    1.418   .     S
C298   N327    1.377   .     A
C299   N328    1.372   .     A
C299   C186    1.419   1_655 S
C300   O334    1.294   .     A
C300   O333    1.302   .     A
C301   O336    1.296   .     A
C301   C303    1.459   .     S
C301   O335    1.301   .     A
C302   H326    1.084   .     S
C302   C313    1.393   .     A
C302   C813    1.402   1_554 S
C303   C312    1.395   .     A
C303   C313    1.400   .     A
C304   C305    1.391   .     A
C305   C810    1.388   .     S
C305   H821    1.083   .     S
C306   H324    1.080   .     S
C306   C801    1.409   1_554 S
C306   C809    1.388   1_554 S
C307   C311    1.412   .     A
C308   C312    1.411   .     A
C308   C801    1.418   1_554 S
C308   C813    1.419   1_554 S
C309   C310    1.396   .     A
C309   C806    1.402   .     S
C309   C812    1.419   .     S
C310   C311    1.390   .     A
C310   H323    1.084   .     S
C311   H325    1.082   .     S
C313   H316    1.084   .     S
Cu314  O335    1.932   .     S
Cu314  O331    1.941   .     S
Cu314  O333    1.964   .     S
Cu314  Cu315   2.695   .     S
Cu314  O329    1.964   .     S
Cu314  N327    2.026   .     S
Cu315  O336    1.941   .     S
Cu315  O334    1.964   .     S
Cu315  O330    1.964   .     S
Cu315  N328    2.025   .     S
Cu315  O332    1.932   .     S
H317   C809    1.083   1_554 S
Br337  C346    1.926   .     S
Br338  C354    1.915   .     S
Br339  C355    1.930   .     S
Br340  C368    1.931   .     S
Br341  C360    1.924   .     S
C342   O386    1.295   .     A
C342   O385    1.295   .     A
C342   C350    1.446   .     S
C343   C363    1.419   .     A
C343   C345    1.473   .     S
C343   C360    1.417   .     A
C344   H374    1.084   .     S
C344   C350    1.398   .     A
C344   C10     1.387   1_565 S
C345   O387    1.300   .     A
C345   O388    1.302   .     A
C346   C347    1.415   .     A
C347   C348    1.402   .     A
C347   C356    1.456   .     S
C348   H375    1.079   .     S
C349   C350    1.396   .     A
C349   H376    1.084   .     S
C349   C12     1.381   1_565 S
C351   N384    1.369   .     A
C351   H377    1.082   .     S
C351   C408    1.421   .     S
C352   N383    1.368   .     A
C352   H378    1.082   .     S
C352   C463    1.421   1_455 S
C353   C363    1.416   .     A
C353   C866    1.409   .     S
C353   C868    1.418   .     S
C354   N383    1.377   .     A
C354   C467    1.419   1_455 S
C355   N384    1.372   .     A
C355   C410    1.419   .     S
C356   O390    1.294   .     A
C356   O389    1.302   .     A
C357   O392    1.296   .     A
C357   C359    1.459   .     S
C357   O391    1.301   .     A
C358   H382    1.084   .     S
C358   C369    1.393   .     A
C358   C869    1.402   1_554 S
C359   C368    1.395   .     A
C359   C369    1.400   .     A
C360   C361    1.391   .     A
C361   C866    1.388   .     S
C361   H877    1.083   .     S
C362   H380    1.080   .     S
C362   C857    1.409   1_554 S
C362   C865    1.388   1_554 S
C363   C367    1.412   .     A
C364   C368    1.411   .     A
C364   C857    1.418   1_554 S
C364   C869    1.419   1_554 S
C365   C366    1.396   .     A
C365   C862    1.402   .     S
C365   C868    1.419   .     S
C366   C367    1.390   .     A
C366   H379    1.084   .     S
C367   H381    1.082   .     S
C369   H372    1.084   .     S
Cu370  O391    1.932   .     S
Cu370  O387    1.941   .     S
Cu370  O389    1.964   .     S
Cu370  Cu371   2.695   .     S
Cu370  O385    1.964   .     S
Cu370  N383    2.026   .     S
Cu371  O392    1.941   .     S
Cu371  O390    1.964   .     S
Cu371  O386    1.964   .     S
Cu371  N384    2.025   .     S
Cu371  O388    1.932   .     S
H373   C865    1.083   1_554 S
Br393  C402    1.926   .     S
Br394  C410    1.915   .     S
Br395  C411    1.930   .     S
Br396  C424    1.931   .     S
Br397  C416    1.924   .     S
C398   O442    1.295   .     A
C398   O441    1.295   .     A
C398   C406    1.446   .     S
C399   C419    1.419   .     A
C399   C401    1.473   .     S
C399   C416    1.417   .     A
C400   H430    1.084   .     S
C400   C406    1.398   .     A
C400   C66     1.387   1_565 S
C401   O443    1.300   .     A
C401   O444    1.302   .     A
C402   C403    1.415   .     A
C403   C404    1.402   .     A
C403   C412    1.456   .     S
C404   H431    1.079   .     S
C405   C406    1.396   .     A
C405   H432    1.084   .     S
C405   C68     1.381   1_565 S
C407   N440    1.369   .     A
C407   H433    1.082   .     S
C407   C464    1.421   .     S
C408   N439    1.368   .     A
C408   H434    1.082   .     S
C409   C419    1.416   .     A
C409   C922    1.409   .     S
C409   C924    1.418   .     S
C410   N439    1.377   .     A
C411   N440    1.372   .     A
C411   C466    1.419   .     S
C412   O446    1.294   .     A
C412   O445    1.302   .     A
C413   O448    1.296   .     A
C413   C415    1.459   .     S
C413   O447    1.301   .     A
C414   H438    1.084   .     S
C414   C425    1.393   .     A
C414   C925    1.402   1_554 S
C415   C424    1.395   .     A
C415   C425    1.400   .     A
C416   C417    1.391   .     A
C417   C922    1.388   .     S
C417   H933    1.083   .     S
C418   H436    1.080   .     S
C418   C913    1.409   1_554 S
C418   C921    1.388   1_554 S
C419   C423    1.412   .     A
C420   C424    1.411   .     A
C420   C913    1.418   1_554 S
C420   C925    1.419   1_554 S
C421   C422    1.396   .     A
C421   C918    1.402   .     S
C421   C924    1.419   .     S
C422   C423    1.390   .     A
C422   H435    1.084   .     S
C423   H437    1.082   .     S
C425   H428    1.084   .     S
Cu426  O447    1.932   .     S
Cu426  O443    1.941   .     S
Cu426  O445    1.964   .     S
Cu426  Cu427   2.695   .     S
Cu426  O441    1.964   .     S
Cu426  N439    2.026   .     S
Cu427  O448    1.941   .     S
Cu427  O446    1.964   .     S
Cu427  O442    1.964   .     S
Cu427  N440    2.025   .     S
Cu427  O444    1.932   .     S
H429   C921    1.083   1_554 S
Br449  C458    1.926   .     S
Br450  C466    1.915   .     S
Br451  C467    1.930   .     S
Br452  C480    1.931   .     S
Br453  C472    1.924   .     S
C454   O498    1.295   .     A
C454   O497    1.295   .     A
C454   C462    1.446   .     S
C455   C475    1.419   .     A
C455   C457    1.473   .     S
C455   C472    1.417   .     A
C456   H486    1.084   .     S
C456   C462    1.398   .     A
C456   C122    1.387   1_565 S
C457   O499    1.300   .     A
C457   O500    1.302   .     A
C458   C459    1.415   .     A
C459   C460    1.402   .     A
C459   C468    1.456   .     S
C460   H487    1.079   .     S
C461   C462    1.396   .     A
C461   H488    1.084   .     S
C461   C124    1.381   1_565 S
C463   N496    1.369   .     A
C463   H489    1.082   .     S
C463   C352    1.421   1_655 S
C464   N495    1.368   .     A
C464   H490    1.082   .     S
C465   C475    1.416   .     A
C465   C978    1.409   .     S
C465   C980    1.418   .     S
C466   N495    1.377   .     A
C467   N496    1.372   .     A
C467   C354    1.419   1_655 S
C468   O502    1.294   .     A
C468   O501    1.302   .     A
C469   O504    1.296   .     A
C469   C471    1.459   .     S
C469   O503    1.301   .     A
C470   H494    1.084   .     S
C470   C481    1.393   .     A
C470   C981    1.402   1_554 S
C471   C480    1.395   .     A
C471   C481    1.400   .     A
C472   C473    1.391   .     A
C473   C978    1.388   .     S
C473   H989    1.083   .     S
C474   H492    1.080   .     S
C474   C969    1.409   1_554 S
C474   C977    1.388   1_554 S
C475   C479    1.412   .     A
C476   C480    1.411   .     A
C476   C969    1.418   1_554 S
C476   C981    1.419   1_554 S
C477   C478    1.396   .     A
C477   C974    1.402   .     S
C477   C980    1.419   .     S
C478   C479    1.390   .     A
C478   H491    1.084   .     S
C479   H493    1.082   .     S
C481   H484    1.084   .     S
Cu482  O503    1.932   .     S
Cu482  O499    1.941   .     S
Cu482  O501    1.964   .     S
Cu482  Cu483   2.695   .     S
Cu482  O497    1.964   .     S
Cu482  N495    2.026   .     S
Cu483  O504    1.941   .     S
Cu483  O502    1.964   .     S
Cu483  O498    1.964   .     S
Cu483  N496    2.025   .     S
Cu483  O500    1.932   .     S
H485   C977    1.083   1_554 S
Br505  C514    1.926   .     S
Br506  C522    1.915   .     S
Br507  C523    1.930   .     S
Br508  C536    1.931   .     S
Br509  C528    1.924   .     S
C510   O554    1.295   .     A
C510   O553    1.295   .     A
C510   C518    1.446   .     S
C511   C531    1.419   .     A
C511   C513    1.473   .     S
C511   C528    1.417   .     A
C512   H542    1.084   .     S
C512   C518    1.398   .     A
C512   C682    1.387   .     S
C513   O555    1.300   .     A
C513   O556    1.302   .     A
C514   C515    1.415   .     A
C514   C848    1.387   1_545 S
C515   C516    1.402   .     A
C515   C524    1.456   .     S
C516   H543    1.079   .     S
C516   C853    1.381   1_545 S
C517   C518    1.396   .     A
C517   H544    1.084   .     S
C517   C684    1.381   .     S
C519   N552    1.369   .     A
C519   H545    1.082   .     S
C519   C576    1.421   .     S
C520   N551    1.368   .     A
C520   H546    1.082   .     S
C520   C631    1.421   1_455 S
C521   C531    1.416   .     A
C521   C26     1.409   1_556 S
C521   C28     1.418   1_556 S
C522   N551    1.377   .     A
C522   C635    1.419   1_455 S
C523   N552    1.372   .     A
C523   C578    1.419   .     S
C524   O558    1.294   .     A
C524   O557    1.302   .     A
C525   O560    1.296   .     A
C525   C527    1.459   .     S
C525   O559    1.301   .     A
C526   H550    1.084   .     S
C526   C537    1.393   .     A
C527   C536    1.395   .     A
C527   C537    1.400   .     A
C528   C529    1.391   .     A
C529   C26     1.388   1_556 S
C529   H37     1.083   1_556 S
C530   H548    1.080   .     S
C531   C535    1.412   .     A
C532   C536    1.411   .     A
C533   C534    1.396   .     A
C533   C22     1.402   1_556 S
C533   C28     1.419   1_556 S
C534   C535    1.390   .     A
C534   H547    1.084   .     S
C535   H549    1.082   .     S
C537   H540    1.084   .     S
Cu538  O559    1.932   .     S
Cu538  O555    1.941   .     S
Cu538  O557    1.964   .     S
Cu538  Cu539   2.695   .     S
Cu538  O553    1.964   .     S
Cu538  N551    2.026   .     S
Cu539  O560    1.941   .     S
Cu539  O558    1.964   .     S
Cu539  O554    1.964   .     S
Cu539  N552    2.025   .     S
Cu539  O556    1.932   .     S
Br561  C570    1.926   .     S
Br562  C578    1.915   .     S
Br563  C579    1.930   .     S
Br564  C592    1.931   .     S
Br565  C584    1.924   .     S
C566   O610    1.295   .     A
C566   O609    1.295   .     A
C566   C574    1.446   .     S
C567   C587    1.419   .     A
C567   C569    1.473   .     S
C567   C584    1.417   .     A
C568   H598    1.084   .     S
C568   C574    1.398   .     A
C568   C738    1.387   .     S
C569   O611    1.300   .     A
C569   O612    1.302   .     A
C570   C571    1.415   .     A
C570   C904    1.387   1_545 S
C571   C572    1.402   .     A
C571   C580    1.456   .     S
C572   H599    1.079   .     S
C572   C909    1.381   1_545 S
C573   C574    1.396   .     A
C573   H600    1.084   .     S
C573   C740    1.381   .     S
C575   N608    1.369   .     A
C575   H601    1.082   .     S
C575   C632    1.421   .     S
C576   N607    1.368   .     A
C576   H602    1.082   .     S
C577   C587    1.416   .     A
C577   C82     1.409   1_556 S
C577   C84     1.418   1_556 S
C578   N607    1.377   .     A
C579   N608    1.372   .     A
C579   C634    1.419   .     S
C580   O614    1.294   .     A
C580   O613    1.302   .     A
C581   O616    1.296   .     A
C581   C583    1.459   .     S
C581   O615    1.301   .     A
C582   H606    1.084   .     S
C582   C593    1.393   .     A
C583   C592    1.395   .     A
C583   C593    1.400   .     A
C584   C585    1.391   .     A
C585   C82     1.388   1_556 S
C585   H93     1.083   1_556 S
C586   H604    1.080   .     S
C587   C591    1.412   .     A
C588   C592    1.411   .     A
C589   C590    1.396   .     A
C589   C78     1.402   1_556 S
C589   C84     1.419   1_556 S
C590   C591    1.390   .     A
C590   H603    1.084   .     S
C591   H605    1.082   .     S
C593   H596    1.084   .     S
Cu594  O615    1.932   .     S
Cu594  O611    1.941   .     S
Cu594  O613    1.964   .     S
Cu594  Cu595   2.695   .     S
Cu594  O609    1.964   .     S
Cu594  N607    2.026   .     S
Cu595  O616    1.941   .     S
Cu595  O614    1.964   .     S
Cu595  O610    1.964   .     S
Cu595  N608    2.025   .     S
Cu595  O612    1.932   .     S
Br617  C626    1.926   .     S
Br618  C634    1.915   .     S
Br619  C635    1.930   .     S
Br620  C648    1.931   .     S
Br621  C640    1.924   .     S
C622   O666    1.295   .     A
C622   O665    1.295   .     A
C622   C630    1.446   .     S
C623   C643    1.419   .     A
C623   C625    1.473   .     S
C623   C640    1.417   .     A
C624   H654    1.084   .     S
C624   C630    1.398   .     A
C624   C794    1.387   .     S
C625   O667    1.300   .     A
C625   O668    1.302   .     A
C626   C627    1.415   .     A
C626   C960    1.387   1_545 S
C627   C628    1.402   .     A
C627   C636    1.456   .     S
C628   H655    1.079   .     S
C628   C965    1.381   1_545 S
C629   C630    1.396   .     A
C629   H656    1.084   .     S
C629   C796    1.381   .     S
C631   N664    1.369   .     A
C631   H657    1.082   .     S
C631   C520    1.421   1_655 S
C632   N663    1.368   .     A
C632   H658    1.082   .     S
C633   C643    1.416   .     A
C633   C138    1.409   1_556 S
C633   C140    1.418   1_556 S
C634   N663    1.377   .     A
C635   N664    1.372   .     A
C635   C522    1.419   1_655 S
C636   O670    1.294   .     A
C636   O669    1.302   .     A
C637   O672    1.296   .     A
C637   C639    1.459   .     S
C637   O671    1.301   .     A
C638   H662    1.084   .     S
C638   C649    1.393   .     A
C639   C648    1.395   .     A
C639   C649    1.400   .     A
C640   C641    1.391   .     A
C641   C138    1.388   1_556 S
C641   H149    1.083   1_556 S
C642   H660    1.080   .     S
C643   C647    1.412   .     A
C644   C648    1.411   .     A
C645   C646    1.396   .     A
C645   C134    1.402   1_556 S
C645   C140    1.419   1_556 S
C646   C647    1.390   .     A
C646   H659    1.084   .     S
C647   H661    1.082   .     S
C649   H652    1.084   .     S
Cu650  O671    1.932   .     S
Cu650  O667    1.941   .     S
Cu650  O669    1.964   .     S
Cu650  Cu651   2.695   .     S
Cu650  O665    1.964   .     S
Cu650  N663    2.026   .     S
Cu651  O672    1.941   .     S
Cu651  O670    1.964   .     S
Cu651  O666    1.964   .     S
Cu651  N664    2.025   .     S
Cu651  O668    1.932   .     S
Br673  C682    1.926   .     S
Br674  C690    1.915   .     S
Br675  C691    1.930   .     S
Br676  C704    1.931   .     S
Br677  C696    1.924   .     S
C678   O722    1.295   .     A
C678   O721    1.295   .     A
C678   C686    1.446   .     S
C679   C699    1.419   .     A
C679   C681    1.473   .     S
C679   C696    1.417   .     A
C680   H710    1.084   .     S
C680   C686    1.398   .     A
C680   C850    1.387   .     S
C681   O723    1.300   .     A
C681   O724    1.302   .     A
C682   C683    1.415   .     A
C683   C684    1.402   .     A
C683   C692    1.456   .     S
C684   H711    1.079   .     S
C685   C686    1.396   .     A
C685   H712    1.084   .     S
C685   C852    1.381   .     S
C687   N720    1.369   .     A
C687   H713    1.082   .     S
C687   C744    1.421   .     S
C688   N719    1.368   .     A
C688   H714    1.082   .     S
C688   C799    1.421   1_455 S
C689   C699    1.416   .     A
C689   C194    1.409   1_556 S
C689   C196    1.418   1_556 S
C690   N719    1.377   .     A
C690   C803    1.419   1_455 S
C691   N720    1.372   .     A
C691   C746    1.419   .     S
C692   O726    1.294   .     A
C692   O725    1.302   .     A
C693   O728    1.296   .     A
C693   C695    1.459   .     S
C693   O727    1.301   .     A
C694   H718    1.084   .     S
C694   C705    1.393   .     A
C695   C704    1.395   .     A
C695   C705    1.400   .     A
C696   C697    1.391   .     A
C697   C194    1.388   1_556 S
C697   H205    1.083   1_556 S
C698   H716    1.080   .     S
C699   C703    1.412   .     A
C700   C704    1.411   .     A
C701   C702    1.396   .     A
C701   C190    1.402   1_556 S
C701   C196    1.419   1_556 S
C702   C703    1.390   .     A
C702   H715    1.084   .     S
C703   H717    1.082   .     S
C705   H708    1.084   .     S
Cu706  O727    1.932   .     S
Cu706  O723    1.941   .     S
Cu706  O725    1.964   .     S
Cu706  Cu707   2.695   .     S
Cu706  O721    1.964   .     S
Cu706  N719    2.026   .     S
Cu707  O728    1.941   .     S
Cu707  O726    1.964   .     S
Cu707  O722    1.964   .     S
Cu707  N720    2.025   .     S
Cu707  O724    1.932   .     S
Br729  C738    1.926   .     S
Br730  C746    1.915   .     S
Br731  C747    1.930   .     S
Br732  C760    1.931   .     S
Br733  C752    1.924   .     S
C734   O778    1.295   .     A
C734   O777    1.295   .     A
C734   C742    1.446   .     S
C735   C755    1.419   .     A
C735   C737    1.473   .     S
C735   C752    1.417   .     A
C736   H766    1.084   .     S
C736   C742    1.398   .     A
C736   C906    1.387   .     S
C737   O779    1.300   .     A
C737   O780    1.302   .     A
C738   C739    1.415   .     A
C739   C740    1.402   .     A
C739   C748    1.456   .     S
C740   H767    1.079   .     S
C741   C742    1.396   .     A
C741   H768    1.084   .     S
C741   C908    1.381   .     S
C743   N776    1.369   .     A
C743   H769    1.082   .     S
C743   C800    1.421   .     S
C744   N775    1.368   .     A
C744   H770    1.082   .     S
C745   C755    1.416   .     A
C745   C250    1.409   1_556 S
C745   C252    1.418   1_556 S
C746   N775    1.377   .     A
C747   N776    1.372   .     A
C747   C802    1.419   .     S
C748   O782    1.294   .     A
C748   O781    1.302   .     A
C749   O784    1.296   .     A
C749   C751    1.459   .     S
C749   O783    1.301   .     A
C750   H774    1.084   .     S
C750   C761    1.393   .     A
C751   C760    1.395   .     A
C751   C761    1.400   .     A
C752   C753    1.391   .     A
C753   C250    1.388   1_556 S
C753   H261    1.083   1_556 S
C754   H772    1.080   .     S
C755   C759    1.412   .     A
C756   C760    1.411   .     A
C757   C758    1.396   .     A
C757   C246    1.402   1_556 S
C757   C252    1.419   1_556 S
C758   C759    1.390   .     A
C758   H771    1.084   .     S
C759   H773    1.082   .     S
C761   H764    1.084   .     S
Cu762  O783    1.932   .     S
Cu762  O779    1.941   .     S
Cu762  O781    1.964   .     S
Cu762  Cu763   2.695   .     S
Cu762  O777    1.964   .     S
Cu762  N775    2.026   .     S
Cu763  O784    1.941   .     S
Cu763  O782    1.964   .     S
Cu763  O778    1.964   .     S
Cu763  N776    2.025   .     S
Cu763  O780    1.932   .     S
Br785  C794    1.926   .     S
Br786  C802    1.915   .     S
Br787  C803    1.930   .     S
Br788  C816    1.931   .     S
Br789  C808    1.924   .     S
C790   O834    1.295   .     A
C790   O833    1.295   .     A
C790   C798    1.446   .     S
C791   C811    1.419   .     A
C791   C793    1.473   .     S
C791   C808    1.417   .     A
C792   H822    1.084   .     S
C792   C798    1.398   .     A
C792   C962    1.387   .     S
C793   O835    1.300   .     A
C793   O836    1.302   .     A
C794   C795    1.415   .     A
C795   C796    1.402   .     A
C795   C804    1.456   .     S
C796   H823    1.079   .     S
C797   C798    1.396   .     A
C797   H824    1.084   .     S
C797   C964    1.381   .     S
C799   N832    1.369   .     A
C799   H825    1.082   .     S
C799   C688    1.421   1_655 S
C800   N831    1.368   .     A
C800   H826    1.082   .     S
C801   C811    1.416   .     A
C801   C306    1.409   1_556 S
C801   C308    1.418   1_556 S
C802   N831    1.377   .     A
C803   N832    1.372   .     A
C803   C690    1.419   1_655 S
C804   O838    1.294   .     A
C804   O837    1.302   .     A
C805   O840    1.296   .     A
C805   C807    1.459   .     S
C805   O839    1.301   .     A
C806   H830    1.084   .     S
C806   C817    1.393   .     A
C807   C816    1.395   .     A
C807   C817    1.400   .     A
C808   C809    1.391   .     A
C809   C306    1.388   1_556 S
C809   H317    1.083   1_556 S
C810   H828    1.080   .     S
C811   C815    1.412   .     A
C812   C816    1.411   .     A
C813   C814    1.396   .     A
C813   C302    1.402   1_556 S
C813   C308    1.419   1_556 S
C814   C815    1.390   .     A
C814   H827    1.084   .     S
C815   H829    1.082   .     S
C817   H820    1.084   .     S
Cu818  O839    1.932   .     S
Cu818  O835    1.941   .     S
Cu818  O837    1.964   .     S
Cu818  Cu819   2.695   .     S
Cu818  O833    1.964   .     S
Cu818  N831    2.026   .     S
Cu819  O840    1.941   .     S
Cu819  O838    1.964   .     S
Cu819  O834    1.964   .     S
Cu819  N832    2.025   .     S
Cu819  O836    1.932   .     S
Br841  C850    1.926   .     S
Br842  C858    1.915   .     S
Br843  C859    1.930   .     S
Br844  C872    1.931   .     S
Br845  C864    1.924   .     S
C846   O890    1.295   .     A
C846   O889    1.295   .     A
C846   C854    1.446   .     S
C847   C867    1.419   .     A
C847   C849    1.473   .     S
C847   C864    1.417   .     A
C848   H878    1.084   .     S
C848   C854    1.398   .     A
C848   C514    1.387   1_565 S
C849   O891    1.300   .     A
C849   O892    1.302   .     A
C850   C851    1.415   .     A
C851   C852    1.402   .     A
C851   C860    1.456   .     S
C852   H879    1.079   .     S
C853   C854    1.396   .     A
C853   H880    1.084   .     S
C853   C516    1.381   1_565 S
C855   N888    1.369   .     A
C855   H881    1.082   .     S
C855   C912    1.421   .     S
C856   N887    1.368   .     A
C856   H882    1.082   .     S
C856   C967    1.421   1_455 S
C857   C867    1.416   .     A
C857   C362    1.409   1_556 S
C857   C364    1.418   1_556 S
C858   N887    1.377   .     A
C858   C971    1.419   1_455 S
C859   N888    1.372   .     A
C859   C914    1.419   .     S
C860   O894    1.294   .     A
C860   O893    1.302   .     A
C861   O896    1.296   .     A
C861   C863    1.459   .     S
C861   O895    1.301   .     A
C862   H886    1.084   .     S
C862   C873    1.393   .     A
C863   C872    1.395   .     A
C863   C873    1.400   .     A
C864   C865    1.391   .     A
C865   C362    1.388   1_556 S
C865   H373    1.083   1_556 S
C866   H884    1.080   .     S
C867   C871    1.412   .     A
C868   C872    1.411   .     A
C869   C870    1.396   .     A
C869   C358    1.402   1_556 S
C869   C364    1.419   1_556 S
C870   C871    1.390   .     A
C870   H883    1.084   .     S
C871   H885    1.082   .     S
C873   H876    1.084   .     S
Cu874  O895    1.932   .     S
Cu874  O891    1.941   .     S
Cu874  O893    1.964   .     S
Cu874  Cu875   2.695   .     S
Cu874  O889    1.964   .     S
Cu874  N887    2.026   .     S
Cu875  O896    1.941   .     S
Cu875  O894    1.964   .     S
Cu875  O890    1.964   .     S
Cu875  N888    2.025   .     S
Cu875  O892    1.932   .     S
Br897  C906    1.926   .     S
Br898  C914    1.915   .     S
Br899  C915    1.930   .     S
Br900  C928    1.931   .     S
Br901  C920    1.924   .     S
C902   O946    1.295   .     A
C902   O945    1.295   .     A
C902   C910    1.446   .     S
C903   C923    1.419   .     A
C903   C905    1.473   .     S
C903   C920    1.417   .     A
C904   H934    1.084   .     S
C904   C910    1.398   .     A
C904   C570    1.387   1_565 S
C905   O947    1.300   .     A
C905   O948    1.302   .     A
C906   C907    1.415   .     A
C907   C908    1.402   .     A
C907   C916    1.456   .     S
C908   H935    1.079   .     S
C909   C910    1.396   .     A
C909   H936    1.084   .     S
C909   C572    1.381   1_565 S
C911   N944    1.369   .     A
C911   H937    1.082   .     S
C911   C968    1.421   .     S
C912   N943    1.368   .     A
C912   H938    1.082   .     S
C913   C923    1.416   .     A
C913   C418    1.409   1_556 S
C913   C420    1.418   1_556 S
C914   N943    1.377   .     A
C915   N944    1.372   .     A
C915   C970    1.419   .     S
C916   O950    1.294   .     A
C916   O949    1.302   .     A
C917   O952    1.296   .     A
C917   C919    1.459   .     S
C917   O951    1.301   .     A
C918   H942    1.084   .     S
C918   C929    1.393   .     A
C919   C928    1.395   .     A
C919   C929    1.400   .     A
C920   C921    1.391   .     A
C921   C418    1.388   1_556 S
C921   H429    1.083   1_556 S
C922   H940    1.080   .     S
C923   C927    1.412   .     A
C924   C928    1.411   .     A
C925   C926    1.396   .     A
C925   C414    1.402   1_556 S
C925   C420    1.419   1_556 S
C926   C927    1.390   .     A
C926   H939    1.084   .     S
C927   H941    1.082   .     S
C929   H932    1.084   .     S
Cu930  O951    1.932   .     S
Cu930  O947    1.941   .     S
Cu930  O949    1.964   .     S
Cu930  Cu931   2.695   .     S
Cu930  O945    1.964   .     S
Cu930  N943    2.026   .     S
Cu931  O952    1.941   .     S
Cu931  O950    1.964   .     S
Cu931  O946    1.964   .     S
Cu931  N944    2.025   .     S
Cu931  O948    1.932   .     S
Br953  C962    1.926   .     S
Br954  C970    1.915   .     S
Br955  C971    1.930   .     S
Br956  C984    1.931   .     S
Br957  C976    1.924   .     S
C958   O1002   1.295   .     A
C958   O1001   1.295   .     A
C958   C966    1.446   .     S
C959   C979    1.419   .     A
C959   C961    1.473   .     S
C959   C976    1.417   .     A
C960   H990    1.084   .     S
C960   C966    1.398   .     A
C960   C626    1.387   1_565 S
C961   O1003   1.300   .     A
C961   O1004   1.302   .     A
C962   C963    1.415   .     A
C963   C964    1.402   .     A
C963   C972    1.456   .     S
C964   H991    1.079   .     S
C965   C966    1.396   .     A
C965   H992    1.084   .     S
C965   C628    1.381   1_565 S
C967   N1000   1.369   .     A
C967   H993    1.082   .     S
C967   C856    1.421   1_655 S
C968   N999    1.368   .     A
C968   H994    1.082   .     S
C969   C979    1.416   .     A
C969   C474    1.409   1_556 S
C969   C476    1.418   1_556 S
C970   N999    1.377   .     A
C971   N1000   1.372   .     A
C971   C858    1.419   1_655 S
C972   O1006   1.294   .     A
C972   O1005   1.302   .     A
C973   O1008   1.296   .     A
C973   C975    1.459   .     S
C973   O1007   1.301   .     A
C974   H998    1.084   .     S
C974   C985    1.393   .     A
C975   C984    1.395   .     A
C975   C985    1.400   .     A
C976   C977    1.391   .     A
C977   C474    1.388   1_556 S
C977   H485    1.083   1_556 S
C978   H996    1.080   .     S
C979   C983    1.412   .     A
C980   C984    1.411   .     A
C981   C982    1.396   .     A
C981   C470    1.402   1_556 S
C981   C476    1.419   1_556 S
C982   C983    1.390   .     A
C982   H995    1.084   .     S
C983   H997    1.082   .     S
C985   H988    1.084   .     S
Cu986  O1007   1.932   .     S
Cu986  O1003   1.941   .     S
Cu986  O1005   1.964   .     S
Cu986  Cu987   2.695   .     S
Cu986  O1001   1.964   .     S
Cu986  N999    2.026   .     S
Cu987  O1008   1.941   .     S
Cu987  O1006   1.964   .     S
Cu987  O1002   1.964   .     S
Cu987  N1000   2.025   .     S
Cu987  O1004   1.932   .     S
