data_str_m1_o1_o17_pcu_sym.21
_audit_creation_date              2020-01-03
_audit_creation_method            'Materials Studio'
_symmetry_space_group_name_H-M    'P1'
_symmetry_Int_Tables_number       1
_symmetry_cell_setting            triclinic
loop_
_symmetry_equiv_pos_as_xyz
  x,y,z
_cell_length_a                    36.5768
_cell_length_b                    36.5757
_cell_length_c                    34.4574
_cell_angle_alpha                 89.9996
_cell_angle_beta                  89.9997
_cell_angle_gamma                 90.2720
loop_
_atom_site_label
_atom_site_type_symbol
_atom_site_fract_x
_atom_site_fract_y
_atom_site_fract_z
_atom_site_U_iso_or_equiv
_atom_site_adp_type
_atom_site_occupancy
C1     C     0.01788   0.27829   0.41857   0.00000  Uiso   1.00
C2     C     0.26610   0.47082   0.08159   0.00000  Uiso   1.00
C3     C     0.21880   0.48739   0.54084   0.00000  Uiso   1.00
C4     C     0.01265   0.28118   0.45917   0.00000  Uiso   1.00
C5     C     0.48810   0.21839   0.54105   0.00000  Uiso   1.00
C6     C     0.21838   0.48812   0.45895   0.00000  Uiso   1.00
C7     C     0.28120   0.01261   0.54084   0.00000  Uiso   1.00
C8     C     0.25636   0.46691   0.95863   0.00000  Uiso   1.00
C9     C     0.23893   0.03183   0.04082   0.00000  Uiso   1.00
C10    C     0.03202   0.23976   0.95902   0.00000  Uiso   1.00
C11    C     0.46798   0.26020   0.04104   0.00000  Uiso   1.00
C12    C     0.24364   0.03309   0.95863   0.00000  Uiso   1.00
C13    C     0.46695   0.25502   0.91826   0.00000  Uiso   1.00
C14    C     0.26106   0.46817   0.04082   0.00000  Uiso   1.00
C15    C     0.46798   0.26023   0.95902   0.00000  Uiso   1.00
C16    C     0.03202   0.23980   0.04104   0.00000  Uiso   1.00
C17    C     0.09800   0.34815   0.24989   0.00000  Uiso   1.00
C18    C     0.40195   0.15200   0.75005   0.00000  Uiso   1.00
C19    C     0.15195   0.09812   0.24988   0.00000  Uiso   1.00
C20    C     0.34807   0.40188   0.75009   0.00000  Uiso   1.00
C21    C     0.40200   0.15185   0.24989   0.00000  Uiso   1.00
C22    C     0.09805   0.34800   0.75005   0.00000  Uiso   1.00
C23    C     0.34805   0.40188   0.24988   0.00000  Uiso   1.00
C24    C     0.03305   0.24518   0.08179   0.00000  Uiso   1.00
C25    C     0.15193   0.09812   0.75009   0.00000  Uiso   1.00
C26    C     0.09811   0.15194   0.75008   0.00000  Uiso   1.00
C27    C     0.40188   0.34806   0.24988   0.00000  Uiso   1.00
C28    C     0.15185   0.40199   0.75010   0.00000  Uiso   1.00
C29    C     0.34799   0.09807   0.24994   0.00000  Uiso   1.00
C30    C     0.40189   0.34806   0.75008   0.00000  Uiso   1.00
C31    C     0.09812   0.15194   0.24988   0.00000  Uiso   1.00
C32    C     0.34815   0.09801   0.75010   0.00000  Uiso   1.00
C33    C     0.15201   0.40193   0.24994   0.00000  Uiso   1.00
C34    C     0.00000   0.25000   0.47969   0.00000  Uiso   1.00
C35    C     0.25066   0.46665   0.91789   0.00000  Uiso   1.00
C36    C     0.00000   0.25000   0.52060   0.00000  Uiso   1.00
C37    C     0.25000  -0.00000   0.47940   0.00000  Uiso   1.00
C38    C     0.25000  -0.00000   0.52031   0.00000  Uiso   1.00
C39    C     0.25000  -0.00000   0.97923   0.00000  Uiso   1.00
C40    C     0.25000  -0.00000   0.02025   0.00000  Uiso   1.00
C41    C    -0.00000   0.25000   0.97954   0.00000  Uiso   1.00
C42    C    -0.00000   0.25000   0.02050   0.00000  Uiso   1.00
C43    C     0.48158   0.15006   0.45812   0.00000  Uiso   1.00
C44    C     0.01659   0.35063   0.54078   0.00000  Uiso   1.00
C45    C     0.35064   0.01649   0.45921   0.00000  Uiso   1.00
C46    C     0.23390   0.02918   0.08159   0.00000  Uiso   1.00
C47    C     0.15004   0.48169   0.54188   0.00000  Uiso   1.00
C48    C     0.01843   0.34994   0.45812   0.00000  Uiso   1.00
C49    C     0.48344   0.14937   0.54079   0.00000  Uiso   1.00
C50    C     0.14936   0.48351   0.45921   0.00000  Uiso   1.00
C51    C     0.34996   0.01831   0.54188   0.00000  Uiso   1.00
C52    C     0.28245   0.40290   0.95837   0.00000  Uiso   1.00
C53    C     0.22937   0.10045   0.04073   0.00000  Uiso   1.00
C54    C     0.08865   0.20058   0.95863   0.00000  Uiso   1.00
C55    C     0.41140   0.29932   0.04168   0.00000  Uiso   1.00
C56    C     0.21753   0.09709   0.95837   0.00000  Uiso   1.00
C57    C     0.03305   0.24498   0.91826   0.00000  Uiso   1.00
C58    C     0.27062   0.39955   0.04074   0.00000  Uiso   1.00
C59    C     0.41135   0.29941   0.95863   0.00000  Uiso   1.00
C60    C     0.08860   0.20068   0.04169   0.00000  Uiso   1.00
C61    C     0.04342   0.30338   0.39784   0.00000  Uiso   1.00
C62    C     0.46050   0.19376   0.60318   0.00000  Uiso   1.00
C63    C     0.19374   0.46054   0.39682   0.00000  Uiso   1.00
C64    C     0.30345   0.04333   0.60217   0.00000  Uiso   1.00
C65    C     0.45658   0.19662   0.39784   0.00000  Uiso   1.00
C66    C     0.03949   0.30624   0.60319   0.00000  Uiso   1.00
C67    C     0.30626   0.03946   0.39682   0.00000  Uiso   1.00
C68    C     0.46695   0.25482   0.08179   0.00000  Uiso   1.00
C69    C     0.19655   0.45667   0.60218   0.00000  Uiso   1.00
C70    C     0.25801   0.06759   0.89627   0.00000  Uiso   1.00
C71    C     0.28987   0.44488   0.10322   0.00000  Uiso   1.00
C72    C     0.43144   0.25110   0.89733   0.00000  Uiso   1.00
C73    C     0.06846   0.24924   0.10290   0.00000  Uiso   1.00
C74    C     0.24199   0.43241   0.89627   0.00000  Uiso   1.00
C75    C     0.21013   0.05512   0.10323   0.00000  Uiso   1.00
C76    C     0.06856   0.24890   0.89733   0.00000  Uiso   1.00
C77    C     0.43154   0.25076   0.10291   0.00000  Uiso   1.00
C78    C     0.00000   0.25000   0.39824   0.00000  Uiso   1.00
C79    C     0.00000   0.25000   0.60195   0.00000  Uiso   1.00
C80    C     0.25000  -0.00000   0.39806   0.00000  Uiso   1.00
C81    C     0.48368   0.22068   0.58181   0.00000  Uiso   1.00
C82    C     0.25000  -0.00000   0.60176   0.00000  Uiso   1.00
C83    C     0.25000  -0.00000   0.89787   0.00000  Uiso   1.00
C84    C     0.25000   0.00000   0.10176   0.00000  Uiso   1.00
C85    C    -0.00000   0.25000   0.89808   0.00000  Uiso   1.00
C86    C    -0.00000   0.25000   0.10195   0.00000  Uiso   1.00
C87    C     0.48159   0.18548   0.47945   0.00000  Uiso   1.00
C88    C     0.01773   0.31480   0.52036   0.00000  Uiso   1.00
C89    C     0.31482   0.01767   0.47964   0.00000  Uiso   1.00
C90    C     0.18546   0.48165   0.52055   0.00000  Uiso   1.00
C91    C     0.01842   0.31452   0.47945   0.00000  Uiso   1.00
C92    C     0.22067   0.48370   0.41819   0.00000  Uiso   1.00
C93    C     0.48228   0.18520   0.52036   0.00000  Uiso   1.00
C94    C     0.18518   0.48233   0.47964   0.00000  Uiso   1.00
C95    C     0.31454   0.01834   0.52055   0.00000  Uiso   1.00
C96    C     0.26727   0.43510   0.97922   0.00000  Uiso   1.00
C97    C     0.23241   0.06484   0.02011   0.00000  Uiso   1.00
C98    C     0.06143   0.22341   0.97957   0.00000  Uiso   1.00
C99    C     0.43855   0.27655   0.02055   0.00000  Uiso   1.00
C100   C     0.23272   0.06490   0.97922   0.00000  Uiso   1.00
C101   C     0.26758   0.43516   0.02011   0.00000  Uiso   1.00
C102   C     0.43856   0.27658   0.97957   0.00000  Uiso   1.00
C103   C     0.27832   0.01784   0.58143   0.00000  Uiso   1.00
C104   C     0.06145   0.22345   0.02055   0.00000  Uiso   1.00
C105   C     0.25000  -0.00000   0.35574   0.00000  Uiso   1.00
C106   C     0.25000  -0.00000   0.64418   0.00000  Uiso   1.00
C107   C    -0.00000   0.25000   0.35583   0.00000  Uiso   1.00
C108   C    -0.00000   0.25000   0.64426   0.00000  Uiso   1.00
C109   C    -0.00000   0.25000   0.85575   0.00000  Uiso   1.00
C110   C    -0.00000   0.25000   0.14425   0.00000  Uiso   1.00
C111   C     0.25000  -0.00000   0.85567   0.00000  Uiso   1.00
C112   C     0.25000  -0.00000   0.14420   0.00000  Uiso   1.00
C113   C     0.18000   0.07004   0.24996   0.00000  Uiso   1.00
C114   C     0.48212   0.22171   0.41857   0.00000  Uiso   1.00
C115   C     0.32001   0.42996   0.75003   0.00000  Uiso   1.00
C116   C     0.43006   0.17996   0.25004   0.00000  Uiso   1.00
C117   C     0.07000   0.31994   0.75004   0.00000  Uiso   1.00
C118   C     0.32000   0.42996   0.24996   0.00000  Uiso   1.00
C119   C     0.17999   0.07004   0.75003   0.00000  Uiso   1.00
C120   C     0.06994   0.32004   0.25004   0.00000  Uiso   1.00
C121   C     0.43000   0.18005   0.75004   0.00000  Uiso   1.00
C122   C     0.17996   0.43005   0.74997   0.00000  Uiso   1.00
C123   C     0.31993   0.07002   0.24995   0.00000  Uiso   1.00
C124   C     0.42996   0.32000   0.75003   0.00000  Uiso   1.00
C125   C     0.01632   0.27932   0.58181   0.00000  Uiso   1.00
C126   C     0.07004   0.17999   0.24996   0.00000  Uiso   1.00
C127   C     0.32003   0.06995   0.74997   0.00000  Uiso   1.00
C128   C     0.18007   0.42998   0.24995   0.00000  Uiso   1.00
C129   C     0.07004   0.18000   0.75003   0.00000  Uiso   1.00
C130   C     0.42996   0.32001   0.24996   0.00000  Uiso   1.00
C131   C     0.11881   0.40840   0.26913   0.00000  Uiso   1.00
C132   C     0.38159   0.09149   0.73133   0.00000  Uiso   1.00
C133   C     0.08801   0.11491   0.25341   0.00000  Uiso   1.00
C134   C     0.41203   0.38508   0.74672   0.00000  Uiso   1.00
C135   C     0.38119   0.09160   0.26913   0.00000  Uiso   1.00
C136   C     0.27933   0.01630   0.41819   0.00000  Uiso   1.00
C137   C     0.11841   0.40851   0.73133   0.00000  Uiso   1.00
C138   C     0.41199   0.38509   0.25341   0.00000  Uiso   1.00
C139   C     0.08797   0.11492   0.74673   0.00000  Uiso   1.00
C140   C     0.11490   0.08799   0.74675   0.00000  Uiso   1.00
C141   C     0.38506   0.41202   0.25342   0.00000  Uiso   1.00
C142   C     0.09156   0.38124   0.73093   0.00000  Uiso   1.00
C143   C     0.40847   0.11844   0.26875   0.00000  Uiso   1.00
C144   C     0.38510   0.41201   0.74674   0.00000  Uiso   1.00
C145   C     0.11494   0.08798   0.25342   0.00000  Uiso   1.00
C146   C     0.40844   0.11876   0.73093   0.00000  Uiso   1.00
C147   C     0.22168   0.48216   0.58143   0.00000  Uiso   1.00
C148   C     0.09153   0.38156   0.26875   0.00000  Uiso   1.00
C149   C     0.36882   0.15828   0.76947   0.00000  Uiso   1.00
C150   C     0.13116   0.34174   0.23054   0.00000  Uiso   1.00
C151   C     0.33793   0.36486   0.75354   0.00000  Uiso   1.00
C152   C     0.16207   0.13512   0.24619   0.00000  Uiso   1.00
C153   C     0.13118   0.34172   0.76947   0.00000  Uiso   1.00
C154   C     0.36884   0.15826   0.23054   0.00000  Uiso   1.00
C155   C     0.16207   0.13514   0.75354   0.00000  Uiso   1.00
C156   C     0.33793   0.36488   0.24619   0.00000  Uiso   1.00
C157   C     0.36487   0.33794   0.24620   0.00000  Uiso   1.00
C158   C     0.24933   0.03335   0.91789   0.00000  Uiso   1.00
C159   C     0.13514   0.16208   0.75353   0.00000  Uiso   1.00
C160   C     0.34176   0.13118   0.23045   0.00000  Uiso   1.00
C161   C     0.15829   0.36877   0.76932   0.00000  Uiso   1.00
C162   C     0.13513   0.16206   0.24620   0.00000  Uiso   1.00
C163   C     0.36486   0.33792   0.75353   0.00000  Uiso   1.00
C164   C     0.15824   0.36882   0.23045   0.00000  Uiso   1.00
C165   C     0.34171   0.13123   0.76932   0.00000  Uiso   1.00
C166   C     0.48736   0.21882   0.45917   0.00000  Uiso   1.00
C167   C     0.01191   0.28161   0.54105   0.00000  Uiso   1.00
C168   C     0.28162   0.01188   0.45895   0.00000  Uiso   1.00
Cl169  Cl    0.11168   0.44985   0.29438   0.00000  Uiso   1.00
Cl170  Cl    0.39793   0.45835   0.25973   0.00000  Uiso   1.00
Cl171  Cl    0.05007   0.38841   0.70577   0.00000  Uiso   1.00
Cl172  Cl    0.45066   0.11014   0.29200   0.00000  Uiso   1.00
Cl173  Cl    0.39803   0.45835   0.74074   0.00000  Uiso   1.00
Cl174  Cl    0.10207   0.04165   0.25974   0.00000  Uiso   1.00
Cl175  Cl    0.44993   0.11159   0.70577   0.00000  Uiso   1.00
Cl176  Cl    0.04933   0.38986   0.29200   0.00000  Uiso   1.00
Cl177  Cl    0.36166   0.19965   0.79485   0.00000  Uiso   1.00
Cl178  Cl    0.13828   0.30028   0.20531   0.00000  Uiso   1.00
Cl179  Cl    0.29159   0.35200   0.75982   0.00000  Uiso   1.00
Cl180  Cl    0.38991   0.04926   0.70816   0.00000  Uiso   1.00
Cl181  Cl    0.20838   0.14794   0.23963   0.00000  Uiso   1.00
Cl182  Cl    0.13834   0.30035   0.79486   0.00000  Uiso   1.00
Cl183  Cl    0.36172   0.19972   0.20531   0.00000  Uiso   1.00
Cl184  Cl    0.20841   0.14800   0.75981   0.00000  Uiso   1.00
Cl185  Cl    0.29162   0.35206   0.23964   0.00000  Uiso   1.00
Cl186  Cl    0.35206   0.29162   0.23967   0.00000  Uiso   1.00
Cl187  Cl    0.14801   0.20843   0.75975   0.00000  Uiso   1.00
Cl188  Cl    0.30040   0.13836   0.20506   0.00000  Uiso   1.00
Cl189  Cl    0.19983   0.36147   0.79428   0.00000  Uiso   1.00
Cl190  Cl    0.14794   0.20838   0.23967   0.00000  Uiso   1.00
Cl191  Cl    0.04169   0.10201   0.25964   0.00000  Uiso   1.00
Cl192  Cl    0.35199   0.29157   0.75976   0.00000  Uiso   1.00
Cl193  Cl    0.19960   0.36163   0.20506   0.00000  Uiso   1.00
Cl194  Cl    0.30017   0.13853   0.79428   0.00000  Uiso   1.00
Cl195  Cl    0.45838   0.39799   0.74062   0.00000  Uiso   1.00
Cl196  Cl    0.38832   0.05015   0.29438   0.00000  Uiso   1.00
Cl197  Cl    0.11009   0.45074   0.70816   0.00000  Uiso   1.00
Cl198  Cl    0.45831   0.39799   0.25963   0.00000  Uiso   1.00
Cl199  Cl    0.04161   0.10201   0.74063   0.00000  Uiso   1.00
Cl200  Cl    0.10196   0.04165   0.74075   0.00000  Uiso   1.00
H201   H     0.00763   0.11717   0.42027   0.00000  Uiso   1.00
H202   H     0.25296   0.13678   0.07706   0.00000  Uiso   1.00
H203   H     0.14145   0.19187   0.94474   0.00000  Uiso   1.00
H204   H     0.40284   0.34060   0.07937   0.00000  Uiso   1.00
H205   H     0.17937   0.11617   0.92140   0.00000  Uiso   1.00
H206   H     0.24702   0.36323   0.07707   0.00000  Uiso   1.00
H207   H     0.35854   0.30811   0.94474   0.00000  Uiso   1.00
H208   H     0.09716   0.15940   0.07937   0.00000  Uiso   1.00
H209   H     0.05213   0.33794   0.35339   0.00000  Uiso   1.00
H210   H     0.41185   0.16786   0.60692   0.00000  Uiso   1.00
H211   H     0.16780   0.41190   0.39309   0.00000  Uiso   1.00
H212   H     0.04281   0.39733   0.55513   0.00000  Uiso   1.00
H213   H     0.33803   0.05196   0.64662   0.00000  Uiso   1.00
H214   H     0.44787   0.16206   0.35340   0.00000  Uiso   1.00
H215   H     0.08816   0.33213   0.60694   0.00000  Uiso   1.00
H216   H     0.33220   0.08810   0.39309   0.00000  Uiso   1.00
H217   H     0.16197   0.44804   0.64663   0.00000  Uiso   1.00
H218   H     0.24641   0.10096   0.85133   0.00000  Uiso   1.00
H219   H     0.29493   0.40901   0.14739   0.00000  Uiso   1.00
H220   H     0.38127   0.22798   0.89631   0.00000  Uiso   1.00
H221   H     0.09978   0.23533   0.14877   0.00000  Uiso   1.00
H222   H     0.25360   0.39904   0.85133   0.00000  Uiso   1.00
H223   H     0.39737   0.04266   0.44487   0.00000  Uiso   1.00
H224   H     0.20508   0.09099   0.14739   0.00000  Uiso   1.00
H225   H     0.11874   0.27201   0.89631   0.00000  Uiso   1.00
H226   H     0.40022   0.26467   0.14878   0.00000  Uiso   1.00
H227   H     0.11717   0.00779   0.57971   0.00000  Uiso   1.00
H228   H     0.49238   0.38283   0.42027   0.00000  Uiso   1.00
H229   H     0.45723   0.10266   0.55513   0.00000  Uiso   1.00
H230   H     0.10263   0.45733   0.44487   0.00000  Uiso   1.00
H231   H     0.38282   0.49221   0.57971   0.00000  Uiso   1.00
H232   H     0.32061   0.38381   0.92141   0.00000  Uiso   1.00
O233   O     0.25000  -0.00000   0.25000   0.00000  Uiso   1.00
O234   O     0.25000   0.46963   0.66245   0.00000  Uiso   1.00
O235   O     0.17787   0.46814   0.63535   0.00000  Uiso   1.00
O236   O     0.28282   0.08744   0.90755   0.00000  Uiso   1.00
O237   O     0.23799   0.07700   0.86318   0.00000  Uiso   1.00
O238   O     0.32159   0.44062   0.09304   0.00000  Uiso   1.00
O239   O     0.27603   0.42557   0.13509   0.00000  Uiso   1.00
O240   O     0.42593   0.26755   0.86700   0.00000  Uiso   1.00
O241   O     0.40419   0.22848   0.91284   0.00000  Uiso   1.00
O242   O     0.09222   0.26937   0.08975   0.00000  Uiso   1.00
O243   O     0.07472   0.23015   0.13742   0.00000  Uiso   1.00
O244   O     0.21717   0.41256   0.90755   0.00000  Uiso   1.00
O245   O     0.46963   0.25000   0.33755   0.00000  Uiso   1.00
O246   O     0.26201   0.42300   0.86319   0.00000  Uiso   1.00
O247   O     0.17841   0.05938   0.09305   0.00000  Uiso   1.00
O248   O     0.22398   0.07444   0.13509   0.00000  Uiso   1.00
O249   O     0.07407   0.23245   0.86700   0.00000  Uiso   1.00
O250   O     0.09581   0.27151   0.91284   0.00000  Uiso   1.00
O251   O     0.40778   0.23064   0.08976   0.00000  Uiso   1.00
O252   O     0.42528   0.26986   0.13742   0.00000  Uiso   1.00
O253   O     0.03036   0.25000   0.66245   0.00000  Uiso   1.00
O254   O    -0.00000   0.21963   0.83755   0.00000  Uiso   1.00
O255   O    -0.00000   0.28036   0.16245   0.00000  Uiso   1.00
O256   O     0.28036  -0.00000   0.83755   0.00000  Uiso   1.00
O257   O     0.21963  -0.00000   0.16245   0.00000  Uiso   1.00
O258   O    -0.00000   0.28036   0.83755   0.00000  Uiso   1.00
O259   O    -0.00000   0.21963   0.16245   0.00000  Uiso   1.00
O260   O     0.21963  -0.00000   0.83755   0.00000  Uiso   1.00
O261   O     0.25000  -0.00000   0.75000   0.00000  Uiso   1.00
O262   O     0.28036  -0.00000   0.16245   0.00000  Uiso   1.00
O263   O     0.20724   0.07307   0.27302   0.00000  Uiso   1.00
O264   O     0.29275   0.42692   0.72698   0.00000  Uiso   1.00
O265   O     0.42692   0.20724   0.27302   0.00000  Uiso   1.00
O266   O     0.07307   0.29275   0.72698   0.00000  Uiso   1.00
O267   O     0.29275   0.42692   0.27302   0.00000  Uiso   1.00
O268   O     0.20724   0.07307   0.72698   0.00000  Uiso   1.00
O269   O     0.07307   0.29275   0.27302   0.00000  Uiso   1.00
O270   O     0.42692   0.20724   0.72698   0.00000  Uiso   1.00
O271   O     0.20724   0.42692   0.72698   0.00000  Uiso   1.00
O272   O    -0.00000   0.25000   0.25000   0.00000  Uiso   1.00
O273   O     0.29275   0.07307   0.27302   0.00000  Uiso   1.00
O274   O     0.42692   0.29275   0.72698   0.00000  Uiso   1.00
O275   O     0.07307   0.20724   0.27302   0.00000  Uiso   1.00
O276   O     0.29275   0.07307   0.72698   0.00000  Uiso   1.00
O277   O     0.20724   0.42692   0.27302   0.00000  Uiso   1.00
O278   O     0.07307   0.20724   0.72698   0.00000  Uiso   1.00
O279   O     0.42692   0.29275   0.27302   0.00000  Uiso   1.00
O280   O     0.45724   0.32307   0.77302   0.00000  Uiso   1.00
O281   O     0.04275   0.17692   0.22698   0.00000  Uiso   1.00
O282   O     0.17692   0.45724   0.77302   0.00000  Uiso   1.00
O283   O    -0.00000   0.25000   0.75000   0.00000  Uiso   1.00
O284   O     0.32307   0.04275   0.22698   0.00000  Uiso   1.00
O285   O     0.04275   0.17692   0.77302   0.00000  Uiso   1.00
O286   O     0.45724   0.32307   0.22698   0.00000  Uiso   1.00
O287   O     0.32307   0.04275   0.77302   0.00000  Uiso   1.00
O288   O     0.17692   0.45724   0.22698   0.00000  Uiso   1.00
O289   O     0.45724   0.17692   0.22698   0.00000  Uiso   1.00
O290   O     0.04275   0.32307   0.77302   0.00000  Uiso   1.00
O291   O     0.17692   0.04275   0.22698   0.00000  Uiso   1.00
O292   O     0.32307   0.45724   0.77302   0.00000  Uiso   1.00
O293   O     0.04275   0.32307   0.22698   0.00000  Uiso   1.00
O294   O     0.25000   0.46963   0.33755   0.00000  Uiso   1.00
O295   O     0.45724   0.17692   0.77302   0.00000  Uiso   1.00
O296   O     0.32307   0.45724   0.22698   0.00000  Uiso   1.00
O297   O     0.17692   0.04275   0.77302   0.00000  Uiso   1.00
O298   O     0.45589   0.12878   0.46137   0.00000  Uiso   1.00
O299   O     0.01083   0.14168   0.43362   0.00000  Uiso   1.00
O300   O     0.48919   0.35923   0.55889   0.00000  Uiso   1.00
O301   O     0.04690   0.37402   0.53984   0.00000  Uiso   1.00
O302   O     0.35921   0.48908   0.44109   0.00000  Uiso   1.00
O303   O     0.37407   0.04678   0.46016   0.00000  Uiso   1.00
O304   O     0.12873   0.45602   0.53863   0.00000  Uiso   1.00
O305   O     0.25000   0.03036   0.66245   0.00000  Uiso   1.00
O306   O     0.14168   0.01096   0.56636   0.00000  Uiso   1.00
O307   O     0.04412   0.37122   0.46137   0.00000  Uiso   1.00
O308   O     0.48918   0.35832   0.43362   0.00000  Uiso   1.00
O309   O     0.01084   0.14078   0.55890   0.00000  Uiso   1.00
O310   O     0.45313   0.12596   0.53984   0.00000  Uiso   1.00
O311   O     0.14079   0.01091   0.44109   0.00000  Uiso   1.00
O312   O     0.12593   0.45322   0.46016   0.00000  Uiso   1.00
O313   O     0.37127   0.04398   0.53863   0.00000  Uiso   1.00
O314   O     0.35831   0.48904   0.56636   0.00000  Uiso   1.00
O315   O     0.26823   0.37275   0.96195   0.00000  Uiso   1.00
O316   O     0.03036   0.25000   0.33755   0.00000  Uiso   1.00
O317   O     0.31287   0.40748   0.93426   0.00000  Uiso   1.00
O318   O     0.20175   0.11894   0.03748   0.00000  Uiso   1.00
O319   O     0.25819   0.11241   0.06423   0.00000  Uiso   1.00
O320   O     0.07821   0.17452   0.93928   0.00000  Uiso   1.00
O321   O     0.12585   0.20932   0.96041   0.00000  Uiso   1.00
O322   O     0.37867   0.29317   0.03836   0.00000  Uiso   1.00
O323   O     0.42366   0.32729   0.06616   0.00000  Uiso   1.00
O324   O     0.23175   0.12725   0.96195   0.00000  Uiso   1.00
O325   O     0.18712   0.09251   0.93425   0.00000  Uiso   1.00
O326   O     0.29823   0.38105   0.03748   0.00000  Uiso   1.00
O327   O     0.46963   0.25000   0.66245   0.00000  Uiso   1.00
O328   O     0.24179   0.38759   0.06424   0.00000  Uiso   1.00
O329   O     0.42178   0.32547   0.93928   0.00000  Uiso   1.00
O330   O     0.37414   0.29066   0.96041   0.00000  Uiso   1.00
O331   O     0.12133   0.20683   0.03836   0.00000  Uiso   1.00
O332   O     0.07634   0.17271   0.06616   0.00000  Uiso   1.00
O333   O     0.07442   0.30789   0.41030   0.00000  Uiso   1.00
O334   O     0.03199   0.32209   0.36466   0.00000  Uiso   1.00
O335   O     0.47260   0.17758   0.63145   0.00000  Uiso   1.00
O336   O     0.42490   0.18676   0.59036   0.00000  Uiso   1.00
O337   O     0.17757   0.47264   0.36855   0.00000  Uiso   1.00
O338   O     0.25000   0.03036   0.33755   0.00000  Uiso   1.00
O339   O     0.18671   0.42494   0.40965   0.00000  Uiso   1.00
O340   O     0.30801   0.07433   0.58972   0.00000  Uiso   1.00
O341   O     0.32213   0.03186   0.63535   0.00000  Uiso   1.00
O342   O     0.42558   0.19211   0.41031   0.00000  Uiso   1.00
O343   O     0.46801   0.17791   0.36466   0.00000  Uiso   1.00
O344   O     0.02739   0.32243   0.63144   0.00000  Uiso   1.00
O345   O     0.07511   0.31323   0.59038   0.00000  Uiso   1.00
O346   O     0.32243   0.02736   0.36855   0.00000  Uiso   1.00
O347   O     0.31329   0.07506   0.40965   0.00000  Uiso   1.00
O348   O     0.19199   0.42567   0.58973   0.00000  Uiso   1.00
Zn349  Zn    0.20659  -0.00000   0.21735   0.00000  Uiso   1.00
Zn350  Zn    0.04340   0.25000   0.28265   0.00000  Uiso   1.00
Zn351  Zn    0.25000   0.45659   0.71735   0.00000  Uiso   1.00
Zn352  Zn    0.25000   0.04340   0.28265   0.00000  Uiso   1.00
Zn353  Zn    0.04340   0.25000   0.71735   0.00000  Uiso   1.00
Zn354  Zn    0.45659   0.25000   0.28265   0.00000  Uiso   1.00
Zn355  Zn    0.25000   0.04340   0.71735   0.00000  Uiso   1.00
Zn356  Zn    0.25000   0.45659   0.28265   0.00000  Uiso   1.00
Zn357  Zn    0.29340  -0.00000   0.78265   0.00000  Uiso   1.00
Zn358  Zn   -0.00000   0.20659   0.21735   0.00000  Uiso   1.00
Zn359  Zn   -0.00000   0.29340   0.78265   0.00000  Uiso   1.00
Zn360  Zn    0.29340  -0.00000   0.21735   0.00000  Uiso   1.00
Zn361  Zn    0.20659  -0.00000   0.78265   0.00000  Uiso   1.00
Zn362  Zn   -0.00000   0.29340   0.21735   0.00000  Uiso   1.00
Zn363  Zn   -0.00000   0.20659   0.78265   0.00000  Uiso   1.00
Zn364  Zn    0.45659   0.25000   0.71735   0.00000  Uiso   1.00
C365   C     0.51788   0.27829   0.41857   0.00000  Uiso   1.00
C366   C     0.76610   0.47082   0.08159   0.00000  Uiso   1.00
C367   C     0.71880   0.48739   0.54084   0.00000  Uiso   1.00
C368   C     0.51265   0.28118   0.45917   0.00000  Uiso   1.00
C369   C     0.98810   0.21839   0.54105   0.00000  Uiso   1.00
C370   C     0.71838   0.48812   0.45895   0.00000  Uiso   1.00
C371   C     0.78120   0.01261   0.54084   0.00000  Uiso   1.00
C372   C     0.75636   0.46691   0.95863   0.00000  Uiso   1.00
C373   C     0.73893   0.03183   0.04082   0.00000  Uiso   1.00
C374   C     0.53202   0.23976   0.95902   0.00000  Uiso   1.00
C375   C     0.96798   0.26020   0.04104   0.00000  Uiso   1.00
C376   C     0.74364   0.03309   0.95863   0.00000  Uiso   1.00
C377   C     0.96695   0.25502   0.91826   0.00000  Uiso   1.00
C378   C     0.76106   0.46817   0.04082   0.00000  Uiso   1.00
C379   C     0.96798   0.26023   0.95902   0.00000  Uiso   1.00
C380   C     0.53202   0.23980   0.04104   0.00000  Uiso   1.00
C381   C     0.59800   0.34815   0.24989   0.00000  Uiso   1.00
C382   C     0.90195   0.15200   0.75005   0.00000  Uiso   1.00
C383   C     0.65195   0.09812   0.24988   0.00000  Uiso   1.00
C384   C     0.84807   0.40188   0.75009   0.00000  Uiso   1.00
C385   C     0.90200   0.15185   0.24989   0.00000  Uiso   1.00
C386   C     0.59805   0.34800   0.75005   0.00000  Uiso   1.00
C387   C     0.84805   0.40188   0.24988   0.00000  Uiso   1.00
C388   C     0.53305   0.24518   0.08179   0.00000  Uiso   1.00
C389   C     0.65193   0.09812   0.75009   0.00000  Uiso   1.00
C390   C     0.59811   0.15194   0.75008   0.00000  Uiso   1.00
C391   C     0.90188   0.34806   0.24988   0.00000  Uiso   1.00
C392   C     0.65185   0.40199   0.75010   0.00000  Uiso   1.00
C393   C     0.84799   0.09807   0.24994   0.00000  Uiso   1.00
C394   C     0.90189   0.34806   0.75008   0.00000  Uiso   1.00
C395   C     0.59812   0.15194   0.24988   0.00000  Uiso   1.00
C396   C     0.84815   0.09801   0.75010   0.00000  Uiso   1.00
C397   C     0.65201   0.40193   0.24994   0.00000  Uiso   1.00
C398   C     0.50000   0.25000   0.47969   0.00000  Uiso   1.00
C399   C     0.75066   0.46665   0.91789   0.00000  Uiso   1.00
C400   C     0.50000   0.25000   0.52060   0.00000  Uiso   1.00
C401   C     0.75000  -0.00000   0.47940   0.00000  Uiso   1.00
C402   C     0.75000  -0.00000   0.52031   0.00000  Uiso   1.00
C403   C     0.75000  -0.00000   0.97923   0.00000  Uiso   1.00
C404   C     0.75000  -0.00000   0.02025   0.00000  Uiso   1.00
C405   C     0.50000   0.25000   0.97954   0.00000  Uiso   1.00
C406   C     0.50000   0.25000   0.02050   0.00000  Uiso   1.00
C407   C     0.98158   0.15006   0.45812   0.00000  Uiso   1.00
C408   C     0.51659   0.35063   0.54078   0.00000  Uiso   1.00
C409   C     0.85064   0.01649   0.45921   0.00000  Uiso   1.00
C410   C     0.73390   0.02918   0.08159   0.00000  Uiso   1.00
C411   C     0.65004   0.48169   0.54188   0.00000  Uiso   1.00
C412   C     0.51843   0.34994   0.45812   0.00000  Uiso   1.00
C413   C     0.98344   0.14937   0.54079   0.00000  Uiso   1.00
C414   C     0.64936   0.48351   0.45921   0.00000  Uiso   1.00
C415   C     0.84996   0.01831   0.54188   0.00000  Uiso   1.00
C416   C     0.78245   0.40290   0.95837   0.00000  Uiso   1.00
C417   C     0.72937   0.10045   0.04073   0.00000  Uiso   1.00
C418   C     0.58865   0.20058   0.95863   0.00000  Uiso   1.00
C419   C     0.91140   0.29932   0.04168   0.00000  Uiso   1.00
C420   C     0.71753   0.09709   0.95837   0.00000  Uiso   1.00
C421   C     0.53305   0.24498   0.91826   0.00000  Uiso   1.00
C422   C     0.77062   0.39955   0.04074   0.00000  Uiso   1.00
C423   C     0.91135   0.29941   0.95863   0.00000  Uiso   1.00
C424   C     0.58860   0.20068   0.04169   0.00000  Uiso   1.00
C425   C     0.54342   0.30338   0.39784   0.00000  Uiso   1.00
C426   C     0.96050   0.19376   0.60318   0.00000  Uiso   1.00
C427   C     0.69374   0.46054   0.39682   0.00000  Uiso   1.00
C428   C     0.80345   0.04333   0.60217   0.00000  Uiso   1.00
C429   C     0.95658   0.19662   0.39784   0.00000  Uiso   1.00
C430   C     0.53949   0.30624   0.60319   0.00000  Uiso   1.00
C431   C     0.80626   0.03946   0.39682   0.00000  Uiso   1.00
C432   C     0.96695   0.25482   0.08179   0.00000  Uiso   1.00
C433   C     0.69655   0.45667   0.60218   0.00000  Uiso   1.00
C434   C     0.75801   0.06759   0.89627   0.00000  Uiso   1.00
C435   C     0.78987   0.44488   0.10322   0.00000  Uiso   1.00
C436   C     0.93144   0.25110   0.89733   0.00000  Uiso   1.00
C437   C     0.56846   0.24924   0.10290   0.00000  Uiso   1.00
C438   C     0.74199   0.43241   0.89627   0.00000  Uiso   1.00
C439   C     0.71013   0.05512   0.10323   0.00000  Uiso   1.00
C440   C     0.56856   0.24890   0.89733   0.00000  Uiso   1.00
C441   C     0.93154   0.25076   0.10291   0.00000  Uiso   1.00
C442   C     0.50000   0.25000   0.39824   0.00000  Uiso   1.00
C443   C     0.50000   0.25000   0.60195   0.00000  Uiso   1.00
C444   C     0.75000  -0.00000   0.39806   0.00000  Uiso   1.00
C445   C     0.98368   0.22068   0.58181   0.00000  Uiso   1.00
C446   C     0.75000  -0.00000   0.60176   0.00000  Uiso   1.00
C447   C     0.75000  -0.00000   0.89787   0.00000  Uiso   1.00
C448   C     0.75000   0.00000   0.10176   0.00000  Uiso   1.00
C449   C     0.50000   0.25000   0.89808   0.00000  Uiso   1.00
C450   C     0.50000   0.25000   0.10195   0.00000  Uiso   1.00
C451   C     0.98159   0.18548   0.47945   0.00000  Uiso   1.00
C452   C     0.51773   0.31480   0.52036   0.00000  Uiso   1.00
C453   C     0.81482   0.01767   0.47964   0.00000  Uiso   1.00
C454   C     0.68546   0.48165   0.52055   0.00000  Uiso   1.00
C455   C     0.51842   0.31452   0.47945   0.00000  Uiso   1.00
C456   C     0.72067   0.48370   0.41819   0.00000  Uiso   1.00
C457   C     0.98228   0.18520   0.52036   0.00000  Uiso   1.00
C458   C     0.68518   0.48233   0.47964   0.00000  Uiso   1.00
C459   C     0.81454   0.01834   0.52055   0.00000  Uiso   1.00
C460   C     0.76727   0.43510   0.97922   0.00000  Uiso   1.00
C461   C     0.73241   0.06484   0.02011   0.00000  Uiso   1.00
C462   C     0.56143   0.22341   0.97957   0.00000  Uiso   1.00
C463   C     0.93855   0.27655   0.02055   0.00000  Uiso   1.00
C464   C     0.73272   0.06490   0.97922   0.00000  Uiso   1.00
C465   C     0.76758   0.43516   0.02011   0.00000  Uiso   1.00
C466   C     0.93856   0.27658   0.97957   0.00000  Uiso   1.00
C467   C     0.77832   0.01784   0.58143   0.00000  Uiso   1.00
C468   C     0.56145   0.22345   0.02055   0.00000  Uiso   1.00
C469   C     0.75000  -0.00000   0.35574   0.00000  Uiso   1.00
C470   C     0.75000  -0.00000   0.64418   0.00000  Uiso   1.00
C471   C     0.50000   0.25000   0.35583   0.00000  Uiso   1.00
C472   C     0.50000   0.25000   0.64426   0.00000  Uiso   1.00
C473   C     0.50000   0.25000   0.85575   0.00000  Uiso   1.00
C474   C     0.50000   0.25000   0.14425   0.00000  Uiso   1.00
C475   C     0.75000  -0.00000   0.85567   0.00000  Uiso   1.00
C476   C     0.75000  -0.00000   0.14420   0.00000  Uiso   1.00
C477   C     0.68000   0.07004   0.24996   0.00000  Uiso   1.00
C478   C     0.98212   0.22171   0.41857   0.00000  Uiso   1.00
C479   C     0.82001   0.42996   0.75003   0.00000  Uiso   1.00
C480   C     0.93006   0.17996   0.25004   0.00000  Uiso   1.00
C481   C     0.57000   0.31994   0.75004   0.00000  Uiso   1.00
C482   C     0.82000   0.42996   0.24996   0.00000  Uiso   1.00
C483   C     0.67999   0.07004   0.75003   0.00000  Uiso   1.00
C484   C     0.56994   0.32004   0.25004   0.00000  Uiso   1.00
C485   C     0.93000   0.18005   0.75004   0.00000  Uiso   1.00
C486   C     0.67996   0.43005   0.74997   0.00000  Uiso   1.00
C487   C     0.81993   0.07002   0.24995   0.00000  Uiso   1.00
C488   C     0.92996   0.32000   0.75003   0.00000  Uiso   1.00
C489   C     0.51632   0.27932   0.58181   0.00000  Uiso   1.00
C490   C     0.57004   0.17999   0.24996   0.00000  Uiso   1.00
C491   C     0.82003   0.06995   0.74997   0.00000  Uiso   1.00
C492   C     0.68007   0.42998   0.24995   0.00000  Uiso   1.00
C493   C     0.57004   0.18000   0.75003   0.00000  Uiso   1.00
C494   C     0.92996   0.32001   0.24996   0.00000  Uiso   1.00
C495   C     0.61881   0.40840   0.26913   0.00000  Uiso   1.00
C496   C     0.88159   0.09149   0.73133   0.00000  Uiso   1.00
C497   C     0.58801   0.11491   0.25341   0.00000  Uiso   1.00
C498   C     0.91203   0.38508   0.74672   0.00000  Uiso   1.00
C499   C     0.88119   0.09160   0.26913   0.00000  Uiso   1.00
C500   C     0.77933   0.01630   0.41819   0.00000  Uiso   1.00
C501   C     0.61841   0.40851   0.73133   0.00000  Uiso   1.00
C502   C     0.91199   0.38509   0.25341   0.00000  Uiso   1.00
C503   C     0.58797   0.11492   0.74673   0.00000  Uiso   1.00
C504   C     0.61490   0.08799   0.74675   0.00000  Uiso   1.00
C505   C     0.88506   0.41202   0.25342   0.00000  Uiso   1.00
C506   C     0.59156   0.38124   0.73093   0.00000  Uiso   1.00
C507   C     0.90847   0.11844   0.26875   0.00000  Uiso   1.00
C508   C     0.88510   0.41201   0.74674   0.00000  Uiso   1.00
C509   C     0.61494   0.08798   0.25342   0.00000  Uiso   1.00
C510   C     0.90844   0.11876   0.73093   0.00000  Uiso   1.00
C511   C     0.72168   0.48216   0.58143   0.00000  Uiso   1.00
C512   C     0.59153   0.38156   0.26875   0.00000  Uiso   1.00
C513   C     0.86882   0.15828   0.76947   0.00000  Uiso   1.00
C514   C     0.63116   0.34174   0.23054   0.00000  Uiso   1.00
C515   C     0.83793   0.36486   0.75354   0.00000  Uiso   1.00
C516   C     0.66207   0.13512   0.24619   0.00000  Uiso   1.00
C517   C     0.63118   0.34172   0.76947   0.00000  Uiso   1.00
C518   C     0.86884   0.15826   0.23054   0.00000  Uiso   1.00
C519   C     0.66207   0.13514   0.75354   0.00000  Uiso   1.00
C520   C     0.83793   0.36488   0.24619   0.00000  Uiso   1.00
C521   C     0.86487   0.33794   0.24620   0.00000  Uiso   1.00
C522   C     0.74933   0.03335   0.91789   0.00000  Uiso   1.00
C523   C     0.63514   0.16208   0.75353   0.00000  Uiso   1.00
C524   C     0.84176   0.13118   0.23045   0.00000  Uiso   1.00
C525   C     0.65829   0.36877   0.76932   0.00000  Uiso   1.00
C526   C     0.63513   0.16206   0.24620   0.00000  Uiso   1.00
C527   C     0.86486   0.33792   0.75353   0.00000  Uiso   1.00
C528   C     0.65824   0.36882   0.23045   0.00000  Uiso   1.00
C529   C     0.84171   0.13123   0.76932   0.00000  Uiso   1.00
C530   C     0.98736   0.21882   0.45917   0.00000  Uiso   1.00
C531   C     0.51191   0.28161   0.54105   0.00000  Uiso   1.00
C532   C     0.78162   0.01188   0.45895   0.00000  Uiso   1.00
Cl533  Cl    0.61168   0.44985   0.29438   0.00000  Uiso   1.00
Cl534  Cl    0.89793   0.45835   0.25973   0.00000  Uiso   1.00
Cl535  Cl    0.55007   0.38841   0.70577   0.00000  Uiso   1.00
Cl536  Cl    0.95066   0.11014   0.29200   0.00000  Uiso   1.00
Cl537  Cl    0.89803   0.45835   0.74074   0.00000  Uiso   1.00
Cl538  Cl    0.60207   0.04165   0.25974   0.00000  Uiso   1.00
Cl539  Cl    0.94993   0.11159   0.70577   0.00000  Uiso   1.00
Cl540  Cl    0.54933   0.38986   0.29200   0.00000  Uiso   1.00
Cl541  Cl    0.86166   0.19965   0.79485   0.00000  Uiso   1.00
Cl542  Cl    0.63828   0.30028   0.20531   0.00000  Uiso   1.00
Cl543  Cl    0.79159   0.35200   0.75982   0.00000  Uiso   1.00
Cl544  Cl    0.88991   0.04926   0.70816   0.00000  Uiso   1.00
Cl545  Cl    0.70838   0.14794   0.23963   0.00000  Uiso   1.00
Cl546  Cl    0.63834   0.30035   0.79486   0.00000  Uiso   1.00
Cl547  Cl    0.86172   0.19972   0.20531   0.00000  Uiso   1.00
Cl548  Cl    0.70841   0.14800   0.75981   0.00000  Uiso   1.00
Cl549  Cl    0.79162   0.35206   0.23964   0.00000  Uiso   1.00
Cl550  Cl    0.85206   0.29162   0.23967   0.00000  Uiso   1.00
Cl551  Cl    0.64801   0.20843   0.75975   0.00000  Uiso   1.00
Cl552  Cl    0.80040   0.13836   0.20506   0.00000  Uiso   1.00
Cl553  Cl    0.69983   0.36147   0.79428   0.00000  Uiso   1.00
Cl554  Cl    0.64794   0.20838   0.23967   0.00000  Uiso   1.00
Cl555  Cl    0.54169   0.10201   0.25964   0.00000  Uiso   1.00
Cl556  Cl    0.85199   0.29157   0.75976   0.00000  Uiso   1.00
Cl557  Cl    0.69960   0.36163   0.20506   0.00000  Uiso   1.00
Cl558  Cl    0.80017   0.13853   0.79428   0.00000  Uiso   1.00
Cl559  Cl    0.95838   0.39799   0.74062   0.00000  Uiso   1.00
Cl560  Cl    0.88832   0.05015   0.29438   0.00000  Uiso   1.00
Cl561  Cl    0.61009   0.45074   0.70816   0.00000  Uiso   1.00
Cl562  Cl    0.95831   0.39799   0.25963   0.00000  Uiso   1.00
Cl563  Cl    0.54161   0.10201   0.74063   0.00000  Uiso   1.00
Cl564  Cl    0.60196   0.04165   0.74075   0.00000  Uiso   1.00
H565   H     0.50763   0.11717   0.42027   0.00000  Uiso   1.00
H566   H     0.75296   0.13678   0.07706   0.00000  Uiso   1.00
H567   H     0.64145   0.19187   0.94474   0.00000  Uiso   1.00
H568   H     0.90284   0.34060   0.07937   0.00000  Uiso   1.00
H569   H     0.67937   0.11617   0.92140   0.00000  Uiso   1.00
H570   H     0.74702   0.36323   0.07707   0.00000  Uiso   1.00
H571   H     0.85854   0.30811   0.94474   0.00000  Uiso   1.00
H572   H     0.59716   0.15940   0.07937   0.00000  Uiso   1.00
H573   H     0.55213   0.33794   0.35339   0.00000  Uiso   1.00
H574   H     0.91185   0.16786   0.60692   0.00000  Uiso   1.00
H575   H     0.66780   0.41190   0.39309   0.00000  Uiso   1.00
H576   H     0.54281   0.39733   0.55513   0.00000  Uiso   1.00
H577   H     0.83803   0.05196   0.64662   0.00000  Uiso   1.00
H578   H     0.94787   0.16206   0.35340   0.00000  Uiso   1.00
H579   H     0.58816   0.33213   0.60694   0.00000  Uiso   1.00
H580   H     0.83220   0.08810   0.39309   0.00000  Uiso   1.00
H581   H     0.66197   0.44804   0.64663   0.00000  Uiso   1.00
H582   H     0.74641   0.10096   0.85133   0.00000  Uiso   1.00
H583   H     0.79493   0.40901   0.14739   0.00000  Uiso   1.00
H584   H     0.88127   0.22798   0.89631   0.00000  Uiso   1.00
H585   H     0.59978   0.23533   0.14877   0.00000  Uiso   1.00
H586   H     0.75360   0.39904   0.85133   0.00000  Uiso   1.00
H587   H     0.89737   0.04266   0.44487   0.00000  Uiso   1.00
H588   H     0.70508   0.09099   0.14739   0.00000  Uiso   1.00
H589   H     0.61874   0.27201   0.89631   0.00000  Uiso   1.00
H590   H     0.90022   0.26467   0.14878   0.00000  Uiso   1.00
H591   H     0.61717   0.00779   0.57971   0.00000  Uiso   1.00
H592   H     0.99238   0.38283   0.42027   0.00000  Uiso   1.00
H593   H     0.95723   0.10266   0.55513   0.00000  Uiso   1.00
H594   H     0.60263   0.45733   0.44487   0.00000  Uiso   1.00
H595   H     0.88282   0.49221   0.57971   0.00000  Uiso   1.00
H596   H     0.82061   0.38381   0.92141   0.00000  Uiso   1.00
O597   O     0.75000  -0.00000   0.25000   0.00000  Uiso   1.00
O598   O     0.75000   0.46963   0.66245   0.00000  Uiso   1.00
O599   O     0.67787   0.46814   0.63535   0.00000  Uiso   1.00
O600   O     0.78282   0.08744   0.90755   0.00000  Uiso   1.00
O601   O     0.73799   0.07700   0.86318   0.00000  Uiso   1.00
O602   O     0.82159   0.44062   0.09304   0.00000  Uiso   1.00
O603   O     0.77603   0.42557   0.13509   0.00000  Uiso   1.00
O604   O     0.92593   0.26755   0.86700   0.00000  Uiso   1.00
O605   O     0.90419   0.22848   0.91284   0.00000  Uiso   1.00
O606   O     0.59222   0.26937   0.08975   0.00000  Uiso   1.00
O607   O     0.57472   0.23015   0.13742   0.00000  Uiso   1.00
O608   O     0.71717   0.41256   0.90755   0.00000  Uiso   1.00
O609   O     0.96963   0.25000   0.33755   0.00000  Uiso   1.00
O610   O     0.76201   0.42300   0.86319   0.00000  Uiso   1.00
O611   O     0.67841   0.05938   0.09305   0.00000  Uiso   1.00
O612   O     0.72398   0.07444   0.13509   0.00000  Uiso   1.00
O613   O     0.57407   0.23245   0.86700   0.00000  Uiso   1.00
O614   O     0.59581   0.27151   0.91284   0.00000  Uiso   1.00
O615   O     0.90778   0.23064   0.08976   0.00000  Uiso   1.00
O616   O     0.92528   0.26986   0.13742   0.00000  Uiso   1.00
O617   O     0.53036   0.25000   0.66245   0.00000  Uiso   1.00
O618   O     0.50000   0.21963   0.83755   0.00000  Uiso   1.00
O619   O     0.50000   0.28036   0.16245   0.00000  Uiso   1.00
O620   O     0.78036  -0.00000   0.83755   0.00000  Uiso   1.00
O621   O     0.71963  -0.00000   0.16245   0.00000  Uiso   1.00
O622   O     0.50000   0.28036   0.83755   0.00000  Uiso   1.00
O623   O     0.50000   0.21963   0.16245   0.00000  Uiso   1.00
O624   O     0.71963  -0.00000   0.83755   0.00000  Uiso   1.00
O625   O     0.75000  -0.00000   0.75000   0.00000  Uiso   1.00
O626   O     0.78036  -0.00000   0.16245   0.00000  Uiso   1.00
O627   O     0.70724   0.07307   0.27302   0.00000  Uiso   1.00
O628   O     0.79275   0.42692   0.72698   0.00000  Uiso   1.00
O629   O     0.92692   0.20724   0.27302   0.00000  Uiso   1.00
O630   O     0.57307   0.29275   0.72698   0.00000  Uiso   1.00
O631   O     0.79275   0.42692   0.27302   0.00000  Uiso   1.00
O632   O     0.70724   0.07307   0.72698   0.00000  Uiso   1.00
O633   O     0.57307   0.29275   0.27302   0.00000  Uiso   1.00
O634   O     0.92692   0.20724   0.72698   0.00000  Uiso   1.00
O635   O     0.70724   0.42692   0.72698   0.00000  Uiso   1.00
O636   O     0.50000   0.25000   0.25000   0.00000  Uiso   1.00
O637   O     0.79275   0.07307   0.27302   0.00000  Uiso   1.00
O638   O     0.92692   0.29275   0.72698   0.00000  Uiso   1.00
O639   O     0.57307   0.20724   0.27302   0.00000  Uiso   1.00
O640   O     0.79275   0.07307   0.72698   0.00000  Uiso   1.00
O641   O     0.70724   0.42692   0.27302   0.00000  Uiso   1.00
O642   O     0.57307   0.20724   0.72698   0.00000  Uiso   1.00
O643   O     0.92692   0.29275   0.27302   0.00000  Uiso   1.00
O644   O     0.95724   0.32307   0.77302   0.00000  Uiso   1.00
O645   O     0.54275   0.17692   0.22698   0.00000  Uiso   1.00
O646   O     0.67692   0.45724   0.77302   0.00000  Uiso   1.00
O647   O     0.50000   0.25000   0.75000   0.00000  Uiso   1.00
O648   O     0.82307   0.04275   0.22698   0.00000  Uiso   1.00
O649   O     0.54275   0.17692   0.77302   0.00000  Uiso   1.00
O650   O     0.95724   0.32307   0.22698   0.00000  Uiso   1.00
O651   O     0.82307   0.04275   0.77302   0.00000  Uiso   1.00
O652   O     0.67692   0.45724   0.22698   0.00000  Uiso   1.00
O653   O     0.95724   0.17692   0.22698   0.00000  Uiso   1.00
O654   O     0.54275   0.32307   0.77302   0.00000  Uiso   1.00
O655   O     0.67692   0.04275   0.22698   0.00000  Uiso   1.00
O656   O     0.82307   0.45724   0.77302   0.00000  Uiso   1.00
O657   O     0.54275   0.32307   0.22698   0.00000  Uiso   1.00
O658   O     0.75000   0.46963   0.33755   0.00000  Uiso   1.00
O659   O     0.95724   0.17692   0.77302   0.00000  Uiso   1.00
O660   O     0.82307   0.45724   0.22698   0.00000  Uiso   1.00
O661   O     0.67692   0.04275   0.77302   0.00000  Uiso   1.00
O662   O     0.95589   0.12878   0.46137   0.00000  Uiso   1.00
O663   O     0.51083   0.14168   0.43362   0.00000  Uiso   1.00
O664   O     0.98919   0.35923   0.55889   0.00000  Uiso   1.00
O665   O     0.54690   0.37402   0.53984   0.00000  Uiso   1.00
O666   O     0.85921   0.48908   0.44109   0.00000  Uiso   1.00
O667   O     0.87407   0.04678   0.46016   0.00000  Uiso   1.00
O668   O     0.62873   0.45602   0.53863   0.00000  Uiso   1.00
O669   O     0.75000   0.03036   0.66245   0.00000  Uiso   1.00
O670   O     0.64168   0.01096   0.56636   0.00000  Uiso   1.00
O671   O     0.54412   0.37122   0.46137   0.00000  Uiso   1.00
O672   O     0.98918   0.35832   0.43362   0.00000  Uiso   1.00
O673   O     0.51084   0.14078   0.55890   0.00000  Uiso   1.00
O674   O     0.95313   0.12596   0.53984   0.00000  Uiso   1.00
O675   O     0.64079   0.01091   0.44109   0.00000  Uiso   1.00
O676   O     0.62593   0.45322   0.46016   0.00000  Uiso   1.00
O677   O     0.87127   0.04398   0.53863   0.00000  Uiso   1.00
O678   O     0.85831   0.48904   0.56636   0.00000  Uiso   1.00
O679   O     0.76823   0.37275   0.96195   0.00000  Uiso   1.00
O680   O     0.53036   0.25000   0.33755   0.00000  Uiso   1.00
O681   O     0.81287   0.40748   0.93426   0.00000  Uiso   1.00
O682   O     0.70175   0.11894   0.03748   0.00000  Uiso   1.00
O683   O     0.75819   0.11241   0.06423   0.00000  Uiso   1.00
O684   O     0.57821   0.17452   0.93928   0.00000  Uiso   1.00
O685   O     0.62585   0.20932   0.96041   0.00000  Uiso   1.00
O686   O     0.87867   0.29317   0.03836   0.00000  Uiso   1.00
O687   O     0.92366   0.32729   0.06616   0.00000  Uiso   1.00
O688   O     0.73175   0.12725   0.96195   0.00000  Uiso   1.00
O689   O     0.68712   0.09251   0.93425   0.00000  Uiso   1.00
O690   O     0.79823   0.38105   0.03748   0.00000  Uiso   1.00
O691   O     0.96963   0.25000   0.66245   0.00000  Uiso   1.00
O692   O     0.74179   0.38759   0.06424   0.00000  Uiso   1.00
O693   O     0.92178   0.32547   0.93928   0.00000  Uiso   1.00
O694   O     0.87414   0.29066   0.96041   0.00000  Uiso   1.00
O695   O     0.62133   0.20683   0.03836   0.00000  Uiso   1.00
O696   O     0.57634   0.17271   0.06616   0.00000  Uiso   1.00
O697   O     0.57442   0.30789   0.41030   0.00000  Uiso   1.00
O698   O     0.53199   0.32209   0.36466   0.00000  Uiso   1.00
O699   O     0.97260   0.17758   0.63145   0.00000  Uiso   1.00
O700   O     0.92490   0.18676   0.59036   0.00000  Uiso   1.00
O701   O     0.67757   0.47264   0.36855   0.00000  Uiso   1.00
O702   O     0.75000   0.03036   0.33755   0.00000  Uiso   1.00
O703   O     0.68671   0.42494   0.40965   0.00000  Uiso   1.00
O704   O     0.80801   0.07433   0.58972   0.00000  Uiso   1.00
O705   O     0.82213   0.03186   0.63535   0.00000  Uiso   1.00
O706   O     0.92558   0.19211   0.41031   0.00000  Uiso   1.00
O707   O     0.96801   0.17791   0.36466   0.00000  Uiso   1.00
O708   O     0.52739   0.32243   0.63144   0.00000  Uiso   1.00
O709   O     0.57511   0.31323   0.59038   0.00000  Uiso   1.00
O710   O     0.82243   0.02736   0.36855   0.00000  Uiso   1.00
O711   O     0.81329   0.07506   0.40965   0.00000  Uiso   1.00
O712   O     0.69199   0.42567   0.58973   0.00000  Uiso   1.00
Zn713  Zn    0.70659  -0.00000   0.21735   0.00000  Uiso   1.00
Zn714  Zn    0.54340   0.25000   0.28265   0.00000  Uiso   1.00
Zn715  Zn    0.75000   0.45659   0.71735   0.00000  Uiso   1.00
Zn716  Zn    0.75000   0.04340   0.28265   0.00000  Uiso   1.00
Zn717  Zn    0.54340   0.25000   0.71735   0.00000  Uiso   1.00
Zn718  Zn    0.95659   0.25000   0.28265   0.00000  Uiso   1.00
Zn719  Zn    0.75000   0.04340   0.71735   0.00000  Uiso   1.00
Zn720  Zn    0.75000   0.45659   0.28265   0.00000  Uiso   1.00
Zn721  Zn    0.79340  -0.00000   0.78265   0.00000  Uiso   1.00
Zn722  Zn    0.50000   0.20659   0.21735   0.00000  Uiso   1.00
Zn723  Zn    0.50000   0.29340   0.78265   0.00000  Uiso   1.00
Zn724  Zn    0.79340  -0.00000   0.21735   0.00000  Uiso   1.00
Zn725  Zn    0.70659  -0.00000   0.78265   0.00000  Uiso   1.00
Zn726  Zn    0.50000   0.29340   0.21735   0.00000  Uiso   1.00
Zn727  Zn    0.50000   0.20659   0.78265   0.00000  Uiso   1.00
Zn728  Zn    0.95659   0.25000   0.71735   0.00000  Uiso   1.00
C729   C     0.01788   0.77829   0.41857   0.00000  Uiso   1.00
C730   C     0.26610   0.97082   0.08159   0.00000  Uiso   1.00
C731   C     0.21880   0.98739   0.54084   0.00000  Uiso   1.00
C732   C     0.01265   0.78118   0.45917   0.00000  Uiso   1.00
C733   C     0.48810   0.71839   0.54105   0.00000  Uiso   1.00
C734   C     0.21838   0.98812   0.45895   0.00000  Uiso   1.00
C735   C     0.28120   0.51261   0.54084   0.00000  Uiso   1.00
C736   C     0.25636   0.96691   0.95863   0.00000  Uiso   1.00
C737   C     0.23893   0.53183   0.04082   0.00000  Uiso   1.00
C738   C     0.03202   0.73976   0.95902   0.00000  Uiso   1.00
C739   C     0.46798   0.76020   0.04104   0.00000  Uiso   1.00
C740   C     0.24364   0.53309   0.95863   0.00000  Uiso   1.00
C741   C     0.46695   0.75502   0.91826   0.00000  Uiso   1.00
C742   C     0.26106   0.96817   0.04082   0.00000  Uiso   1.00
C743   C     0.46798   0.76023   0.95902   0.00000  Uiso   1.00
C744   C     0.03202   0.73980   0.04104   0.00000  Uiso   1.00
C745   C     0.09800   0.84815   0.24989   0.00000  Uiso   1.00
C746   C     0.40195   0.65200   0.75005   0.00000  Uiso   1.00
C747   C     0.15195   0.59812   0.24988   0.00000  Uiso   1.00
C748   C     0.34807   0.90188   0.75009   0.00000  Uiso   1.00
C749   C     0.40200   0.65185   0.24989   0.00000  Uiso   1.00
C750   C     0.09805   0.84800   0.75005   0.00000  Uiso   1.00
C751   C     0.34805   0.90188   0.24988   0.00000  Uiso   1.00
C752   C     0.03305   0.74518   0.08179   0.00000  Uiso   1.00
C753   C     0.15193   0.59812   0.75009   0.00000  Uiso   1.00
C754   C     0.09811   0.65194   0.75008   0.00000  Uiso   1.00
C755   C     0.40188   0.84806   0.24988   0.00000  Uiso   1.00
C756   C     0.15185   0.90199   0.75010   0.00000  Uiso   1.00
C757   C     0.34799   0.59807   0.24994   0.00000  Uiso   1.00
C758   C     0.40189   0.84806   0.75008   0.00000  Uiso   1.00
C759   C     0.09812   0.65194   0.24988   0.00000  Uiso   1.00
C760   C     0.34815   0.59801   0.75010   0.00000  Uiso   1.00
C761   C     0.15201   0.90193   0.24994   0.00000  Uiso   1.00
C762   C     0.00000   0.75000   0.47969   0.00000  Uiso   1.00
C763   C     0.25066   0.96665   0.91789   0.00000  Uiso   1.00
C764   C     0.00000   0.75000   0.52060   0.00000  Uiso   1.00
C765   C     0.25000   0.50000   0.47940   0.00000  Uiso   1.00
C766   C     0.25000   0.50000   0.52031   0.00000  Uiso   1.00
C767   C     0.25000   0.50000   0.97923   0.00000  Uiso   1.00
C768   C     0.25000   0.50000   0.02025   0.00000  Uiso   1.00
C769   C    -0.00000   0.75000   0.97954   0.00000  Uiso   1.00
C770   C    -0.00000   0.75000   0.02050   0.00000  Uiso   1.00
C771   C     0.48158   0.65006   0.45812   0.00000  Uiso   1.00
C772   C     0.01659   0.85063   0.54078   0.00000  Uiso   1.00
C773   C     0.35064   0.51649   0.45921   0.00000  Uiso   1.00
C774   C     0.23390   0.52918   0.08159   0.00000  Uiso   1.00
C775   C     0.15004   0.98169   0.54188   0.00000  Uiso   1.00
C776   C     0.01843   0.84994   0.45812   0.00000  Uiso   1.00
C777   C     0.48344   0.64937   0.54079   0.00000  Uiso   1.00
C778   C     0.14936   0.98351   0.45921   0.00000  Uiso   1.00
C779   C     0.34996   0.51831   0.54188   0.00000  Uiso   1.00
C780   C     0.28245   0.90290   0.95837   0.00000  Uiso   1.00
C781   C     0.22937   0.60045   0.04073   0.00000  Uiso   1.00
C782   C     0.08865   0.70058   0.95863   0.00000  Uiso   1.00
C783   C     0.41140   0.79932   0.04168   0.00000  Uiso   1.00
C784   C     0.21753   0.59709   0.95837   0.00000  Uiso   1.00
C785   C     0.03305   0.74498   0.91826   0.00000  Uiso   1.00
C786   C     0.27062   0.89955   0.04074   0.00000  Uiso   1.00
C787   C     0.41135   0.79941   0.95863   0.00000  Uiso   1.00
C788   C     0.08860   0.70068   0.04169   0.00000  Uiso   1.00
C789   C     0.04342   0.80338   0.39784   0.00000  Uiso   1.00
C790   C     0.46050   0.69376   0.60318   0.00000  Uiso   1.00
C791   C     0.19374   0.96054   0.39682   0.00000  Uiso   1.00
C792   C     0.30345   0.54333   0.60217   0.00000  Uiso   1.00
C793   C     0.45658   0.69662   0.39784   0.00000  Uiso   1.00
C794   C     0.03949   0.80624   0.60319   0.00000  Uiso   1.00
C795   C     0.30626   0.53946   0.39682   0.00000  Uiso   1.00
C796   C     0.46695   0.75482   0.08179   0.00000  Uiso   1.00
C797   C     0.19655   0.95667   0.60218   0.00000  Uiso   1.00
C798   C     0.25801   0.56759   0.89627   0.00000  Uiso   1.00
C799   C     0.28987   0.94488   0.10322   0.00000  Uiso   1.00
C800   C     0.43144   0.75110   0.89733   0.00000  Uiso   1.00
C801   C     0.06846   0.74924   0.10290   0.00000  Uiso   1.00
C802   C     0.24199   0.93241   0.89627   0.00000  Uiso   1.00
C803   C     0.21013   0.55512   0.10323   0.00000  Uiso   1.00
C804   C     0.06856   0.74890   0.89733   0.00000  Uiso   1.00
C805   C     0.43154   0.75076   0.10291   0.00000  Uiso   1.00
C806   C     0.00000   0.75000   0.39824   0.00000  Uiso   1.00
C807   C     0.00000   0.75000   0.60195   0.00000  Uiso   1.00
C808   C     0.25000   0.50000   0.39806   0.00000  Uiso   1.00
C809   C     0.48368   0.72068   0.58181   0.00000  Uiso   1.00
C810   C     0.25000   0.50000   0.60176   0.00000  Uiso   1.00
C811   C     0.25000   0.50000   0.89787   0.00000  Uiso   1.00
C812   C     0.25000   0.50000   0.10176   0.00000  Uiso   1.00
C813   C    -0.00000   0.75000   0.89808   0.00000  Uiso   1.00
C814   C    -0.00000   0.75000   0.10195   0.00000  Uiso   1.00
C815   C     0.48159   0.68548   0.47945   0.00000  Uiso   1.00
C816   C     0.01773   0.81480   0.52036   0.00000  Uiso   1.00
C817   C     0.31482   0.51767   0.47964   0.00000  Uiso   1.00
C818   C     0.18546   0.98165   0.52055   0.00000  Uiso   1.00
C819   C     0.01842   0.81452   0.47945   0.00000  Uiso   1.00
C820   C     0.22067   0.98370   0.41819   0.00000  Uiso   1.00
C821   C     0.48228   0.68520   0.52036   0.00000  Uiso   1.00
C822   C     0.18518   0.98233   0.47964   0.00000  Uiso   1.00
C823   C     0.31454   0.51834   0.52055   0.00000  Uiso   1.00
C824   C     0.26727   0.93510   0.97922   0.00000  Uiso   1.00
C825   C     0.23241   0.56484   0.02011   0.00000  Uiso   1.00
C826   C     0.06143   0.72341   0.97957   0.00000  Uiso   1.00
C827   C     0.43855   0.77655   0.02055   0.00000  Uiso   1.00
C828   C     0.23272   0.56490   0.97922   0.00000  Uiso   1.00
C829   C     0.26758   0.93516   0.02011   0.00000  Uiso   1.00
C830   C     0.43856   0.77658   0.97957   0.00000  Uiso   1.00
C831   C     0.27832   0.51784   0.58143   0.00000  Uiso   1.00
C832   C     0.06145   0.72345   0.02055   0.00000  Uiso   1.00
C833   C     0.25000   0.50000   0.35574   0.00000  Uiso   1.00
C834   C     0.25000   0.50000   0.64418   0.00000  Uiso   1.00
C835   C    -0.00000   0.75000   0.35583   0.00000  Uiso   1.00
C836   C    -0.00000   0.75000   0.64426   0.00000  Uiso   1.00
C837   C    -0.00000   0.75000   0.85575   0.00000  Uiso   1.00
C838   C    -0.00000   0.75000   0.14425   0.00000  Uiso   1.00
C839   C     0.25000   0.50000   0.85567   0.00000  Uiso   1.00
C840   C     0.25000   0.50000   0.14420   0.00000  Uiso   1.00
C841   C     0.18000   0.57004   0.24996   0.00000  Uiso   1.00
C842   C     0.48212   0.72171   0.41857   0.00000  Uiso   1.00
C843   C     0.32001   0.92996   0.75003   0.00000  Uiso   1.00
C844   C     0.43006   0.67996   0.25004   0.00000  Uiso   1.00
C845   C     0.07000   0.81994   0.75004   0.00000  Uiso   1.00
C846   C     0.32000   0.92996   0.24996   0.00000  Uiso   1.00
C847   C     0.17999   0.57004   0.75003   0.00000  Uiso   1.00
C848   C     0.06994   0.82004   0.25004   0.00000  Uiso   1.00
C849   C     0.43000   0.68005   0.75004   0.00000  Uiso   1.00
C850   C     0.17996   0.93005   0.74997   0.00000  Uiso   1.00
C851   C     0.31993   0.57002   0.24995   0.00000  Uiso   1.00
C852   C     0.42996   0.82000   0.75003   0.00000  Uiso   1.00
C853   C     0.01632   0.77932   0.58181   0.00000  Uiso   1.00
C854   C     0.07004   0.67999   0.24996   0.00000  Uiso   1.00
C855   C     0.32003   0.56995   0.74997   0.00000  Uiso   1.00
C856   C     0.18007   0.92998   0.24995   0.00000  Uiso   1.00
C857   C     0.07004   0.68000   0.75003   0.00000  Uiso   1.00
C858   C     0.42996   0.82001   0.24996   0.00000  Uiso   1.00
C859   C     0.11881   0.90840   0.26913   0.00000  Uiso   1.00
C860   C     0.38159   0.59149   0.73133   0.00000  Uiso   1.00
C861   C     0.08801   0.61491   0.25341   0.00000  Uiso   1.00
C862   C     0.41203   0.88508   0.74672   0.00000  Uiso   1.00
C863   C     0.38119   0.59160   0.26913   0.00000  Uiso   1.00
C864   C     0.27933   0.51630   0.41819   0.00000  Uiso   1.00
C865   C     0.11841   0.90851   0.73133   0.00000  Uiso   1.00
C866   C     0.41199   0.88509   0.25341   0.00000  Uiso   1.00
C867   C     0.08797   0.61492   0.74673   0.00000  Uiso   1.00
C868   C     0.11490   0.58799   0.74675   0.00000  Uiso   1.00
C869   C     0.38506   0.91202   0.25342   0.00000  Uiso   1.00
C870   C     0.09156   0.88124   0.73093   0.00000  Uiso   1.00
C871   C     0.40847   0.61844   0.26875   0.00000  Uiso   1.00
C872   C     0.38510   0.91201   0.74674   0.00000  Uiso   1.00
C873   C     0.11494   0.58798   0.25342   0.00000  Uiso   1.00
C874   C     0.40844   0.61876   0.73093   0.00000  Uiso   1.00
C875   C     0.22168   0.98216   0.58143   0.00000  Uiso   1.00
C876   C     0.09153   0.88156   0.26875   0.00000  Uiso   1.00
C877   C     0.36882   0.65828   0.76947   0.00000  Uiso   1.00
C878   C     0.13116   0.84174   0.23054   0.00000  Uiso   1.00
C879   C     0.33793   0.86486   0.75354   0.00000  Uiso   1.00
C880   C     0.16207   0.63512   0.24619   0.00000  Uiso   1.00
C881   C     0.13118   0.84172   0.76947   0.00000  Uiso   1.00
C882   C     0.36884   0.65826   0.23054   0.00000  Uiso   1.00
C883   C     0.16207   0.63514   0.75354   0.00000  Uiso   1.00
C884   C     0.33793   0.86488   0.24619   0.00000  Uiso   1.00
C885   C     0.36487   0.83794   0.24620   0.00000  Uiso   1.00
C886   C     0.24933   0.53335   0.91789   0.00000  Uiso   1.00
C887   C     0.13514   0.66208   0.75353   0.00000  Uiso   1.00
C888   C     0.34176   0.63118   0.23045   0.00000  Uiso   1.00
C889   C     0.15829   0.86877   0.76932   0.00000  Uiso   1.00
C890   C     0.13513   0.66206   0.24620   0.00000  Uiso   1.00
C891   C     0.36486   0.83792   0.75353   0.00000  Uiso   1.00
C892   C     0.15824   0.86882   0.23045   0.00000  Uiso   1.00
C893   C     0.34171   0.63123   0.76932   0.00000  Uiso   1.00
C894   C     0.48736   0.71882   0.45917   0.00000  Uiso   1.00
C895   C     0.01191   0.78161   0.54105   0.00000  Uiso   1.00
C896   C     0.28162   0.51188   0.45895   0.00000  Uiso   1.00
Cl897  Cl    0.11168   0.94985   0.29438   0.00000  Uiso   1.00
Cl898  Cl    0.39793   0.95835   0.25973   0.00000  Uiso   1.00
Cl899  Cl    0.05007   0.88841   0.70577   0.00000  Uiso   1.00
Cl900  Cl    0.45066   0.61014   0.29200   0.00000  Uiso   1.00
Cl901  Cl    0.39803   0.95835   0.74074   0.00000  Uiso   1.00
Cl902  Cl    0.10207   0.54165   0.25974   0.00000  Uiso   1.00
Cl903  Cl    0.44993   0.61159   0.70577   0.00000  Uiso   1.00
Cl904  Cl    0.04933   0.88986   0.29200   0.00000  Uiso   1.00
Cl905  Cl    0.36166   0.69965   0.79485   0.00000  Uiso   1.00
Cl906  Cl    0.13828   0.80028   0.20531   0.00000  Uiso   1.00
Cl907  Cl    0.29159   0.85200   0.75982   0.00000  Uiso   1.00
Cl908  Cl    0.38991   0.54926   0.70816   0.00000  Uiso   1.00
Cl909  Cl    0.20838   0.64794   0.23963   0.00000  Uiso   1.00
Cl910  Cl    0.13834   0.80035   0.79486   0.00000  Uiso   1.00
Cl911  Cl    0.36172   0.69972   0.20531   0.00000  Uiso   1.00
Cl912  Cl    0.20841   0.64800   0.75981   0.00000  Uiso   1.00
Cl913  Cl    0.29162   0.85206   0.23964   0.00000  Uiso   1.00
Cl914  Cl    0.35206   0.79162   0.23967   0.00000  Uiso   1.00
Cl915  Cl    0.14801   0.70843   0.75975   0.00000  Uiso   1.00
Cl916  Cl    0.30040   0.63836   0.20506   0.00000  Uiso   1.00
Cl917  Cl    0.19983   0.86147   0.79428   0.00000  Uiso   1.00
Cl918  Cl    0.14794   0.70838   0.23967   0.00000  Uiso   1.00
Cl919  Cl    0.04169   0.60201   0.25964   0.00000  Uiso   1.00
Cl920  Cl    0.35199   0.79157   0.75976   0.00000  Uiso   1.00
Cl921  Cl    0.19960   0.86163   0.20506   0.00000  Uiso   1.00
Cl922  Cl    0.30017   0.63853   0.79428   0.00000  Uiso   1.00
Cl923  Cl    0.45838   0.89799   0.74062   0.00000  Uiso   1.00
Cl924  Cl    0.38832   0.55015   0.29438   0.00000  Uiso   1.00
Cl925  Cl    0.11009   0.95074   0.70816   0.00000  Uiso   1.00
Cl926  Cl    0.45831   0.89799   0.25963   0.00000  Uiso   1.00
Cl927  Cl    0.04161   0.60201   0.74063   0.00000  Uiso   1.00
Cl928  Cl    0.10196   0.54165   0.74075   0.00000  Uiso   1.00
H929   H     0.00763   0.61717   0.42027   0.00000  Uiso   1.00
H930   H     0.25296   0.63678   0.07706   0.00000  Uiso   1.00
H931   H     0.14145   0.69187   0.94474   0.00000  Uiso   1.00
H932   H     0.40284   0.84060   0.07937   0.00000  Uiso   1.00
H933   H     0.17937   0.61617   0.92140   0.00000  Uiso   1.00
H934   H     0.24702   0.86323   0.07707   0.00000  Uiso   1.00
H935   H     0.35854   0.80811   0.94474   0.00000  Uiso   1.00
H936   H     0.09716   0.65940   0.07937   0.00000  Uiso   1.00
H937   H     0.05213   0.83794   0.35339   0.00000  Uiso   1.00
H938   H     0.41185   0.66786   0.60692   0.00000  Uiso   1.00
H939   H     0.16780   0.91190   0.39309   0.00000  Uiso   1.00
H940   H     0.04281   0.89733   0.55513   0.00000  Uiso   1.00
H941   H     0.33803   0.55196   0.64662   0.00000  Uiso   1.00
H942   H     0.44787   0.66206   0.35340   0.00000  Uiso   1.00
H943   H     0.08816   0.83213   0.60694   0.00000  Uiso   1.00
H944   H     0.33220   0.58810   0.39309   0.00000  Uiso   1.00
H945   H     0.16197   0.94804   0.64663   0.00000  Uiso   1.00
H946   H     0.24641   0.60096   0.85133   0.00000  Uiso   1.00
H947   H     0.29493   0.90901   0.14739   0.00000  Uiso   1.00
H948   H     0.38127   0.72798   0.89631   0.00000  Uiso   1.00
H949   H     0.09978   0.73533   0.14877   0.00000  Uiso   1.00
H950   H     0.25360   0.89904   0.85133   0.00000  Uiso   1.00
H951   H     0.39737   0.54266   0.44487   0.00000  Uiso   1.00
H952   H     0.20508   0.59099   0.14739   0.00000  Uiso   1.00
H953   H     0.11874   0.77201   0.89631   0.00000  Uiso   1.00
H954   H     0.40022   0.76467   0.14878   0.00000  Uiso   1.00
H955   H     0.11717   0.50779   0.57971   0.00000  Uiso   1.00
H956   H     0.49238   0.88283   0.42027   0.00000  Uiso   1.00
H957   H     0.45723   0.60266   0.55513   0.00000  Uiso   1.00
H958   H     0.10263   0.95733   0.44487   0.00000  Uiso   1.00
H959   H     0.38282   0.99221   0.57971   0.00000  Uiso   1.00
H960   H     0.32061   0.88381   0.92141   0.00000  Uiso   1.00
O961   O     0.25000   0.50000   0.25000   0.00000  Uiso   1.00
O962   O     0.25000   0.96963   0.66245   0.00000  Uiso   1.00
O963   O     0.17787   0.96814   0.63535   0.00000  Uiso   1.00
O964   O     0.28282   0.58744   0.90755   0.00000  Uiso   1.00
O965   O     0.23799   0.57700   0.86318   0.00000  Uiso   1.00
O966   O     0.32159   0.94062   0.09304   0.00000  Uiso   1.00
O967   O     0.27603   0.92557   0.13509   0.00000  Uiso   1.00
O968   O     0.42593   0.76755   0.86700   0.00000  Uiso   1.00
O969   O     0.40419   0.72848   0.91284   0.00000  Uiso   1.00
O970   O     0.09222   0.76937   0.08975   0.00000  Uiso   1.00
O971   O     0.07472   0.73015   0.13742   0.00000  Uiso   1.00
O972   O     0.21717   0.91256   0.90755   0.00000  Uiso   1.00
O973   O     0.46963   0.75000   0.33755   0.00000  Uiso   1.00
O974   O     0.26201   0.92300   0.86319   0.00000  Uiso   1.00
O975   O     0.17841   0.55938   0.09305   0.00000  Uiso   1.00
O976   O     0.22398   0.57444   0.13509   0.00000  Uiso   1.00
O977   O     0.07407   0.73245   0.86700   0.00000  Uiso   1.00
O978   O     0.09581   0.77151   0.91284   0.00000  Uiso   1.00
O979   O     0.40778   0.73064   0.08976   0.00000  Uiso   1.00
O980   O     0.42528   0.76986   0.13742   0.00000  Uiso   1.00
O981   O     0.03036   0.75000   0.66245   0.00000  Uiso   1.00
O982   O    -0.00000   0.71963   0.83755   0.00000  Uiso   1.00
O983   O    -0.00000   0.78036   0.16245   0.00000  Uiso   1.00
O984   O     0.28036   0.50000   0.83755   0.00000  Uiso   1.00
O985   O     0.21963   0.50000   0.16245   0.00000  Uiso   1.00
O986   O    -0.00000   0.78036   0.83755   0.00000  Uiso   1.00
O987   O    -0.00000   0.71963   0.16245   0.00000  Uiso   1.00
O988   O     0.21963   0.50000   0.83755   0.00000  Uiso   1.00
O989   O     0.25000   0.50000   0.75000   0.00000  Uiso   1.00
O990   O     0.28036   0.50000   0.16245   0.00000  Uiso   1.00
O991   O     0.20724   0.57307   0.27302   0.00000  Uiso   1.00
O992   O     0.29275   0.92692   0.72698   0.00000  Uiso   1.00
O993   O     0.42692   0.70724   0.27302   0.00000  Uiso   1.00
O994   O     0.07307   0.79275   0.72698   0.00000  Uiso   1.00
O995   O     0.29275   0.92692   0.27302   0.00000  Uiso   1.00
O996   O     0.20724   0.57307   0.72698   0.00000  Uiso   1.00
O997   O     0.07307   0.79275   0.27302   0.00000  Uiso   1.00
O998   O     0.42692   0.70724   0.72698   0.00000  Uiso   1.00
O999   O     0.20724   0.92692   0.72698   0.00000  Uiso   1.00
O1000  O    -0.00000   0.75000   0.25000   0.00000  Uiso   1.00
O1001  O     0.29275   0.57307   0.27302   0.00000  Uiso   1.00
O1002  O     0.42692   0.79275   0.72698   0.00000  Uiso   1.00
O1003  O     0.07307   0.70724   0.27302   0.00000  Uiso   1.00
O1004  O     0.29275   0.57307   0.72698   0.00000  Uiso   1.00
O1005  O     0.20724   0.92692   0.27302   0.00000  Uiso   1.00
O1006  O     0.07307   0.70724   0.72698   0.00000  Uiso   1.00
O1007  O     0.42692   0.79275   0.27302   0.00000  Uiso   1.00
O1008  O     0.45724   0.82307   0.77302   0.00000  Uiso   1.00
O1009  O     0.04275   0.67692   0.22698   0.00000  Uiso   1.00
O1010  O     0.17692   0.95724   0.77302   0.00000  Uiso   1.00
O1011  O    -0.00000   0.75000   0.75000   0.00000  Uiso   1.00
O1012  O     0.32307   0.54275   0.22698   0.00000  Uiso   1.00
O1013  O     0.04275   0.67692   0.77302   0.00000  Uiso   1.00
O1014  O     0.45724   0.82307   0.22698   0.00000  Uiso   1.00
O1015  O     0.32307   0.54275   0.77302   0.00000  Uiso   1.00
O1016  O     0.17692   0.95724   0.22698   0.00000  Uiso   1.00
O1017  O     0.45724   0.67692   0.22698   0.00000  Uiso   1.00
O1018  O     0.04275   0.82307   0.77302   0.00000  Uiso   1.00
O1019  O     0.17692   0.54275   0.22698   0.00000  Uiso   1.00
O1020  O     0.32307   0.95724   0.77302   0.00000  Uiso   1.00
O1021  O     0.04275   0.82307   0.22698   0.00000  Uiso   1.00
O1022  O     0.25000   0.96963   0.33755   0.00000  Uiso   1.00
O1023  O     0.45724   0.67692   0.77302   0.00000  Uiso   1.00
O1024  O     0.32307   0.95724   0.22698   0.00000  Uiso   1.00
O1025  O     0.17692   0.54275   0.77302   0.00000  Uiso   1.00
O1026  O     0.45589   0.62878   0.46137   0.00000  Uiso   1.00
O1027  O     0.01083   0.64168   0.43362   0.00000  Uiso   1.00
O1028  O     0.48919   0.85923   0.55889   0.00000  Uiso   1.00
O1029  O     0.04690   0.87402   0.53984   0.00000  Uiso   1.00
O1030  O     0.35921   0.98908   0.44109   0.00000  Uiso   1.00
O1031  O     0.37407   0.54678   0.46016   0.00000  Uiso   1.00
O1032  O     0.12873   0.95602   0.53863   0.00000  Uiso   1.00
O1033  O     0.25000   0.53036   0.66245   0.00000  Uiso   1.00
O1034  O     0.14168   0.51096   0.56636   0.00000  Uiso   1.00
O1035  O     0.04412   0.87122   0.46137   0.00000  Uiso   1.00
O1036  O     0.48918   0.85832   0.43362   0.00000  Uiso   1.00
O1037  O     0.01084   0.64078   0.55890   0.00000  Uiso   1.00
O1038  O     0.45313   0.62596   0.53984   0.00000  Uiso   1.00
O1039  O     0.14079   0.51091   0.44109   0.00000  Uiso   1.00
O1040  O     0.12593   0.95322   0.46016   0.00000  Uiso   1.00
O1041  O     0.37127   0.54398   0.53863   0.00000  Uiso   1.00
O1042  O     0.35831   0.98904   0.56636   0.00000  Uiso   1.00
O1043  O     0.26823   0.87275   0.96195   0.00000  Uiso   1.00
O1044  O     0.03036   0.75000   0.33755   0.00000  Uiso   1.00
O1045  O     0.31287   0.90748   0.93426   0.00000  Uiso   1.00
O1046  O     0.20175   0.61894   0.03748   0.00000  Uiso   1.00
O1047  O     0.25819   0.61241   0.06423   0.00000  Uiso   1.00
O1048  O     0.07821   0.67452   0.93928   0.00000  Uiso   1.00
O1049  O     0.12585   0.70932   0.96041   0.00000  Uiso   1.00
O1050  O     0.37867   0.79317   0.03836   0.00000  Uiso   1.00
O1051  O     0.42366   0.82729   0.06616   0.00000  Uiso   1.00
O1052  O     0.23175   0.62725   0.96195   0.00000  Uiso   1.00
O1053  O     0.18712   0.59251   0.93425   0.00000  Uiso   1.00
O1054  O     0.29823   0.88105   0.03748   0.00000  Uiso   1.00
O1055  O     0.46963   0.75000   0.66245   0.00000  Uiso   1.00
O1056  O     0.24179   0.88759   0.06424   0.00000  Uiso   1.00
O1057  O     0.42178   0.82547   0.93928   0.00000  Uiso   1.00
O1058  O     0.37414   0.79066   0.96041   0.00000  Uiso   1.00
O1059  O     0.12133   0.70683   0.03836   0.00000  Uiso   1.00
O1060  O     0.07634   0.67271   0.06616   0.00000  Uiso   1.00
O1061  O     0.07442   0.80789   0.41030   0.00000  Uiso   1.00
O1062  O     0.03199   0.82209   0.36466   0.00000  Uiso   1.00
O1063  O     0.47260   0.67758   0.63145   0.00000  Uiso   1.00
O1064  O     0.42490   0.68676   0.59036   0.00000  Uiso   1.00
O1065  O     0.17757   0.97264   0.36855   0.00000  Uiso   1.00
O1066  O     0.25000   0.53036   0.33755   0.00000  Uiso   1.00
O1067  O     0.18671   0.92494   0.40965   0.00000  Uiso   1.00
O1068  O     0.30801   0.57433   0.58972   0.00000  Uiso   1.00
O1069  O     0.32213   0.53186   0.63535   0.00000  Uiso   1.00
O1070  O     0.42558   0.69211   0.41031   0.00000  Uiso   1.00
O1071  O     0.46801   0.67791   0.36466   0.00000  Uiso   1.00
O1072  O     0.02739   0.82243   0.63144   0.00000  Uiso   1.00
O1073  O     0.07511   0.81323   0.59038   0.00000  Uiso   1.00
O1074  O     0.32243   0.52736   0.36855   0.00000  Uiso   1.00
O1075  O     0.31329   0.57506   0.40965   0.00000  Uiso   1.00
O1076  O     0.19199   0.92567   0.58973   0.00000  Uiso   1.00
Zn1077 Zn    0.20659   0.50000   0.21735   0.00000  Uiso   1.00
Zn1078 Zn    0.04340   0.75000   0.28265   0.00000  Uiso   1.00
Zn1079 Zn    0.25000   0.95659   0.71735   0.00000  Uiso   1.00
Zn1080 Zn    0.25000   0.54340   0.28265   0.00000  Uiso   1.00
Zn1081 Zn    0.04340   0.75000   0.71735   0.00000  Uiso   1.00
Zn1082 Zn    0.45659   0.75000   0.28265   0.00000  Uiso   1.00
Zn1083 Zn    0.25000   0.54340   0.71735   0.00000  Uiso   1.00
Zn1084 Zn    0.25000   0.95659   0.28265   0.00000  Uiso   1.00
Zn1085 Zn    0.29340   0.50000   0.78265   0.00000  Uiso   1.00
Zn1086 Zn   -0.00000   0.70659   0.21735   0.00000  Uiso   1.00
Zn1087 Zn   -0.00000   0.79340   0.78265   0.00000  Uiso   1.00
Zn1088 Zn    0.29340   0.50000   0.21735   0.00000  Uiso   1.00
Zn1089 Zn    0.20659   0.50000   0.78265   0.00000  Uiso   1.00
Zn1090 Zn   -0.00000   0.79340   0.21735   0.00000  Uiso   1.00
Zn1091 Zn   -0.00000   0.70659   0.78265   0.00000  Uiso   1.00
Zn1092 Zn    0.45659   0.75000   0.71735   0.00000  Uiso   1.00
C1093  C     0.51788   0.77829   0.41857   0.00000  Uiso   1.00
C1094  C     0.76610   0.97082   0.08159   0.00000  Uiso   1.00
C1095  C     0.71880   0.98739   0.54084   0.00000  Uiso   1.00
C1096  C     0.51265   0.78118   0.45917   0.00000  Uiso   1.00
C1097  C     0.98810   0.71839   0.54105   0.00000  Uiso   1.00
C1098  C     0.71838   0.98812   0.45895   0.00000  Uiso   1.00
C1099  C     0.78120   0.51261   0.54084   0.00000  Uiso   1.00
C1100  C     0.75636   0.96691   0.95863   0.00000  Uiso   1.00
C1101  C     0.73893   0.53183   0.04082   0.00000  Uiso   1.00
C1102  C     0.53202   0.73976   0.95902   0.00000  Uiso   1.00
C1103  C     0.96798   0.76020   0.04104   0.00000  Uiso   1.00
C1104  C     0.74364   0.53309   0.95863   0.00000  Uiso   1.00
C1105  C     0.96695   0.75502   0.91826   0.00000  Uiso   1.00
C1106  C     0.76106   0.96817   0.04082   0.00000  Uiso   1.00
C1107  C     0.96798   0.76023   0.95902   0.00000  Uiso   1.00
C1108  C     0.53202   0.73980   0.04104   0.00000  Uiso   1.00
C1109  C     0.59800   0.84815   0.24989   0.00000  Uiso   1.00
C1110  C     0.90195   0.65200   0.75005   0.00000  Uiso   1.00
C1111  C     0.65195   0.59812   0.24988   0.00000  Uiso   1.00
C1112  C     0.84807   0.90188   0.75009   0.00000  Uiso   1.00
C1113  C     0.90200   0.65185   0.24989   0.00000  Uiso   1.00
C1114  C     0.59805   0.84800   0.75005   0.00000  Uiso   1.00
C1115  C     0.84805   0.90188   0.24988   0.00000  Uiso   1.00
C1116  C     0.53305   0.74518   0.08179   0.00000  Uiso   1.00
C1117  C     0.65193   0.59812   0.75009   0.00000  Uiso   1.00
C1118  C     0.59811   0.65194   0.75008   0.00000  Uiso   1.00
C1119  C     0.90188   0.84806   0.24988   0.00000  Uiso   1.00
C1120  C     0.65185   0.90199   0.75010   0.00000  Uiso   1.00
C1121  C     0.84799   0.59807   0.24994   0.00000  Uiso   1.00
C1122  C     0.90189   0.84806   0.75008   0.00000  Uiso   1.00
C1123  C     0.59812   0.65194   0.24988   0.00000  Uiso   1.00
C1124  C     0.84815   0.59801   0.75010   0.00000  Uiso   1.00
C1125  C     0.65201   0.90193   0.24994   0.00000  Uiso   1.00
C1126  C     0.50000   0.75000   0.47969   0.00000  Uiso   1.00
C1127  C     0.75066   0.96665   0.91789   0.00000  Uiso   1.00
C1128  C     0.50000   0.75000   0.52060   0.00000  Uiso   1.00
C1129  C     0.75000   0.50000   0.47940   0.00000  Uiso   1.00
C1130  C     0.75000   0.50000   0.52031   0.00000  Uiso   1.00
C1131  C     0.75000   0.50000   0.97923   0.00000  Uiso   1.00
C1132  C     0.75000   0.50000   0.02025   0.00000  Uiso   1.00
C1133  C     0.50000   0.75000   0.97954   0.00000  Uiso   1.00
C1134  C     0.50000   0.75000   0.02050   0.00000  Uiso   1.00
C1135  C     0.98158   0.65006   0.45812   0.00000  Uiso   1.00
C1136  C     0.51659   0.85063   0.54078   0.00000  Uiso   1.00
C1137  C     0.85064   0.51649   0.45921   0.00000  Uiso   1.00
C1138  C     0.73390   0.52918   0.08159   0.00000  Uiso   1.00
C1139  C     0.65004   0.98169   0.54188   0.00000  Uiso   1.00
C1140  C     0.51843   0.84994   0.45812   0.00000  Uiso   1.00
C1141  C     0.98344   0.64937   0.54079   0.00000  Uiso   1.00
C1142  C     0.64936   0.98351   0.45921   0.00000  Uiso   1.00
C1143  C     0.84996   0.51831   0.54188   0.00000  Uiso   1.00
C1144  C     0.78245   0.90290   0.95837   0.00000  Uiso   1.00
C1145  C     0.72937   0.60045   0.04073   0.00000  Uiso   1.00
C1146  C     0.58865   0.70058   0.95863   0.00000  Uiso   1.00
C1147  C     0.91140   0.79932   0.04168   0.00000  Uiso   1.00
C1148  C     0.71753   0.59709   0.95837   0.00000  Uiso   1.00
C1149  C     0.53305   0.74498   0.91826   0.00000  Uiso   1.00
C1150  C     0.77062   0.89955   0.04074   0.00000  Uiso   1.00
C1151  C     0.91135   0.79941   0.95863   0.00000  Uiso   1.00
C1152  C     0.58860   0.70068   0.04169   0.00000  Uiso   1.00
C1153  C     0.54342   0.80338   0.39784   0.00000  Uiso   1.00
C1154  C     0.96050   0.69376   0.60318   0.00000  Uiso   1.00
C1155  C     0.69374   0.96054   0.39682   0.00000  Uiso   1.00
C1156  C     0.80345   0.54333   0.60217   0.00000  Uiso   1.00
C1157  C     0.95658   0.69662   0.39784   0.00000  Uiso   1.00
C1158  C     0.53949   0.80624   0.60319   0.00000  Uiso   1.00
C1159  C     0.80626   0.53946   0.39682   0.00000  Uiso   1.00
C1160  C     0.96695   0.75482   0.08179   0.00000  Uiso   1.00
C1161  C     0.69655   0.95667   0.60218   0.00000  Uiso   1.00
C1162  C     0.75801   0.56759   0.89627   0.00000  Uiso   1.00
C1163  C     0.78987   0.94488   0.10322   0.00000  Uiso   1.00
C1164  C     0.93144   0.75110   0.89733   0.00000  Uiso   1.00
C1165  C     0.56846   0.74924   0.10290   0.00000  Uiso   1.00
C1166  C     0.74199   0.93241   0.89627   0.00000  Uiso   1.00
C1167  C     0.71013   0.55512   0.10323   0.00000  Uiso   1.00
C1168  C     0.56856   0.74890   0.89733   0.00000  Uiso   1.00
C1169  C     0.93154   0.75076   0.10291   0.00000  Uiso   1.00
C1170  C     0.50000   0.75000   0.39824   0.00000  Uiso   1.00
C1171  C     0.50000   0.75000   0.60195   0.00000  Uiso   1.00
C1172  C     0.75000   0.50000   0.39806   0.00000  Uiso   1.00
C1173  C     0.98368   0.72068   0.58181   0.00000  Uiso   1.00
C1174  C     0.75000   0.50000   0.60176   0.00000  Uiso   1.00
C1175  C     0.75000   0.50000   0.89787   0.00000  Uiso   1.00
C1176  C     0.75000   0.50000   0.10176   0.00000  Uiso   1.00
C1177  C     0.50000   0.75000   0.89808   0.00000  Uiso   1.00
C1178  C     0.50000   0.75000   0.10195   0.00000  Uiso   1.00
C1179  C     0.98159   0.68548   0.47945   0.00000  Uiso   1.00
C1180  C     0.51773   0.81480   0.52036   0.00000  Uiso   1.00
C1181  C     0.81482   0.51767   0.47964   0.00000  Uiso   1.00
C1182  C     0.68546   0.98165   0.52055   0.00000  Uiso   1.00
C1183  C     0.51842   0.81452   0.47945   0.00000  Uiso   1.00
C1184  C     0.72067   0.98370   0.41819   0.00000  Uiso   1.00
C1185  C     0.98228   0.68520   0.52036   0.00000  Uiso   1.00
C1186  C     0.68518   0.98233   0.47964   0.00000  Uiso   1.00
C1187  C     0.81454   0.51834   0.52055   0.00000  Uiso   1.00
C1188  C     0.76727   0.93510   0.97922   0.00000  Uiso   1.00
C1189  C     0.73241   0.56484   0.02011   0.00000  Uiso   1.00
C1190  C     0.56143   0.72341   0.97957   0.00000  Uiso   1.00
C1191  C     0.93855   0.77655   0.02055   0.00000  Uiso   1.00
C1192  C     0.73272   0.56490   0.97922   0.00000  Uiso   1.00
C1193  C     0.76758   0.93516   0.02011   0.00000  Uiso   1.00
C1194  C     0.93856   0.77658   0.97957   0.00000  Uiso   1.00
C1195  C     0.77832   0.51784   0.58143   0.00000  Uiso   1.00
C1196  C     0.56145   0.72345   0.02055   0.00000  Uiso   1.00
C1197  C     0.75000   0.50000   0.35574   0.00000  Uiso   1.00
C1198  C     0.75000   0.50000   0.64418   0.00000  Uiso   1.00
C1199  C     0.50000   0.75000   0.35583   0.00000  Uiso   1.00
C1200  C     0.50000   0.75000   0.64426   0.00000  Uiso   1.00
C1201  C     0.50000   0.75000   0.85575   0.00000  Uiso   1.00
C1202  C     0.50000   0.75000   0.14425   0.00000  Uiso   1.00
C1203  C     0.75000   0.50000   0.85567   0.00000  Uiso   1.00
C1204  C     0.75000   0.50000   0.14420   0.00000  Uiso   1.00
C1205  C     0.68000   0.57004   0.24996   0.00000  Uiso   1.00
C1206  C     0.98212   0.72171   0.41857   0.00000  Uiso   1.00
C1207  C     0.82001   0.92996   0.75003   0.00000  Uiso   1.00
C1208  C     0.93006   0.67996   0.25004   0.00000  Uiso   1.00
C1209  C     0.57000   0.81994   0.75004   0.00000  Uiso   1.00
C1210  C     0.82000   0.92996   0.24996   0.00000  Uiso   1.00
C1211  C     0.67999   0.57004   0.75003   0.00000  Uiso   1.00
C1212  C     0.56994   0.82004   0.25004   0.00000  Uiso   1.00
C1213  C     0.93000   0.68005   0.75004   0.00000  Uiso   1.00
C1214  C     0.67996   0.93005   0.74997   0.00000  Uiso   1.00
C1215  C     0.81993   0.57002   0.24995   0.00000  Uiso   1.00
C1216  C     0.92996   0.82000   0.75003   0.00000  Uiso   1.00
C1217  C     0.51632   0.77932   0.58181   0.00000  Uiso   1.00
C1218  C     0.57004   0.67999   0.24996   0.00000  Uiso   1.00
C1219  C     0.82003   0.56995   0.74997   0.00000  Uiso   1.00
C1220  C     0.68007   0.92998   0.24995   0.00000  Uiso   1.00
C1221  C     0.57004   0.68000   0.75003   0.00000  Uiso   1.00
C1222  C     0.92996   0.82001   0.24996   0.00000  Uiso   1.00
C1223  C     0.61881   0.90840   0.26913   0.00000  Uiso   1.00
C1224  C     0.88159   0.59149   0.73133   0.00000  Uiso   1.00
C1225  C     0.58801   0.61491   0.25341   0.00000  Uiso   1.00
C1226  C     0.91203   0.88508   0.74672   0.00000  Uiso   1.00
C1227  C     0.88119   0.59160   0.26913   0.00000  Uiso   1.00
C1228  C     0.77933   0.51630   0.41819   0.00000  Uiso   1.00
C1229  C     0.61841   0.90851   0.73133   0.00000  Uiso   1.00
C1230  C     0.91199   0.88509   0.25341   0.00000  Uiso   1.00
C1231  C     0.58797   0.61492   0.74673   0.00000  Uiso   1.00
C1232  C     0.61490   0.58799   0.74675   0.00000  Uiso   1.00
C1233  C     0.88506   0.91202   0.25342   0.00000  Uiso   1.00
C1234  C     0.59156   0.88124   0.73093   0.00000  Uiso   1.00
C1235  C     0.90847   0.61844   0.26875   0.00000  Uiso   1.00
C1236  C     0.88510   0.91201   0.74674   0.00000  Uiso   1.00
C1237  C     0.61494   0.58798   0.25342   0.00000  Uiso   1.00
C1238  C     0.90844   0.61876   0.73093   0.00000  Uiso   1.00
C1239  C     0.72168   0.98216   0.58143   0.00000  Uiso   1.00
C1240  C     0.59153   0.88156   0.26875   0.00000  Uiso   1.00
C1241  C     0.86882   0.65828   0.76947   0.00000  Uiso   1.00
C1242  C     0.63116   0.84174   0.23054   0.00000  Uiso   1.00
C1243  C     0.83793   0.86486   0.75354   0.00000  Uiso   1.00
C1244  C     0.66207   0.63512   0.24619   0.00000  Uiso   1.00
C1245  C     0.63118   0.84172   0.76947   0.00000  Uiso   1.00
C1246  C     0.86884   0.65826   0.23054   0.00000  Uiso   1.00
C1247  C     0.66207   0.63514   0.75354   0.00000  Uiso   1.00
C1248  C     0.83793   0.86488   0.24619   0.00000  Uiso   1.00
C1249  C     0.86487   0.83794   0.24620   0.00000  Uiso   1.00
C1250  C     0.74933   0.53335   0.91789   0.00000  Uiso   1.00
C1251  C     0.63514   0.66208   0.75353   0.00000  Uiso   1.00
C1252  C     0.84176   0.63118   0.23045   0.00000  Uiso   1.00
C1253  C     0.65829   0.86877   0.76932   0.00000  Uiso   1.00
C1254  C     0.63513   0.66206   0.24620   0.00000  Uiso   1.00
C1255  C     0.86486   0.83792   0.75353   0.00000  Uiso   1.00
C1256  C     0.65824   0.86882   0.23045   0.00000  Uiso   1.00
C1257  C     0.84171   0.63123   0.76932   0.00000  Uiso   1.00
C1258  C     0.98736   0.71882   0.45917   0.00000  Uiso   1.00
C1259  C     0.51191   0.78161   0.54105   0.00000  Uiso   1.00
C1260  C     0.78162   0.51188   0.45895   0.00000  Uiso   1.00
Cl1261 Cl    0.61168   0.94985   0.29438   0.00000  Uiso   1.00
Cl1262 Cl    0.89793   0.95835   0.25973   0.00000  Uiso   1.00
Cl1263 Cl    0.55007   0.88841   0.70577   0.00000  Uiso   1.00
Cl1264 Cl    0.95066   0.61014   0.29200   0.00000  Uiso   1.00
Cl1265 Cl    0.89803   0.95835   0.74074   0.00000  Uiso   1.00
Cl1266 Cl    0.60207   0.54165   0.25974   0.00000  Uiso   1.00
Cl1267 Cl    0.94993   0.61159   0.70577   0.00000  Uiso   1.00
Cl1268 Cl    0.54933   0.88986   0.29200   0.00000  Uiso   1.00
Cl1269 Cl    0.86166   0.69965   0.79485   0.00000  Uiso   1.00
Cl1270 Cl    0.63828   0.80028   0.20531   0.00000  Uiso   1.00
Cl1271 Cl    0.79159   0.85200   0.75982   0.00000  Uiso   1.00
Cl1272 Cl    0.88991   0.54926   0.70816   0.00000  Uiso   1.00
Cl1273 Cl    0.70838   0.64794   0.23963   0.00000  Uiso   1.00
Cl1274 Cl    0.63834   0.80035   0.79486   0.00000  Uiso   1.00
Cl1275 Cl    0.86172   0.69972   0.20531   0.00000  Uiso   1.00
Cl1276 Cl    0.70841   0.64800   0.75981   0.00000  Uiso   1.00
Cl1277 Cl    0.79162   0.85206   0.23964   0.00000  Uiso   1.00
Cl1278 Cl    0.85206   0.79162   0.23967   0.00000  Uiso   1.00
Cl1279 Cl    0.64801   0.70843   0.75975   0.00000  Uiso   1.00
Cl1280 Cl    0.80040   0.63836   0.20506   0.00000  Uiso   1.00
Cl1281 Cl    0.69983   0.86147   0.79428   0.00000  Uiso   1.00
Cl1282 Cl    0.64794   0.70838   0.23967   0.00000  Uiso   1.00
Cl1283 Cl    0.54169   0.60201   0.25964   0.00000  Uiso   1.00
Cl1284 Cl    0.85199   0.79157   0.75976   0.00000  Uiso   1.00
Cl1285 Cl    0.69960   0.86163   0.20506   0.00000  Uiso   1.00
Cl1286 Cl    0.80017   0.63853   0.79428   0.00000  Uiso   1.00
Cl1287 Cl    0.95838   0.89799   0.74062   0.00000  Uiso   1.00
Cl1288 Cl    0.88832   0.55015   0.29438   0.00000  Uiso   1.00
Cl1289 Cl    0.61009   0.95074   0.70816   0.00000  Uiso   1.00
Cl1290 Cl    0.95831   0.89799   0.25963   0.00000  Uiso   1.00
Cl1291 Cl    0.54161   0.60201   0.74063   0.00000  Uiso   1.00
Cl1292 Cl    0.60196   0.54165   0.74075   0.00000  Uiso   1.00
H1293  H     0.50763   0.61717   0.42027   0.00000  Uiso   1.00
H1294  H     0.75296   0.63678   0.07706   0.00000  Uiso   1.00
H1295  H     0.64145   0.69187   0.94474   0.00000  Uiso   1.00
H1296  H     0.90284   0.84060   0.07937   0.00000  Uiso   1.00
H1297  H     0.67937   0.61617   0.92140   0.00000  Uiso   1.00
H1298  H     0.74702   0.86323   0.07707   0.00000  Uiso   1.00
H1299  H     0.85854   0.80811   0.94474   0.00000  Uiso   1.00
H1300  H     0.59716   0.65940   0.07937   0.00000  Uiso   1.00
H1301  H     0.55213   0.83794   0.35339   0.00000  Uiso   1.00
H1302  H     0.91185   0.66786   0.60692   0.00000  Uiso   1.00
H1303  H     0.66780   0.91190   0.39309   0.00000  Uiso   1.00
H1304  H     0.54281   0.89733   0.55513   0.00000  Uiso   1.00
H1305  H     0.83803   0.55196   0.64662   0.00000  Uiso   1.00
H1306  H     0.94787   0.66206   0.35340   0.00000  Uiso   1.00
H1307  H     0.58816   0.83213   0.60694   0.00000  Uiso   1.00
H1308  H     0.83220   0.58810   0.39309   0.00000  Uiso   1.00
H1309  H     0.66197   0.94804   0.64663   0.00000  Uiso   1.00
H1310  H     0.74641   0.60096   0.85133   0.00000  Uiso   1.00
H1311  H     0.79493   0.90901   0.14739   0.00000  Uiso   1.00
H1312  H     0.88127   0.72798   0.89631   0.00000  Uiso   1.00
H1313  H     0.59978   0.73533   0.14877   0.00000  Uiso   1.00
H1314  H     0.75360   0.89904   0.85133   0.00000  Uiso   1.00
H1315  H     0.89737   0.54266   0.44487   0.00000  Uiso   1.00
H1316  H     0.70508   0.59099   0.14739   0.00000  Uiso   1.00
H1317  H     0.61874   0.77201   0.89631   0.00000  Uiso   1.00
H1318  H     0.90022   0.76467   0.14878   0.00000  Uiso   1.00
H1319  H     0.61717   0.50779   0.57971   0.00000  Uiso   1.00
H1320  H     0.99238   0.88283   0.42027   0.00000  Uiso   1.00
H1321  H     0.95723   0.60266   0.55513   0.00000  Uiso   1.00
H1322  H     0.60263   0.95733   0.44487   0.00000  Uiso   1.00
H1323  H     0.88282   0.99221   0.57971   0.00000  Uiso   1.00
H1324  H     0.82061   0.88381   0.92141   0.00000  Uiso   1.00
O1325  O     0.75000   0.50000   0.25000   0.00000  Uiso   1.00
O1326  O     0.75000   0.96963   0.66245   0.00000  Uiso   1.00
O1327  O     0.67787   0.96814   0.63535   0.00000  Uiso   1.00
O1328  O     0.78282   0.58744   0.90755   0.00000  Uiso   1.00
O1329  O     0.73799   0.57700   0.86318   0.00000  Uiso   1.00
O1330  O     0.82159   0.94062   0.09304   0.00000  Uiso   1.00
O1331  O     0.77603   0.92557   0.13509   0.00000  Uiso   1.00
O1332  O     0.92593   0.76755   0.86700   0.00000  Uiso   1.00
O1333  O     0.90419   0.72848   0.91284   0.00000  Uiso   1.00
O1334  O     0.59222   0.76937   0.08975   0.00000  Uiso   1.00
O1335  O     0.57472   0.73015   0.13742   0.00000  Uiso   1.00
O1336  O     0.71717   0.91256   0.90755   0.00000  Uiso   1.00
O1337  O     0.96963   0.75000   0.33755   0.00000  Uiso   1.00
O1338  O     0.76201   0.92300   0.86319   0.00000  Uiso   1.00
O1339  O     0.67841   0.55938   0.09305   0.00000  Uiso   1.00
O1340  O     0.72398   0.57444   0.13509   0.00000  Uiso   1.00
O1341  O     0.57407   0.73245   0.86700   0.00000  Uiso   1.00
O1342  O     0.59581   0.77151   0.91284   0.00000  Uiso   1.00
O1343  O     0.90778   0.73064   0.08976   0.00000  Uiso   1.00
O1344  O     0.92528   0.76986   0.13742   0.00000  Uiso   1.00
O1345  O     0.53036   0.75000   0.66245   0.00000  Uiso   1.00
O1346  O     0.50000   0.71963   0.83755   0.00000  Uiso   1.00
O1347  O     0.50000   0.78036   0.16245   0.00000  Uiso   1.00
O1348  O     0.78036   0.50000   0.83755   0.00000  Uiso   1.00
O1349  O     0.71963   0.50000   0.16245   0.00000  Uiso   1.00
O1350  O     0.50000   0.78036   0.83755   0.00000  Uiso   1.00
O1351  O     0.50000   0.71963   0.16245   0.00000  Uiso   1.00
O1352  O     0.71963   0.50000   0.83755   0.00000  Uiso   1.00
O1353  O     0.75000   0.50000   0.75000   0.00000  Uiso   1.00
O1354  O     0.78036   0.50000   0.16245   0.00000  Uiso   1.00
O1355  O     0.70724   0.57307   0.27302   0.00000  Uiso   1.00
O1356  O     0.79275   0.92692   0.72698   0.00000  Uiso   1.00
O1357  O     0.92692   0.70724   0.27302   0.00000  Uiso   1.00
O1358  O     0.57307   0.79275   0.72698   0.00000  Uiso   1.00
O1359  O     0.79275   0.92692   0.27302   0.00000  Uiso   1.00
O1360  O     0.70724   0.57307   0.72698   0.00000  Uiso   1.00
O1361  O     0.57307   0.79275   0.27302   0.00000  Uiso   1.00
O1362  O     0.92692   0.70724   0.72698   0.00000  Uiso   1.00
O1363  O     0.70724   0.92692   0.72698   0.00000  Uiso   1.00
O1364  O     0.50000   0.75000   0.25000   0.00000  Uiso   1.00
O1365  O     0.79275   0.57307   0.27302   0.00000  Uiso   1.00
O1366  O     0.92692   0.79275   0.72698   0.00000  Uiso   1.00
O1367  O     0.57307   0.70724   0.27302   0.00000  Uiso   1.00
O1368  O     0.79275   0.57307   0.72698   0.00000  Uiso   1.00
O1369  O     0.70724   0.92692   0.27302   0.00000  Uiso   1.00
O1370  O     0.57307   0.70724   0.72698   0.00000  Uiso   1.00
O1371  O     0.92692   0.79275   0.27302   0.00000  Uiso   1.00
O1372  O     0.95724   0.82307   0.77302   0.00000  Uiso   1.00
O1373  O     0.54275   0.67692   0.22698   0.00000  Uiso   1.00
O1374  O     0.67692   0.95724   0.77302   0.00000  Uiso   1.00
O1375  O     0.50000   0.75000   0.75000   0.00000  Uiso   1.00
O1376  O     0.82307   0.54275   0.22698   0.00000  Uiso   1.00
O1377  O     0.54275   0.67692   0.77302   0.00000  Uiso   1.00
O1378  O     0.95724   0.82307   0.22698   0.00000  Uiso   1.00
O1379  O     0.82307   0.54275   0.77302   0.00000  Uiso   1.00
O1380  O     0.67692   0.95724   0.22698   0.00000  Uiso   1.00
O1381  O     0.95724   0.67692   0.22698   0.00000  Uiso   1.00
O1382  O     0.54275   0.82307   0.77302   0.00000  Uiso   1.00
O1383  O     0.67692   0.54275   0.22698   0.00000  Uiso   1.00
O1384  O     0.82307   0.95724   0.77302   0.00000  Uiso   1.00
O1385  O     0.54275   0.82307   0.22698   0.00000  Uiso   1.00
O1386  O     0.75000   0.96963   0.33755   0.00000  Uiso   1.00
O1387  O     0.95724   0.67692   0.77302   0.00000  Uiso   1.00
O1388  O     0.82307   0.95724   0.22698   0.00000  Uiso   1.00
O1389  O     0.67692   0.54275   0.77302   0.00000  Uiso   1.00
O1390  O     0.95589   0.62878   0.46137   0.00000  Uiso   1.00
O1391  O     0.51083   0.64168   0.43362   0.00000  Uiso   1.00
O1392  O     0.98919   0.85923   0.55889   0.00000  Uiso   1.00
O1393  O     0.54690   0.87402   0.53984   0.00000  Uiso   1.00
O1394  O     0.85921   0.98908   0.44109   0.00000  Uiso   1.00
O1395  O     0.87407   0.54678   0.46016   0.00000  Uiso   1.00
O1396  O     0.62873   0.95602   0.53863   0.00000  Uiso   1.00
O1397  O     0.75000   0.53036   0.66245   0.00000  Uiso   1.00
O1398  O     0.64168   0.51096   0.56636   0.00000  Uiso   1.00
O1399  O     0.54412   0.87122   0.46137   0.00000  Uiso   1.00
O1400  O     0.98918   0.85832   0.43362   0.00000  Uiso   1.00
O1401  O     0.51084   0.64078   0.55890   0.00000  Uiso   1.00
O1402  O     0.95313   0.62596   0.53984   0.00000  Uiso   1.00
O1403  O     0.64079   0.51091   0.44109   0.00000  Uiso   1.00
O1404  O     0.62593   0.95322   0.46016   0.00000  Uiso   1.00
O1405  O     0.87127   0.54398   0.53863   0.00000  Uiso   1.00
O1406  O     0.85831   0.98904   0.56636   0.00000  Uiso   1.00
O1407  O     0.76823   0.87275   0.96195   0.00000  Uiso   1.00
O1408  O     0.53036   0.75000   0.33755   0.00000  Uiso   1.00
O1409  O     0.81287   0.90748   0.93426   0.00000  Uiso   1.00
O1410  O     0.70175   0.61894   0.03748   0.00000  Uiso   1.00
O1411  O     0.75819   0.61241   0.06423   0.00000  Uiso   1.00
O1412  O     0.57821   0.67452   0.93928   0.00000  Uiso   1.00
O1413  O     0.62585   0.70932   0.96041   0.00000  Uiso   1.00
O1414  O     0.87867   0.79317   0.03836   0.00000  Uiso   1.00
O1415  O     0.92366   0.82729   0.06616   0.00000  Uiso   1.00
O1416  O     0.73175   0.62725   0.96195   0.00000  Uiso   1.00
O1417  O     0.68712   0.59251   0.93425   0.00000  Uiso   1.00
O1418  O     0.79823   0.88105   0.03748   0.00000  Uiso   1.00
O1419  O     0.96963   0.75000   0.66245   0.00000  Uiso   1.00
O1420  O     0.74179   0.88759   0.06424   0.00000  Uiso   1.00
O1421  O     0.92178   0.82547   0.93928   0.00000  Uiso   1.00
O1422  O     0.87414   0.79066   0.96041   0.00000  Uiso   1.00
O1423  O     0.62133   0.70683   0.03836   0.00000  Uiso   1.00
O1424  O     0.57634   0.67271   0.06616   0.00000  Uiso   1.00
O1425  O     0.57442   0.80789   0.41030   0.00000  Uiso   1.00
O1426  O     0.53199   0.82209   0.36466   0.00000  Uiso   1.00
O1427  O     0.97260   0.67758   0.63145   0.00000  Uiso   1.00
O1428  O     0.92490   0.68676   0.59036   0.00000  Uiso   1.00
O1429  O     0.67757   0.97264   0.36855   0.00000  Uiso   1.00
O1430  O     0.75000   0.53036   0.33755   0.00000  Uiso   1.00
O1431  O     0.68671   0.92494   0.40965   0.00000  Uiso   1.00
O1432  O     0.80801   0.57433   0.58972   0.00000  Uiso   1.00
O1433  O     0.82213   0.53186   0.63535   0.00000  Uiso   1.00
O1434  O     0.92558   0.69211   0.41031   0.00000  Uiso   1.00
O1435  O     0.96801   0.67791   0.36466   0.00000  Uiso   1.00
O1436  O     0.52739   0.82243   0.63144   0.00000  Uiso   1.00
O1437  O     0.57511   0.81323   0.59038   0.00000  Uiso   1.00
O1438  O     0.82243   0.52736   0.36855   0.00000  Uiso   1.00
O1439  O     0.81329   0.57506   0.40965   0.00000  Uiso   1.00
O1440  O     0.69199   0.92567   0.58973   0.00000  Uiso   1.00
Zn1441 Zn    0.70659   0.50000   0.21735   0.00000  Uiso   1.00
Zn1442 Zn    0.54340   0.75000   0.28265   0.00000  Uiso   1.00
Zn1443 Zn    0.75000   0.95659   0.71735   0.00000  Uiso   1.00
Zn1444 Zn    0.75000   0.54340   0.28265   0.00000  Uiso   1.00
Zn1445 Zn    0.54340   0.75000   0.71735   0.00000  Uiso   1.00
Zn1446 Zn    0.95659   0.75000   0.28265   0.00000  Uiso   1.00
Zn1447 Zn    0.75000   0.54340   0.71735   0.00000  Uiso   1.00
Zn1448 Zn    0.75000   0.95659   0.28265   0.00000  Uiso   1.00
Zn1449 Zn    0.79340   0.50000   0.78265   0.00000  Uiso   1.00
Zn1450 Zn    0.50000   0.70659   0.21735   0.00000  Uiso   1.00
Zn1451 Zn    0.50000   0.79340   0.78265   0.00000  Uiso   1.00
Zn1452 Zn    0.79340   0.50000   0.21735   0.00000  Uiso   1.00
Zn1453 Zn    0.70659   0.50000   0.78265   0.00000  Uiso   1.00
Zn1454 Zn    0.50000   0.79340   0.21735   0.00000  Uiso   1.00
Zn1455 Zn    0.50000   0.70659   0.78265   0.00000  Uiso   1.00
Zn1456 Zn    0.95659   0.75000   0.71735   0.00000  Uiso   1.00
loop_
_geom_bond_atom_site_label_1
_geom_bond_atom_site_label_2
_geom_bond_distance
_geom_bond_site_symmetry_2
_ccdc_geom_bond_type
C1     C78     1.408   .     A
C1     C61     1.489   .     S
C1     C4      1.416   .     A
C2     C71     1.490   .     S
C2     C14     1.420   .     A
C2     C812    1.405   .     S
C3     C147    1.416   .     A
C3     C90     1.420   .     A
C3     C766    1.418   .     A
C4     C91     1.420   .     A
C4     C34     1.418   .     A
C5     C81     1.416   .     A
C5     C93     1.423   .     A
C5     C400    1.421   .     S
C6     C94     1.423   .     A
C6     C92     1.416   .     A
C6     C765    1.421   .     A
C7     C103    1.416   .     A
C7     C95     1.420   .     A
C7     C38     1.418   .     S
C8     C35     1.419   .     A
C8     C96     1.421   .     A
C8     C767    1.423   .     A
C9     C46     1.420   .     A
C9     C97     1.424   .     A
C9     C40     1.423   .     S
C10    C98     1.422   .     A
C10    C57     1.418   .     A
C10    C41     1.420   .     S
C11    C99     1.421   .     A
C11    C68     1.419   .     A
C11    C406    1.420   .     A
C12    C158    1.419   .     A
C12    C100    1.421   .     A
C12    C39     1.423   .     S
C13    C72     1.492   .     S
C13    C449    1.407   .     A
C13    C15     1.418   .     A
C14    C101    1.424   .     A
C14    C768    1.423   .     A
C15    C405    1.420   .     A
C15    C102    1.422   .     A
C16    C104    1.421   .     A
C16    C24     1.419   .     A
C16    C42     1.420   .     S
C17    C150    1.405   .     A
C17    C120    1.449   .     S
C17    C148    1.405   .     A
C18    C121    1.448   .     S
C18    C149    1.404   .     A
C18    C146    1.404   .     A
C19    C113    1.455   .     S
C19    C145    1.407   .     A
C19    C152    1.407   .     A
C20    C144    1.407   .     A
C20    C151    1.407   .     A
C20    C115    1.455   .     S
C21    C116    1.449   .     S
C21    C154    1.405   .     A
C21    C143    1.405   .     A
C22    C153    1.404   .     A
C22    C117    1.448   .     S
C22    C142    1.404   .     A
C23    C118    1.455   .     S
C23    C141    1.407   .     A
C23    C156    1.407   .     A
C24    C73     1.492   .     S
C24    C86     1.406   .     S
C25    C119    1.455   .     S
C25    C140    1.407   .     A
C25    C155    1.407   .     A
C26    C139    1.407   .     A
C26    C159    1.408   .     A
C26    C129    1.455   .     S
C27    C138    1.407   .     A
C27    C157    1.407   .     A
C27    C130    1.455   .     S
C28    C137    1.405   .     A
C28    C122    1.449   .     S
C28    C161    1.405   .     A
C29    C135    1.404   .     A
C29    C160    1.405   .     A
C29    C123    1.448   .     S
C30    C163    1.408   .     A
C30    C134    1.407   .     A
C30    C124    1.455   .     S
C31    C162    1.407   .     A
C31    C133    1.407   .     A
C31    C126    1.455   .     S
C32    C165    1.405   .     A
C32    C127    1.449   .     S
C32    C132    1.405   .     A
C33    C164    1.405   .     A
C33    C131    1.404   .     A
C33    C128    1.448   .     S
C34    C36     1.409   .     A
C34    C530    1.418   1_455 S
C35    C74     1.490   .     S
C35    C811    1.402   .     A
C36    C167    1.421   .     A
C36    C369    1.421   1_455 S
C37    C38     1.410   .     A
C37    C734    1.421   1_545 A
C37    C168    1.421   .     S
C38    C731    1.418   1_545 A
C39    C736    1.423   1_545 A
C39    C40     1.414   1_556 S
C40    C742    1.423   1_545 A
C40    C39     1.414   1_554 S
C41    C379    1.420   1_455 A
C41    C42     1.412   1_556 S
C42    C375    1.420   1_455 A
C42    C41     1.412   1_554 S
C43    O298    1.223   .     D
C43    C87     1.489   .     S
C43    O663    1.398   .     S
C44    O301    1.398   .     S
C44    C88     1.488   .     S
C44    O664    1.223   1_455 S
C45    O303    1.398   .     S
C45    C89     1.488   .     S
C45    O1030   1.223   1_545 S
C46    C84     1.405   .     A
C46    C75     1.490   .     S
C47    C90     1.489   .     S
C47    O304    1.223   .     D
C47    O1034   1.398   .     S
C48    C91     1.489   .     S
C48    O307    1.223   .     D
C48    O672    1.398   1_455 S
C49    C93     1.488   .     S
C49    O310    1.398   .     S
C49    O673    1.223   .     S
C50    C94     1.488   .     S
C50    O312    1.398   .     S
C50    O1039   1.223   .     S
C51    O313    1.223   .     D
C51    C95     1.489   .     S
C51    O1042   1.398   1_545 S
C52    O315    1.223   .     D
C52    O317    1.398   .     S
C52    C96     1.489   .     S
C53    C97     1.488   .     S
C53    O318    1.223   .     D
C53    O319    1.398   .     S
C54    O320    1.223   .     D
C54    O321    1.398   .     S
C54    C98     1.489   .     S
C55    O322    1.222   .     D
C55    C99     1.489   .     S
C55    O323    1.398   .     S
C56    O325    1.398   .     S
C56    O324    1.223   .     D
C56    C100    1.489   .     S
C57    C76     1.492   .     S
C57    C85     1.407   .     S
C58    C101    1.488   .     S
C58    O328    1.398   .     S
C58    O326    1.223   .     D
C59    O330    1.398   .     S
C59    C102    1.489   .     S
C59    O329    1.223   .     D
C60    O331    1.222   .     D
C60    O332    1.398   .     S
C60    C104    1.489   .     S
C61    O334    1.397   .     S
C61    O333    1.223   .     D
C62    C81     1.491   .     S
C62    O335    1.223   .     D
C62    O336    1.398   .     S
C63    O339    1.398   .     S
C63    O337    1.223   .     D
C63    C92     1.491   .     S
C64    C103    1.489   .     S
C64    O340    1.223   .     D
C64    O341    1.397   .     S
C65    O342    1.223   .     D
C65    O343    1.397   .     S
C65    C114    1.489   .     S
C66    O345    1.398   .     S
C66    O344    1.223   .     D
C66    C125    1.491   .     S
C67    O347    1.398   .     S
C67    C136    1.491   .     S
C67    O346    1.223   .     D
C68    C77     1.492   .     S
C68    C450    1.406   .     A
C69    C147    1.489   .     S
C69    O348    1.223   .     D
C69    O235    1.397   .     S
C70    O237    1.399   .     S
C70    C158    1.490   .     S
C70    O236    1.223   .     D
C71    O238    1.223   .     D
C71    O239    1.399   .     S
C72    O240    1.223   .     D
C72    O241    1.398   .     S
C73    O242    1.223   .     D
C73    O243    1.399   .     S
C74    O244    1.223   .     D
C74    O246    1.399   .     S
C75    O248    1.399   .     S
C75    O247    1.223   .     D
C76    O250    1.398   .     S
C76    O249    1.223   .     D
C77    O252    1.399   .     S
C77    O251    1.223   .     D
C78    C107    1.462   .     S
C78    C478    1.408   1_455 S
C79    C125    1.408   .     A
C79    C445    1.408   1_455 S
C79    C108    1.458   .     S
C80    C820    1.408   1_545 A
C80    C105    1.458   .     S
C80    C136    1.408   .     S
C81    C443    1.408   .     S
C82    C106    1.462   .     S
C82    C103    1.408   .     A
C82    C875    1.408   1_545 S
C83    C763    1.402   1_545 A
C83    C111    1.454   .     S
C83    C158    1.402   .     S
C84    C112    1.462   .     S
C84    C730    1.405   1_545 S
C85    C377    1.407   1_455 A
C85    C109    1.458   .     S
C86    C110    1.458   .     S
C86    C432    1.406   1_455 A
C87    C93     1.410   .     A
C87    C166    1.420   .     A
C88    C91     1.410   .     A
C88    C167    1.423   .     A
C89    C95     1.410   .     A
C89    C168    1.423   .     A
C90    C94     1.410   .     A
C92    C808    1.408   .     A
C96    C101    1.409   1_556 S
C97    C100    1.409   1_554 S
C98    C104    1.412   1_556 S
C99    C102    1.412   1_554 S
C100   C97     1.409   1_556 S
C101   C96     1.409   1_554 S
C102   C99     1.412   1_556 S
C104   C98     1.412   1_554 S
C105   O1022   1.275   1_545 A
C105   O338    1.275   .     S
C106   O305    1.277   .     A
C106   O962    1.277   1_545 S
C107   O609    1.277   1_455 A
C107   O316    1.277   .     S
C108   O691    1.275   1_455 A
C108   O253    1.275   .     S
C109   O254    1.276   .     A
C109   O258    1.276   .     A
C110   O255    1.275   .     A
C110   O259    1.275   .     A
C111   O260    1.274   .     A
C111   O256    1.274   .     A
C112   O257    1.276   .     A
C112   O262    1.276   .     A
C113   O263    1.279   .     A
C113   O291    1.279   .     A
C114   C166    1.416   .     A
C114   C442    1.408   .     S
C115   O292    1.279   .     A
C115   O264    1.279   .     A
C116   O289    1.278   .     A
C116   O265    1.280   .     A
C117   O290    1.278   .     A
C117   O266    1.278   .     A
C118   O267    1.279   .     A
C118   O296    1.278   .     A
C119   O268    1.279   .     A
C119   O297    1.279   .     A
C120   O269    1.280   .     A
C120   O293    1.278   .     A
C121   O295    1.278   .     A
C121   O270    1.278   .     A
C122   O271    1.280   .     A
C122   O282    1.278   .     A
C123   O273    1.278   .     A
C123   O284    1.279   .     A
C124   O280    1.279   .     A
C124   O274    1.279   .     A
C125   C167    1.416   .     A
C126   O281    1.279   .     A
C126   O275    1.279   .     A
C127   O287    1.278   .     A
C127   O276    1.280   .     A
C128   O288    1.279   .     A
C128   O277    1.278   .     A
C129   O285    1.279   .     A
C129   O278    1.279   .     A
C130   O286    1.279   .     A
C130   O279    1.279   .     A
C131   Cl169   1.768   .     S
C131   C148    1.397   .     A
C132   Cl180   1.767   .     S
C132   C146    1.397   .     A
C133   C145    1.396   .     A
C133   Cl191   1.769   .     S
C134   C144    1.396   .     A
C134   Cl195   1.770   .     S
C135   Cl196   1.768   .     S
C135   C143    1.397   .     A
C136   C168    1.416   .     A
C137   Cl197   1.767   .     S
C137   C142    1.397   .     A
C138   C141    1.396   .     A
C138   Cl198   1.769   .     S
C139   C140    1.396   .     A
C139   Cl199   1.770   .     S
C140   Cl200   1.770   .     S
C141   Cl170   1.770   .     S
C142   Cl171   1.768   .     S
C143   Cl172   1.767   .     S
C144   Cl173   1.770   .     S
C145   Cl174   1.770   .     S
C146   Cl175   1.768   .     S
C147   C810    1.408   .     S
C148   Cl176   1.767   .     S
C149   C165    1.397   .     A
C149   Cl177   1.768   .     S
C150   C164    1.397   .     A
C150   Cl178   1.768   .     S
C151   Cl179   1.770   .     S
C151   C163    1.397   .     A
C152   Cl181   1.770   .     S
C152   C162    1.397   .     A
C153   C161    1.397   .     A
C153   Cl182   1.768   .     S
C154   Cl183   1.768   .     S
C154   C160    1.398   .     A
C155   C159    1.397   .     A
C155   Cl184   1.770   .     S
C156   Cl185   1.770   .     S
C156   C157    1.397   .     A
C157   Cl186   1.770   .     S
C159   Cl187   1.770   .     S
C160   Cl188   1.768   .     S
C161   Cl189   1.767   .     S
C162   Cl190   1.770   .     S
C163   Cl192   1.770   .     S
C164   Cl193   1.768   .     S
C165   Cl194   1.767   .     S
C166   C398    1.418   .     S
H201   O299    1.014   .     S
H202   O319    1.014   .     S
H203   O321    1.014   .     S
H204   O323    1.014   .     S
H205   O325    1.014   .     S
H206   O328    1.014   .     S
H207   O330    1.014   .     S
H208   O332    1.014   .     S
H209   O334    1.013   .     S
H210   O336    1.014   .     S
H211   O339    1.014   .     S
H212   O301    1.014   .     S
H213   O341    1.013   .     S
H214   O343    1.013   .     S
H215   O345    1.014   .     S
H216   O347    1.014   .     S
H217   O235    1.013   .     S
H218   O237    1.013   .     S
H219   O239    1.014   .     S
H220   O241    1.014   .     S
H221   O243    1.014   .     S
H222   O246    1.013   .     S
H223   O303    1.014   .     S
H224   O248    1.014   .     S
H225   O250    1.014   .     S
H226   O252    1.014   .     S
H227   O306    1.014   .     S
H228   O308    1.014   .     S
H229   O310    1.014   .     S
H230   O312    1.014   .     S
H231   O314    1.014   .     S
H232   O317    1.014   .     S
O233   Zn1084  1.946   1_545 S
O233   Zn360   1.946   .     S
O233   Zn349   1.946   .     S
O233   Zn352   1.946   .     S
O234   Zn351   1.951   .     S
O234   C834    1.277   .     S
O245   Zn354   1.951   .     S
O245   C471    1.277   .     A
O253   Zn353   1.951   .     S
O254   Zn363   1.951   .     S
O255   Zn362   1.951   .     S
O256   Zn357   1.951   .     S
O257   Zn349   1.951   .     S
O258   Zn359   1.951   .     S
O259   Zn358   1.951   .     S
O260   Zn361   1.951   .     S
O261   Zn361   1.946   .     S
O261   Zn1079  1.946   1_545 S
O261   Zn357   1.946   .     S
O261   Zn355   1.946   .     S
O262   Zn360   1.951   .     S
O263   Zn352   1.936   .     S
O264   Zn351   1.936   .     S
O265   Zn354   1.928   .     S
O266   Zn353   1.928   .     S
O267   Zn356   1.936   .     S
O268   Zn355   1.936   .     S
O269   Zn350   1.928   .     S
O270   Zn364   1.928   .     S
O271   Zn351   1.928   .     S
O272   Zn362   1.946   .     S
O272   Zn358   1.946   .     S
O272   Zn718   1.946   1_455 S
O272   Zn350   1.946   .     S
O273   Zn352   1.928   .     S
O274   Zn364   1.936   .     S
O275   Zn350   1.936   .     S
O276   Zn355   1.928   .     S
O277   Zn356   1.928   .     S
O278   Zn353   1.936   .     S
O279   Zn354   1.936   .     S
O280   Zn723   1.936   .     S
O281   Zn358   1.936   .     S
O282   Zn1089  1.928   .     S
O283   Zn363   1.946   .     S
O283   Zn359   1.946   .     S
O283   Zn728   1.946   1_455 S
O283   Zn353   1.946   .     S
O284   Zn360   1.928   .     S
O285   Zn363   1.936   .     S
O286   Zn726   1.936   .     S
O287   Zn357   1.928   .     S
O288   Zn1077  1.928   .     S
O289   Zn722   1.928   .     S
O290   Zn359   1.928   .     S
O291   Zn349   1.936   .     S
O292   Zn1085  1.936   .     S
O293   Zn362   1.928   .     S
O294   C833    1.275   .     A
O294   Zn356   1.951   .     S
O295   Zn727   1.928   .     S
O296   Zn1088  1.936   .     S
O297   Zn361   1.936   .     S
O299   C407    1.398   1_455 S
O300   C408    1.223   .     S
O302   C773    1.223   .     S
O305   Zn355   1.951   .     S
O306   C775    1.398   1_545 S
O308   C412    1.398   .     S
O309   C413    1.223   1_455 S
O311   C778    1.223   1_545 S
O314   C779    1.398   .     S
O316   Zn350   1.951   .     S
O327   Zn364   1.951   .     S
O327   C472    1.275   .     A
O338   Zn352   1.951   .     S
Zn349  O1016   1.928   1_545 S
Zn351  O989    1.946   .     S
Zn354  O636    1.946   .     S
Zn356  O961    1.946   .     S
Zn357  O1020   1.936   1_545 S
Zn358  O653    1.928   1_455 S
Zn359  O644    1.936   1_455 S
Zn360  O1024   1.936   1_545 S
Zn361  O1010   1.928   1_545 S
Zn362  O650    1.936   1_455 S
Zn363  O659    1.928   1_455 S
Zn364  O647    1.946   .     S
C365   C442    1.408   .     A
C365   C425    1.489   .     S
C365   C368    1.416   .     A
C366   C435    1.490   .     S
C366   C378    1.420   .     A
C366   C1176   1.405   .     S
C367   C511    1.416   .     A
C367   C454    1.420   .     A
C367   C1130   1.418   .     A
C368   C455    1.420   .     A
C368   C398    1.418   .     A
C369   C445    1.416   .     A
C369   C457    1.423   .     A
C369   C36     1.421   1_655 S
C370   C458    1.423   .     A
C370   C456    1.416   .     A
C370   C1129   1.421   .     A
C371   C467    1.416   .     A
C371   C459    1.420   .     A
C371   C402    1.418   .     S
C372   C399    1.419   .     A
C372   C460    1.421   .     A
C372   C1131   1.423   .     A
C373   C410    1.420   .     A
C373   C461    1.424   .     A
C373   C404    1.423   .     S
C374   C462    1.422   .     A
C374   C421    1.418   .     A
C374   C405    1.420   .     S
C375   C463    1.421   .     A
C375   C432    1.419   .     A
C375   C42     1.420   1_655 A
C376   C522    1.419   .     A
C376   C464    1.421   .     A
C376   C403    1.423   .     S
C377   C436    1.492   .     S
C377   C85     1.407   1_655 A
C377   C379    1.418   .     A
C378   C465    1.424   .     A
C378   C1132   1.423   .     A
C379   C41     1.420   1_655 A
C379   C466    1.422   .     A
C380   C468    1.421   .     A
C380   C388    1.419   .     A
C380   C406    1.420   .     S
C381   C514    1.405   .     A
C381   C484    1.449   .     S
C381   C512    1.405   .     A
C382   C485    1.448   .     S
C382   C513    1.404   .     A
C382   C510    1.404   .     A
C383   C477    1.455   .     S
C383   C509    1.407   .     A
C383   C516    1.407   .     A
C384   C508    1.407   .     A
C384   C515    1.407   .     A
C384   C479    1.455   .     S
C385   C480    1.449   .     S
C385   C518    1.405   .     A
C385   C507    1.405   .     A
C386   C517    1.404   .     A
C386   C481    1.448   .     S
C386   C506    1.404   .     A
C387   C482    1.455   .     S
C387   C505    1.407   .     A
C387   C520    1.407   .     A
C388   C437    1.492   .     S
C388   C450    1.406   .     S
C389   C483    1.455   .     S
C389   C504    1.407   .     A
C389   C519    1.407   .     A
C390   C503    1.407   .     A
C390   C523    1.408   .     A
C390   C493    1.455   .     S
C391   C502    1.407   .     A
C391   C521    1.407   .     A
C391   C494    1.455   .     S
C392   C501    1.405   .     A
C392   C486    1.449   .     S
C392   C525    1.405   .     A
C393   C499    1.404   .     A
C393   C524    1.405   .     A
C393   C487    1.448   .     S
C394   C527    1.408   .     A
C394   C498    1.407   .     A
C394   C488    1.455   .     S
C395   C526    1.407   .     A
C395   C497    1.407   .     A
C395   C490    1.455   .     S
C396   C529    1.405   .     A
C396   C491    1.449   .     S
C396   C496    1.405   .     A
C397   C528    1.405   .     A
C397   C495    1.404   .     A
C397   C492    1.448   .     S
C398   C400    1.409   .     A
C399   C438    1.490   .     S
C399   C1175   1.402   .     A
C400   C531    1.421   .     A
C401   C402    1.410   .     A
C401   C1098   1.421   1_545 A
C401   C532    1.421   .     S
C402   C1095   1.418   1_545 A
C403   C1100   1.423   1_545 A
C403   C404    1.414   1_556 S
C404   C1106   1.423   1_545 A
C404   C403    1.414   1_554 S
C405   C406    1.412   1_556 S
C406   C405    1.412   1_554 S
C407   O662    1.223   .     D
C407   C451    1.489   .     S
C407   O299    1.398   1_655 S
C408   O665    1.398   .     S
C408   C452    1.488   .     S
C409   O667    1.398   .     S
C409   C453    1.488   .     S
C409   O1394   1.223   1_545 S
C410   C448    1.405   .     A
C410   C439    1.490   .     S
C411   C454    1.489   .     S
C411   O668    1.223   .     D
C411   O1398   1.398   .     S
C412   C455    1.489   .     S
C412   O671    1.223   .     D
C413   C457    1.488   .     S
C413   O674    1.398   .     S
C413   O309    1.223   1_655 S
C414   C458    1.488   .     S
C414   O676    1.398   .     S
C414   O1403   1.223   .     S
C415   O677    1.223   .     D
C415   C459    1.489   .     S
C415   O1406   1.398   1_545 S
C416   O679    1.223   .     D
C416   O681    1.398   .     S
C416   C460    1.489   .     S
C417   C461    1.488   .     S
C417   O682    1.223   .     D
C417   O683    1.398   .     S
C418   O684    1.223   .     D
C418   O685    1.398   .     S
C418   C462    1.489   .     S
C419   O686    1.222   .     D
C419   C463    1.489   .     S
C419   O687    1.398   .     S
C420   O689    1.398   .     S
C420   O688    1.223   .     D
C420   C464    1.489   .     S
C421   C440    1.492   .     S
C421   C449    1.407   .     S
C422   C465    1.488   .     S
C422   O692    1.398   .     S
C422   O690    1.223   .     D
C423   O694    1.398   .     S
C423   C466    1.489   .     S
C423   O693    1.223   .     D
C424   O695    1.222   .     D
C424   O696    1.398   .     S
C424   C468    1.489   .     S
C425   O698    1.397   .     S
C425   O697    1.223   .     D
C426   C445    1.491   .     S
C426   O699    1.223   .     D
C426   O700    1.398   .     S
C427   O703    1.398   .     S
C427   O701    1.223   .     D
C427   C456    1.491   .     S
C428   C467    1.489   .     S
C428   O704    1.223   .     D
C428   O705    1.397   .     S
C429   O706    1.223   .     D
C429   O707    1.397   .     S
C429   C478    1.489   .     S
C430   O709    1.398   .     S
C430   O708    1.223   .     D
C430   C489    1.491   .     S
C431   O711    1.398   .     S
C431   C500    1.491   .     S
C431   O710    1.223   .     D
C432   C441    1.492   .     S
C432   C86     1.406   1_655 A
C433   C511    1.489   .     S
C433   O712    1.223   .     D
C433   O599    1.397   .     S
C434   O601    1.399   .     S
C434   C522    1.490   .     S
C434   O600    1.223   .     D
C435   O602    1.223   .     D
C435   O603    1.399   .     S
C436   O604    1.223   .     D
C436   O605    1.398   .     S
C437   O606    1.223   .     D
C437   O607    1.399   .     S
C438   O608    1.223   .     D
C438   O610    1.399   .     S
C439   O612    1.399   .     S
C439   O611    1.223   .     D
C440   O614    1.398   .     S
C440   O613    1.223   .     D
C441   O616    1.399   .     S
C441   O615    1.223   .     D
C442   C471    1.462   .     S
C443   C489    1.408   .     A
C443   C472    1.458   .     S
C444   C1184   1.408   1_545 A
C444   C469    1.458   .     S
C444   C500    1.408   .     S
C445   C79     1.408   1_655 S
C446   C470    1.462   .     S
C446   C467    1.408   .     A
C446   C1239   1.408   1_545 S
C447   C1127   1.402   1_545 A
C447   C475    1.454   .     S
C447   C522    1.402   .     S
C448   C476    1.462   .     S
C448   C1094   1.405   1_545 S
C449   C473    1.458   .     S
C450   C474    1.458   .     S
C451   C457    1.410   .     A
C451   C530    1.420   .     A
C452   C455    1.410   .     A
C452   C531    1.423   .     A
C453   C459    1.410   .     A
C453   C532    1.423   .     A
C454   C458    1.410   .     A
C456   C1172   1.408   .     A
C460   C465    1.409   1_556 S
C461   C464    1.409   1_554 S
C462   C468    1.412   1_556 S
C463   C466    1.412   1_554 S
C464   C461    1.409   1_556 S
C465   C460    1.409   1_554 S
C466   C463    1.412   1_556 S
C468   C462    1.412   1_554 S
C469   O1386   1.275   1_545 A
C469   O702    1.275   .     S
C470   O669    1.277   .     A
C470   O1326   1.277   1_545 S
C471   O680    1.277   .     S
C472   O617    1.275   .     S
C473   O618    1.276   .     A
C473   O622    1.276   .     A
C474   O619    1.275   .     A
C474   O623    1.275   .     A
C475   O624    1.274   .     A
C475   O620    1.274   .     A
C476   O621    1.276   .     A
C476   O626    1.276   .     A
C477   O627    1.279   .     A
C477   O655    1.279   .     A
C478   C530    1.416   .     A
C478   C78     1.408   1_655 S
C479   O656    1.279   .     A
C479   O628    1.279   .     A
C480   O653    1.278   .     A
C480   O629    1.280   .     A
C481   O654    1.278   .     A
C481   O630    1.278   .     A
C482   O631    1.279   .     A
C482   O660    1.278   .     A
C483   O632    1.279   .     A
C483   O661    1.279   .     A
C484   O633    1.280   .     A
C484   O657    1.278   .     A
C485   O659    1.278   .     A
C485   O634    1.278   .     A
C486   O635    1.280   .     A
C486   O646    1.278   .     A
C487   O637    1.278   .     A
C487   O648    1.279   .     A
C488   O644    1.279   .     A
C488   O638    1.279   .     A
C489   C531    1.416   .     A
C490   O645    1.279   .     A
C490   O639    1.279   .     A
C491   O651    1.278   .     A
C491   O640    1.280   .     A
C492   O652    1.279   .     A
C492   O641    1.278   .     A
C493   O649    1.279   .     A
C493   O642    1.279   .     A
C494   O650    1.279   .     A
C494   O643    1.279   .     A
C495   Cl533   1.768   .     S
C495   C512    1.397   .     A
C496   Cl544   1.767   .     S
C496   C510    1.397   .     A
C497   C509    1.396   .     A
C497   Cl555   1.769   .     S
C498   C508    1.396   .     A
C498   Cl559   1.770   .     S
C499   Cl560   1.768   .     S
C499   C507    1.397   .     A
C500   C532    1.416   .     A
C501   Cl561   1.767   .     S
C501   C506    1.397   .     A
C502   C505    1.396   .     A
C502   Cl562   1.769   .     S
C503   C504    1.396   .     A
C503   Cl563   1.770   .     S
C504   Cl564   1.770   .     S
C505   Cl534   1.770   .     S
C506   Cl535   1.768   .     S
C507   Cl536   1.767   .     S
C508   Cl537   1.770   .     S
C509   Cl538   1.770   .     S
C510   Cl539   1.768   .     S
C511   C1174   1.408   .     S
C512   Cl540   1.767   .     S
C513   C529    1.397   .     A
C513   Cl541   1.768   .     S
C514   C528    1.397   .     A
C514   Cl542   1.768   .     S
C515   Cl543   1.770   .     S
C515   C527    1.397   .     A
C516   Cl545   1.770   .     S
C516   C526    1.397   .     A
C517   C525    1.397   .     A
C517   Cl546   1.768   .     S
C518   Cl547   1.768   .     S
C518   C524    1.398   .     A
C519   C523    1.397   .     A
C519   Cl548   1.770   .     S
C520   Cl549   1.770   .     S
C520   C521    1.397   .     A
C521   Cl550   1.770   .     S
C523   Cl551   1.770   .     S
C524   Cl552   1.768   .     S
C525   Cl553   1.767   .     S
C526   Cl554   1.770   .     S
C527   Cl556   1.770   .     S
C528   Cl557   1.768   .     S
C529   Cl558   1.767   .     S
C530   C34     1.418   1_655 S
H565   O663    1.014   .     S
H566   O683    1.014   .     S
H567   O685    1.014   .     S
H568   O687    1.014   .     S
H569   O689    1.014   .     S
H570   O692    1.014   .     S
H571   O694    1.014   .     S
H572   O696    1.014   .     S
H573   O698    1.013   .     S
H574   O700    1.014   .     S
H575   O703    1.014   .     S
H576   O665    1.014   .     S
H577   O705    1.013   .     S
H578   O707    1.013   .     S
H579   O709    1.014   .     S
H580   O711    1.014   .     S
H581   O599    1.013   .     S
H582   O601    1.013   .     S
H583   O603    1.014   .     S
H584   O605    1.014   .     S
H585   O607    1.014   .     S
H586   O610    1.013   .     S
H587   O667    1.014   .     S
H588   O612    1.014   .     S
H589   O614    1.014   .     S
H590   O616    1.014   .     S
H591   O670    1.014   .     S
H592   O672    1.014   .     S
H593   O674    1.014   .     S
H594   O676    1.014   .     S
H595   O678    1.014   .     S
H596   O681    1.014   .     S
O597   Zn1448  1.946   1_545 S
O597   Zn724   1.946   .     S
O597   Zn713   1.946   .     S
O597   Zn716   1.946   .     S
O598   Zn715   1.951   .     S
O598   C1198   1.277   .     S
O609   Zn718   1.951   .     S
O609   C107    1.277   1_655 A
O617   Zn717   1.951   .     S
O618   Zn727   1.951   .     S
O619   Zn726   1.951   .     S
O620   Zn721   1.951   .     S
O621   Zn713   1.951   .     S
O622   Zn723   1.951   .     S
O623   Zn722   1.951   .     S
O624   Zn725   1.951   .     S
O625   Zn725   1.946   .     S
O625   Zn1443  1.946   1_545 S
O625   Zn721   1.946   .     S
O625   Zn719   1.946   .     S
O626   Zn724   1.951   .     S
O627   Zn716   1.936   .     S
O628   Zn715   1.936   .     S
O629   Zn718   1.928   .     S
O630   Zn717   1.928   .     S
O631   Zn720   1.936   .     S
O632   Zn719   1.936   .     S
O633   Zn714   1.928   .     S
O634   Zn728   1.928   .     S
O635   Zn715   1.928   .     S
O636   Zn726   1.946   .     S
O636   Zn722   1.946   .     S
O636   Zn714   1.946   .     S
O637   Zn716   1.928   .     S
O638   Zn728   1.936   .     S
O639   Zn714   1.936   .     S
O640   Zn719   1.928   .     S
O641   Zn720   1.928   .     S
O642   Zn717   1.936   .     S
O643   Zn718   1.936   .     S
O644   Zn359   1.936   1_655 S
O645   Zn722   1.936   .     S
O646   Zn1453  1.928   .     S
O647   Zn727   1.946   .     S
O647   Zn723   1.946   .     S
O647   Zn717   1.946   .     S
O648   Zn724   1.928   .     S
O649   Zn727   1.936   .     S
O650   Zn362   1.936   1_655 S
O651   Zn721   1.928   .     S
O652   Zn1441  1.928   .     S
O653   Zn358   1.928   1_655 S
O654   Zn723   1.928   .     S
O655   Zn713   1.936   .     S
O656   Zn1449  1.936   .     S
O657   Zn726   1.928   .     S
O658   C1197   1.275   .     A
O658   Zn720   1.951   .     S
O659   Zn363   1.928   1_655 S
O660   Zn1452  1.936   .     S
O661   Zn725   1.936   .     S
O664   C44     1.223   1_655 S
O666   C1137   1.223   .     S
O669   Zn719   1.951   .     S
O670   C1139   1.398   1_545 S
O672   C48     1.398   1_655 S
O675   C1142   1.223   1_545 S
O678   C1143   1.398   .     S
O680   Zn714   1.951   .     S
O691   Zn728   1.951   .     S
O691   C108    1.275   1_655 A
O702   Zn716   1.951   .     S
Zn713  O1380   1.928   1_545 S
Zn715  O1353   1.946   .     S
Zn718  O272    1.946   1_655 S
Zn720  O1325   1.946   .     S
Zn721  O1384   1.936   1_545 S
Zn724  O1388   1.936   1_545 S
Zn725  O1374   1.928   1_545 S
Zn728  O283    1.946   1_655 S
C729   C806    1.408   .     A
C729   C789    1.489   .     S
C729   C732    1.416   .     A
C730   C799    1.490   .     S
C730   C742    1.420   .     A
C730   C84     1.405   1_565 S
C731   C875    1.416   .     A
C731   C818    1.420   .     A
C731   C38     1.418   1_565 A
C732   C819    1.420   .     A
C732   C762    1.418   .     A
C733   C809    1.416   .     A
C733   C821    1.423   .     A
C733   C1128   1.421   .     S
C734   C822    1.423   .     A
C734   C820    1.416   .     A
C734   C37     1.421   1_565 A
C735   C831    1.416   .     A
C735   C823    1.420   .     A
C735   C766    1.418   .     S
C736   C763    1.419   .     A
C736   C824    1.421   .     A
C736   C39     1.423   1_565 A
C737   C774    1.420   .     A
C737   C825    1.424   .     A
C737   C768    1.423   .     S
C738   C826    1.422   .     A
C738   C785    1.418   .     A
C738   C769    1.420   .     S
C739   C827    1.421   .     A
C739   C796    1.419   .     A
C739   C1134   1.420   .     A
C740   C886    1.419   .     A
C740   C828    1.421   .     A
C740   C767    1.423   .     S
C741   C800    1.492   .     S
C741   C1177   1.407   .     A
C741   C743    1.418   .     A
C742   C829    1.424   .     A
C742   C40     1.423   1_565 A
C743   C1133   1.420   .     A
C743   C830    1.422   .     A
C744   C832    1.421   .     A
C744   C752    1.419   .     A
C744   C770    1.420   .     S
C745   C878    1.405   .     A
C745   C848    1.449   .     S
C745   C876    1.405   .     A
C746   C849    1.448   .     S
C746   C877    1.404   .     A
C746   C874    1.404   .     A
C747   C841    1.455   .     S
C747   C873    1.407   .     A
C747   C880    1.407   .     A
C748   C872    1.407   .     A
C748   C879    1.407   .     A
C748   C843    1.455   .     S
C749   C844    1.449   .     S
C749   C882    1.405   .     A
C749   C871    1.405   .     A
C750   C881    1.404   .     A
C750   C845    1.448   .     S
C750   C870    1.404   .     A
C751   C846    1.455   .     S
C751   C869    1.407   .     A
C751   C884    1.407   .     A
C752   C801    1.492   .     S
C752   C814    1.406   .     S
C753   C847    1.455   .     S
C753   C868    1.407   .     A
C753   C883    1.407   .     A
C754   C867    1.407   .     A
C754   C887    1.408   .     A
C754   C857    1.455   .     S
C755   C866    1.407   .     A
C755   C885    1.407   .     A
C755   C858    1.455   .     S
C756   C865    1.405   .     A
C756   C850    1.449   .     S
C756   C889    1.405   .     A
C757   C863    1.404   .     A
C757   C888    1.405   .     A
C757   C851    1.448   .     S
C758   C891    1.408   .     A
C758   C862    1.407   .     A
C758   C852    1.455   .     S
C759   C890    1.407   .     A
C759   C861    1.407   .     A
C759   C854    1.455   .     S
C760   C893    1.405   .     A
C760   C855    1.449   .     S
C760   C860    1.405   .     A
C761   C892    1.405   .     A
C761   C859    1.404   .     A
C761   C856    1.448   .     S
C762   C764    1.409   .     A
C762   C1258   1.418   1_455 S
C763   C802    1.490   .     S
C763   C83     1.402   1_565 A
C764   C895    1.421   .     A
C764   C1097   1.421   1_455 S
C765   C766    1.410   .     A
C765   C896    1.421   .     S
C767   C768    1.414   1_556 S
C768   C767    1.414   1_554 S
C769   C1107   1.420   1_455 A
C769   C770    1.412   1_556 S
C770   C1103   1.420   1_455 A
C770   C769    1.412   1_554 S
C771   O1026   1.223   .     D
C771   C815    1.489   .     S
C771   O1391   1.398   .     S
C772   O1029   1.398   .     S
C772   C816    1.488   .     S
C772   O1392   1.223   1_455 S
C773   O1031   1.398   .     S
C773   C817    1.488   .     S
C774   C812    1.405   .     A
C774   C803    1.490   .     S
C775   C818    1.489   .     S
C775   O1032   1.223   .     D
C775   O306    1.398   1_565 S
C776   C819    1.489   .     S
C776   O1035   1.223   .     D
C776   O1400   1.398   1_455 S
C777   C821    1.488   .     S
C777   O1038   1.398   .     S
C777   O1401   1.223   .     S
C778   C822    1.488   .     S
C778   O1040   1.398   .     S
C778   O311    1.223   1_565 S
C779   O1041   1.223   .     D
C779   C823    1.489   .     S
C780   O1043   1.223   .     D
C780   O1045   1.398   .     S
C780   C824    1.489   .     S
C781   C825    1.488   .     S
C781   O1046   1.223   .     D
C781   O1047   1.398   .     S
C782   O1048   1.223   .     D
C782   O1049   1.398   .     S
C782   C826    1.489   .     S
C783   O1050   1.222   .     D
C783   C827    1.489   .     S
C783   O1051   1.398   .     S
C784   O1053   1.398   .     S
C784   O1052   1.223   .     D
C784   C828    1.489   .     S
C785   C804    1.492   .     S
C785   C813    1.407   .     S
C786   C829    1.488   .     S
C786   O1056   1.398   .     S
C786   O1054   1.223   .     D
C787   O1058   1.398   .     S
C787   C830    1.489   .     S
C787   O1057   1.223   .     D
C788   O1059   1.222   .     D
C788   O1060   1.398   .     S
C788   C832    1.489   .     S
C789   O1062   1.397   .     S
C789   O1061   1.223   .     D
C790   C809    1.491   .     S
C790   O1063   1.223   .     D
C790   O1064   1.398   .     S
C791   O1067   1.398   .     S
C791   O1065   1.223   .     D
C791   C820    1.491   .     S
C792   C831    1.489   .     S
C792   O1068   1.223   .     D
C792   O1069   1.397   .     S
C793   O1070   1.223   .     D
C793   O1071   1.397   .     S
C793   C842    1.489   .     S
C794   O1073   1.398   .     S
C794   O1072   1.223   .     D
C794   C853    1.491   .     S
C795   O1075   1.398   .     S
C795   C864    1.491   .     S
C795   O1074   1.223   .     D
C796   C805    1.492   .     S
C796   C1178   1.406   .     A
C797   C875    1.489   .     S
C797   O1076   1.223   .     D
C797   O963    1.397   .     S
C798   O965    1.399   .     S
C798   C886    1.490   .     S
C798   O964    1.223   .     D
C799   O966    1.223   .     D
C799   O967    1.399   .     S
C800   O968    1.223   .     D
C800   O969    1.398   .     S
C801   O970    1.223   .     D
C801   O971    1.399   .     S
C802   O972    1.223   .     D
C802   O974    1.399   .     S
C803   O976    1.399   .     S
C803   O975    1.223   .     D
C804   O978    1.398   .     S
C804   O977    1.223   .     D
C805   O980    1.399   .     S
C805   O979    1.223   .     D
C806   C835    1.462   .     S
C806   C1206   1.408   1_455 S
C807   C853    1.408   .     A
C807   C1173   1.408   1_455 S
C807   C836    1.458   .     S
C808   C833    1.458   .     S
C808   C864    1.408   .     S
C809   C1171   1.408   .     S
C810   C834    1.462   .     S
C810   C831    1.408   .     A
C811   C839    1.454   .     S
C811   C886    1.402   .     S
C812   C840    1.462   .     S
C813   C1105   1.407   1_455 A
C813   C837    1.458   .     S
C814   C838    1.458   .     S
C814   C1160   1.406   1_455 A
C815   C821    1.410   .     A
C815   C894    1.420   .     A
C816   C819    1.410   .     A
C816   C895    1.423   .     A
C817   C823    1.410   .     A
C817   C896    1.423   .     A
C818   C822    1.410   .     A
C820   C80     1.408   1_565 A
C824   C829    1.409   1_556 S
C825   C828    1.409   1_554 S
C826   C832    1.412   1_556 S
C827   C830    1.412   1_554 S
C828   C825    1.409   1_556 S
C829   C824    1.409   1_554 S
C830   C827    1.412   1_556 S
C832   C826    1.412   1_554 S
C833   O1066   1.275   .     S
C834   O1033   1.277   .     A
C835   O1337   1.277   1_455 A
C835   O1044   1.277   .     S
C836   O1419   1.275   1_455 A
C836   O981    1.275   .     S
C837   O982    1.276   .     A
C837   O986    1.276   .     A
C838   O983    1.275   .     A
C838   O987    1.275   .     A
C839   O988    1.274   .     A
C839   O984    1.274   .     A
C840   O985    1.276   .     A
C840   O990    1.276   .     A
C841   O991    1.279   .     A
C841   O1019   1.279   .     A
C842   C894    1.416   .     A
C842   C1170   1.408   .     S
C843   O1020   1.279   .     A
C843   O992    1.279   .     A
C844   O1017   1.278   .     A
C844   O993    1.280   .     A
C845   O1018   1.278   .     A
C845   O994    1.278   .     A
C846   O995    1.279   .     A
C846   O1024   1.278   .     A
C847   O996    1.279   .     A
C847   O1025   1.279   .     A
C848   O997    1.280   .     A
C848   O1021   1.278   .     A
C849   O1023   1.278   .     A
C849   O998    1.278   .     A
C850   O999    1.280   .     A
C850   O1010   1.278   .     A
C851   O1001   1.278   .     A
C851   O1012   1.279   .     A
C852   O1008   1.279   .     A
C852   O1002   1.279   .     A
C853   C895    1.416   .     A
C854   O1009   1.279   .     A
C854   O1003   1.279   .     A
C855   O1015   1.278   .     A
C855   O1004   1.280   .     A
C856   O1016   1.279   .     A
C856   O1005   1.278   .     A
C857   O1013   1.279   .     A
C857   O1006   1.279   .     A
C858   O1014   1.279   .     A
C858   O1007   1.279   .     A
C859   Cl897   1.768   .     S
C859   C876    1.397   .     A
C860   Cl908   1.767   .     S
C860   C874    1.397   .     A
C861   C873    1.396   .     A
C861   Cl919   1.769   .     S
C862   C872    1.396   .     A
C862   Cl923   1.770   .     S
C863   Cl924   1.768   .     S
C863   C871    1.397   .     A
C864   C896    1.416   .     A
C865   Cl925   1.767   .     S
C865   C870    1.397   .     A
C866   C869    1.396   .     A
C866   Cl926   1.769   .     S
C867   C868    1.396   .     A
C867   Cl927   1.770   .     S
C868   Cl928   1.770   .     S
C869   Cl898   1.770   .     S
C870   Cl899   1.768   .     S
C871   Cl900   1.767   .     S
C872   Cl901   1.770   .     S
C873   Cl902   1.770   .     S
C874   Cl903   1.768   .     S
C875   C82     1.408   1_565 S
C876   Cl904   1.767   .     S
C877   C893    1.397   .     A
C877   Cl905   1.768   .     S
C878   C892    1.397   .     A
C878   Cl906   1.768   .     S
C879   Cl907   1.770   .     S
C879   C891    1.397   .     A
C880   Cl909   1.770   .     S
C880   C890    1.397   .     A
C881   C889    1.397   .     A
C881   Cl910   1.768   .     S
C882   Cl911   1.768   .     S
C882   C888    1.398   .     A
C883   C887    1.397   .     A
C883   Cl912   1.770   .     S
C884   Cl913   1.770   .     S
C884   C885    1.397   .     A
C885   Cl914   1.770   .     S
C887   Cl915   1.770   .     S
C888   Cl916   1.768   .     S
C889   Cl917   1.767   .     S
C890   Cl918   1.770   .     S
C891   Cl920   1.770   .     S
C892   Cl921   1.768   .     S
C893   Cl922   1.767   .     S
C894   C1126   1.418   .     S
H929   O1027   1.014   .     S
H930   O1047   1.014   .     S
H931   O1049   1.014   .     S
H932   O1051   1.014   .     S
H933   O1053   1.014   .     S
H934   O1056   1.014   .     S
H935   O1058   1.014   .     S
H936   O1060   1.014   .     S
H937   O1062   1.013   .     S
H938   O1064   1.014   .     S
H939   O1067   1.014   .     S
H940   O1029   1.014   .     S
H941   O1069   1.013   .     S
H942   O1071   1.013   .     S
H943   O1073   1.014   .     S
H944   O1075   1.014   .     S
H945   O963    1.013   .     S
H946   O965    1.013   .     S
H947   O967    1.014   .     S
H948   O969    1.014   .     S
H949   O971    1.014   .     S
H950   O974    1.013   .     S
H951   O1031   1.014   .     S
H952   O976    1.014   .     S
H953   O978    1.014   .     S
H954   O980    1.014   .     S
H955   O1034   1.014   .     S
H956   O1036   1.014   .     S
H957   O1038   1.014   .     S
H958   O1040   1.014   .     S
H959   O1042   1.014   .     S
H960   O1045   1.014   .     S
O961   Zn1088  1.946   .     S
O961   Zn1077  1.946   .     S
O961   Zn1080  1.946   .     S
O962   Zn1079  1.951   .     S
O962   C106    1.277   1_565 S
O973   Zn1082  1.951   .     S
O973   C1199   1.277   .     A
O981   Zn1081  1.951   .     S
O982   Zn1091  1.951   .     S
O983   Zn1090  1.951   .     S
O984   Zn1085  1.951   .     S
O985   Zn1077  1.951   .     S
O986   Zn1087  1.951   .     S
O987   Zn1086  1.951   .     S
O988   Zn1089  1.951   .     S
O989   Zn1089  1.946   .     S
O989   Zn1085  1.946   .     S
O989   Zn1083  1.946   .     S
O990   Zn1088  1.951   .     S
O991   Zn1080  1.936   .     S
O992   Zn1079  1.936   .     S
O993   Zn1082  1.928   .     S
O994   Zn1081  1.928   .     S
O995   Zn1084  1.936   .     S
O996   Zn1083  1.936   .     S
O997   Zn1078  1.928   .     S
O998   Zn1092  1.928   .     S
O999   Zn1079  1.928   .     S
O1000  Zn1090  1.946   .     S
O1000  Zn1086  1.946   .     S
O1000  Zn1446  1.946   1_455 S
O1000  Zn1078  1.946   .     S
O1001  Zn1080  1.928   .     S
O1002  Zn1092  1.936   .     S
O1003  Zn1078  1.936   .     S
O1004  Zn1083  1.928   .     S
O1005  Zn1084  1.928   .     S
O1006  Zn1081  1.936   .     S
O1007  Zn1082  1.936   .     S
O1008  Zn1451  1.936   .     S
O1009  Zn1086  1.936   .     S
O1010  Zn361   1.928   1_565 S
O1011  Zn1091  1.946   .     S
O1011  Zn1087  1.946   .     S
O1011  Zn1456  1.946   1_455 S
O1011  Zn1081  1.946   .     S
O1012  Zn1088  1.928   .     S
O1013  Zn1091  1.936   .     S
O1014  Zn1454  1.936   .     S
O1015  Zn1085  1.928   .     S
O1016  Zn349   1.928   1_565 S
O1017  Zn1450  1.928   .     S
O1018  Zn1087  1.928   .     S
O1019  Zn1077  1.936   .     S
O1020  Zn357   1.936   1_565 S
O1021  Zn1090  1.928   .     S
O1022  C105    1.275   1_565 A
O1022  Zn1084  1.951   .     S
O1023  Zn1455  1.928   .     S
O1024  Zn360   1.936   1_565 S
O1025  Zn1089  1.936   .     S
O1027  C1135   1.398   1_455 S
O1028  C1136   1.223   .     S
O1030  C45     1.223   1_565 S
O1033  Zn1083  1.951   .     S
O1036  C1140   1.398   .     S
O1037  C1141   1.223   1_455 S
O1042  C51     1.398   1_565 S
O1044  Zn1078  1.951   .     S
O1055  Zn1092  1.951   .     S
O1055  C1200   1.275   .     A
O1066  Zn1080  1.951   .     S
Zn1079 O261    1.946   1_565 S
Zn1082 O1364   1.946   .     S
Zn1084 O233    1.946   1_565 S
Zn1086 O1381   1.928   1_455 S
Zn1087 O1372   1.936   1_455 S
Zn1090 O1378   1.936   1_455 S
Zn1091 O1387   1.928   1_455 S
Zn1092 O1375   1.946   .     S
C1093  C1170   1.408   .     A
C1093  C1153   1.489   .     S
C1093  C1096   1.416   .     A
C1094  C1163   1.490   .     S
C1094  C1106   1.420   .     A
C1094  C448    1.405   1_565 S
C1095  C1239   1.416   .     A
C1095  C1182   1.420   .     A
C1095  C402    1.418   1_565 A
C1096  C1183   1.420   .     A
C1096  C1126   1.418   .     A
C1097  C1173   1.416   .     A
C1097  C1185   1.423   .     A
C1097  C764    1.421   1_655 S
C1098  C1186   1.423   .     A
C1098  C1184   1.416   .     A
C1098  C401    1.421   1_565 A
C1099  C1195   1.416   .     A
C1099  C1187   1.420   .     A
C1099  C1130   1.418   .     S
C1100  C1127   1.419   .     A
C1100  C1188   1.421   .     A
C1100  C403    1.423   1_565 A
C1101  C1138   1.420   .     A
C1101  C1189   1.424   .     A
C1101  C1132   1.423   .     S
C1102  C1190   1.422   .     A
C1102  C1149   1.418   .     A
C1102  C1133   1.420   .     S
C1103  C1191   1.421   .     A
C1103  C1160   1.419   .     A
C1103  C770    1.420   1_655 A
C1104  C1250   1.419   .     A
C1104  C1192   1.421   .     A
C1104  C1131   1.423   .     S
C1105  C1164   1.492   .     S
C1105  C813    1.407   1_655 A
C1105  C1107   1.418   .     A
C1106  C1193   1.424   .     A
C1106  C404    1.423   1_565 A
C1107  C769    1.420   1_655 A
C1107  C1194   1.422   .     A
C1108  C1196   1.421   .     A
C1108  C1116   1.419   .     A
C1108  C1134   1.420   .     S
C1109  C1242   1.405   .     A
C1109  C1212   1.449   .     S
C1109  C1240   1.405   .     A
C1110  C1213   1.448   .     S
C1110  C1241   1.404   .     A
C1110  C1238   1.404   .     A
C1111  C1205   1.455   .     S
C1111  C1237   1.407   .     A
C1111  C1244   1.407   .     A
C1112  C1236   1.407   .     A
C1112  C1243   1.407   .     A
C1112  C1207   1.455   .     S
C1113  C1208   1.449   .     S
C1113  C1246   1.405   .     A
C1113  C1235   1.405   .     A
C1114  C1245   1.404   .     A
C1114  C1209   1.448   .     S
C1114  C1234   1.404   .     A
C1115  C1210   1.455   .     S
C1115  C1233   1.407   .     A
C1115  C1248   1.407   .     A
C1116  C1165   1.492   .     S
C1116  C1178   1.406   .     S
C1117  C1211   1.455   .     S
C1117  C1232   1.407   .     A
C1117  C1247   1.407   .     A
C1118  C1231   1.407   .     A
C1118  C1251   1.408   .     A
C1118  C1221   1.455   .     S
C1119  C1230   1.407   .     A
C1119  C1249   1.407   .     A
C1119  C1222   1.455   .     S
C1120  C1229   1.405   .     A
C1120  C1214   1.449   .     S
C1120  C1253   1.405   .     A
C1121  C1227   1.404   .     A
C1121  C1252   1.405   .     A
C1121  C1215   1.448   .     S
C1122  C1255   1.408   .     A
C1122  C1226   1.407   .     A
C1122  C1216   1.455   .     S
C1123  C1254   1.407   .     A
C1123  C1225   1.407   .     A
C1123  C1218   1.455   .     S
C1124  C1257   1.405   .     A
C1124  C1219   1.449   .     S
C1124  C1224   1.405   .     A
C1125  C1256   1.405   .     A
C1125  C1223   1.404   .     A
C1125  C1220   1.448   .     S
C1126  C1128   1.409   .     A
C1127  C1166   1.490   .     S
C1127  C447    1.402   1_565 A
C1128  C1259   1.421   .     A
C1129  C1130   1.410   .     A
C1129  C1260   1.421   .     S
C1131  C1132   1.414   1_556 S
C1132  C1131   1.414   1_554 S
C1133  C1134   1.412   1_556 S
C1134  C1133   1.412   1_554 S
C1135  O1390   1.223   .     D
C1135  C1179   1.489   .     S
C1135  O1027   1.398   1_655 S
C1136  O1393   1.398   .     S
C1136  C1180   1.488   .     S
C1137  O1395   1.398   .     S
C1137  C1181   1.488   .     S
C1138  C1176   1.405   .     A
C1138  C1167   1.490   .     S
C1139  C1182   1.489   .     S
C1139  O1396   1.223   .     D
C1139  O670    1.398   1_565 S
C1140  C1183   1.489   .     S
C1140  O1399   1.223   .     D
C1141  C1185   1.488   .     S
C1141  O1402   1.398   .     S
C1141  O1037   1.223   1_655 S
C1142  C1186   1.488   .     S
C1142  O1404   1.398   .     S
C1142  O675    1.223   1_565 S
C1143  O1405   1.223   .     D
C1143  C1187   1.489   .     S
C1144  O1407   1.223   .     D
C1144  O1409   1.398   .     S
C1144  C1188   1.489   .     S
C1145  C1189   1.488   .     S
C1145  O1410   1.223   .     D
C1145  O1411   1.398   .     S
C1146  O1412   1.223   .     D
C1146  O1413   1.398   .     S
C1146  C1190   1.489   .     S
C1147  O1414   1.222   .     D
C1147  C1191   1.489   .     S
C1147  O1415   1.398   .     S
C1148  O1417   1.398   .     S
C1148  O1416   1.223   .     D
C1148  C1192   1.489   .     S
C1149  C1168   1.492   .     S
C1149  C1177   1.407   .     S
C1150  C1193   1.488   .     S
C1150  O1420   1.398   .     S
C1150  O1418   1.223   .     D
C1151  O1422   1.398   .     S
C1151  C1194   1.489   .     S
C1151  O1421   1.223   .     D
C1152  O1423   1.222   .     D
C1152  O1424   1.398   .     S
C1152  C1196   1.489   .     S
C1153  O1426   1.397   .     S
C1153  O1425   1.223   .     D
C1154  C1173   1.491   .     S
C1154  O1427   1.223   .     D
C1154  O1428   1.398   .     S
C1155  O1431   1.398   .     S
C1155  O1429   1.223   .     D
C1155  C1184   1.491   .     S
C1156  C1195   1.489   .     S
C1156  O1432   1.223   .     D
C1156  O1433   1.397   .     S
C1157  O1434   1.223   .     D
C1157  O1435   1.397   .     S
C1157  C1206   1.489   .     S
C1158  O1437   1.398   .     S
C1158  O1436   1.223   .     D
C1158  C1217   1.491   .     S
C1159  O1439   1.398   .     S
C1159  C1228   1.491   .     S
C1159  O1438   1.223   .     D
C1160  C1169   1.492   .     S
C1160  C814    1.406   1_655 A
C1161  C1239   1.489   .     S
C1161  O1440   1.223   .     D
C1161  O1327   1.397   .     S
C1162  O1329   1.399   .     S
C1162  C1250   1.490   .     S
C1162  O1328   1.223   .     D
C1163  O1330   1.223   .     D
C1163  O1331   1.399   .     S
C1164  O1332   1.223   .     D
C1164  O1333   1.398   .     S
C1165  O1334   1.223   .     D
C1165  O1335   1.399   .     S
C1166  O1336   1.223   .     D
C1166  O1338   1.399   .     S
C1167  O1340   1.399   .     S
C1167  O1339   1.223   .     D
C1168  O1342   1.398   .     S
C1168  O1341   1.223   .     D
C1169  O1344   1.399   .     S
C1169  O1343   1.223   .     D
C1170  C1199   1.462   .     S
C1171  C1217   1.408   .     A
C1171  C1200   1.458   .     S
C1172  C1197   1.458   .     S
C1172  C1228   1.408   .     S
C1173  C807    1.408   1_655 S
C1174  C1198   1.462   .     S
C1174  C1195   1.408   .     A
C1175  C1203   1.454   .     S
C1175  C1250   1.402   .     S
C1176  C1204   1.462   .     S
C1177  C1201   1.458   .     S
C1178  C1202   1.458   .     S
C1179  C1185   1.410   .     A
C1179  C1258   1.420   .     A
C1180  C1183   1.410   .     A
C1180  C1259   1.423   .     A
C1181  C1187   1.410   .     A
C1181  C1260   1.423   .     A
C1182  C1186   1.410   .     A
C1184  C444    1.408   1_565 A
C1188  C1193   1.409   1_556 S
C1189  C1192   1.409   1_554 S
C1190  C1196   1.412   1_556 S
C1191  C1194   1.412   1_554 S
C1192  C1189   1.409   1_556 S
C1193  C1188   1.409   1_554 S
C1194  C1191   1.412   1_556 S
C1196  C1190   1.412   1_554 S
C1197  O1430   1.275   .     S
C1198  O1397   1.277   .     A
C1199  O1408   1.277   .     S
C1200  O1345   1.275   .     S
C1201  O1346   1.276   .     A
C1201  O1350   1.276   .     A
C1202  O1347   1.275   .     A
C1202  O1351   1.275   .     A
C1203  O1352   1.274   .     A
C1203  O1348   1.274   .     A
C1204  O1349   1.276   .     A
C1204  O1354   1.276   .     A
C1205  O1355   1.279   .     A
C1205  O1383   1.279   .     A
C1206  C1258   1.416   .     A
C1206  C806    1.408   1_655 S
C1207  O1384   1.279   .     A
C1207  O1356   1.279   .     A
C1208  O1381   1.278   .     A
C1208  O1357   1.280   .     A
C1209  O1382   1.278   .     A
C1209  O1358   1.278   .     A
C1210  O1359   1.279   .     A
C1210  O1388   1.278   .     A
C1211  O1360   1.279   .     A
C1211  O1389   1.279   .     A
C1212  O1361   1.280   .     A
C1212  O1385   1.278   .     A
C1213  O1387   1.278   .     A
C1213  O1362   1.278   .     A
C1214  O1363   1.280   .     A
C1214  O1374   1.278   .     A
C1215  O1365   1.278   .     A
C1215  O1376   1.279   .     A
C1216  O1372   1.279   .     A
C1216  O1366   1.279   .     A
C1217  C1259   1.416   .     A
C1218  O1373   1.279   .     A
C1218  O1367   1.279   .     A
C1219  O1379   1.278   .     A
C1219  O1368   1.280   .     A
C1220  O1380   1.279   .     A
C1220  O1369   1.278   .     A
C1221  O1377   1.279   .     A
C1221  O1370   1.279   .     A
C1222  O1378   1.279   .     A
C1222  O1371   1.279   .     A
C1223  Cl1261  1.768   .     S
C1223  C1240   1.397   .     A
C1224  Cl1272  1.767   .     S
C1224  C1238   1.397   .     A
C1225  C1237   1.396   .     A
C1225  Cl1283  1.769   .     S
C1226  C1236   1.396   .     A
C1226  Cl1287  1.770   .     S
C1227  Cl1288  1.768   .     S
C1227  C1235   1.397   .     A
C1228  C1260   1.416   .     A
C1229  Cl1289  1.767   .     S
C1229  C1234   1.397   .     A
C1230  C1233   1.396   .     A
C1230  Cl1290  1.769   .     S
C1231  C1232   1.396   .     A
C1231  Cl1291  1.770   .     S
C1232  Cl1292  1.770   .     S
C1233  Cl1262  1.770   .     S
C1234  Cl1263  1.768   .     S
C1235  Cl1264  1.767   .     S
C1236  Cl1265  1.770   .     S
C1237  Cl1266  1.770   .     S
C1238  Cl1267  1.768   .     S
C1239  C446    1.408   1_565 S
C1240  Cl1268  1.767   .     S
C1241  C1257   1.397   .     A
C1241  Cl1269  1.768   .     S
C1242  C1256   1.397   .     A
C1242  Cl1270  1.768   .     S
C1243  Cl1271  1.770   .     S
C1243  C1255   1.397   .     A
C1244  Cl1273  1.770   .     S
C1244  C1254   1.397   .     A
C1245  C1253   1.397   .     A
C1245  Cl1274  1.768   .     S
C1246  Cl1275  1.768   .     S
C1246  C1252   1.398   .     A
C1247  C1251   1.397   .     A
C1247  Cl1276  1.770   .     S
C1248  Cl1277  1.770   .     S
C1248  C1249   1.397   .     A
C1249  Cl1278  1.770   .     S
C1251  Cl1279  1.770   .     S
C1252  Cl1280  1.768   .     S
C1253  Cl1281  1.767   .     S
C1254  Cl1282  1.770   .     S
C1255  Cl1284  1.770   .     S
C1256  Cl1285  1.768   .     S
C1257  Cl1286  1.767   .     S
C1258  C762    1.418   1_655 S
H1293  O1391   1.014   .     S
H1294  O1411   1.014   .     S
H1295  O1413   1.014   .     S
H1296  O1415   1.014   .     S
H1297  O1417   1.014   .     S
H1298  O1420   1.014   .     S
H1299  O1422   1.014   .     S
H1300  O1424   1.014   .     S
H1301  O1426   1.013   .     S
H1302  O1428   1.014   .     S
H1303  O1431   1.014   .     S
H1304  O1393   1.014   .     S
H1305  O1433   1.013   .     S
H1306  O1435   1.013   .     S
H1307  O1437   1.014   .     S
H1308  O1439   1.014   .     S
H1309  O1327   1.013   .     S
H1310  O1329   1.013   .     S
H1311  O1331   1.014   .     S
H1312  O1333   1.014   .     S
H1313  O1335   1.014   .     S
H1314  O1338   1.013   .     S
H1315  O1395   1.014   .     S
H1316  O1340   1.014   .     S
H1317  O1342   1.014   .     S
H1318  O1344   1.014   .     S
H1319  O1398   1.014   .     S
H1320  O1400   1.014   .     S
H1321  O1402   1.014   .     S
H1322  O1404   1.014   .     S
H1323  O1406   1.014   .     S
H1324  O1409   1.014   .     S
O1325  Zn1452  1.946   .     S
O1325  Zn1441  1.946   .     S
O1325  Zn1444  1.946   .     S
O1326  Zn1443  1.951   .     S
O1326  C470    1.277   1_565 S
O1337  Zn1446  1.951   .     S
O1337  C835    1.277   1_655 A
O1345  Zn1445  1.951   .     S
O1346  Zn1455  1.951   .     S
O1347  Zn1454  1.951   .     S
O1348  Zn1449  1.951   .     S
O1349  Zn1441  1.951   .     S
O1350  Zn1451  1.951   .     S
O1351  Zn1450  1.951   .     S
O1352  Zn1453  1.951   .     S
O1353  Zn1453  1.946   .     S
O1353  Zn1449  1.946   .     S
O1353  Zn1447  1.946   .     S
O1354  Zn1452  1.951   .     S
O1355  Zn1444  1.936   .     S
O1356  Zn1443  1.936   .     S
O1357  Zn1446  1.928   .     S
O1358  Zn1445  1.928   .     S
O1359  Zn1448  1.936   .     S
O1360  Zn1447  1.936   .     S
O1361  Zn1442  1.928   .     S
O1362  Zn1456  1.928   .     S
O1363  Zn1443  1.928   .     S
O1364  Zn1454  1.946   .     S
O1364  Zn1450  1.946   .     S
O1364  Zn1442  1.946   .     S
O1365  Zn1444  1.928   .     S
O1366  Zn1456  1.936   .     S
O1367  Zn1442  1.936   .     S
O1368  Zn1447  1.928   .     S
O1369  Zn1448  1.928   .     S
O1370  Zn1445  1.936   .     S
O1371  Zn1446  1.936   .     S
O1372  Zn1087  1.936   1_655 S
O1373  Zn1450  1.936   .     S
O1374  Zn725   1.928   1_565 S
O1375  Zn1455  1.946   .     S
O1375  Zn1451  1.946   .     S
O1375  Zn1445  1.946   .     S
O1376  Zn1452  1.928   .     S
O1377  Zn1455  1.936   .     S
O1378  Zn1090  1.936   1_655 S
O1379  Zn1449  1.928   .     S
O1380  Zn713   1.928   1_565 S
O1381  Zn1086  1.928   1_655 S
O1382  Zn1451  1.928   .     S
O1383  Zn1441  1.936   .     S
O1384  Zn721   1.936   1_565 S
O1385  Zn1454  1.928   .     S
O1386  C469    1.275   1_565 A
O1386  Zn1448  1.951   .     S
O1387  Zn1091  1.928   1_655 S
O1388  Zn724   1.936   1_565 S
O1389  Zn1453  1.936   .     S
O1392  C772    1.223   1_655 S
O1394  C409    1.223   1_565 S
O1397  Zn1447  1.951   .     S
O1400  C776    1.398   1_655 S
O1406  C415    1.398   1_565 S
O1408  Zn1442  1.951   .     S
O1419  Zn1456  1.951   .     S
O1419  C836    1.275   1_655 A
O1430  Zn1444  1.951   .     S
Zn1443 O625    1.946   1_565 S
Zn1446 O1000   1.946   1_655 S
Zn1448 O597    1.946   1_565 S
Zn1456 O1011   1.946   1_655 S
