data_str_m2_o1_o17_pcu_sym.44
_audit_creation_date              2020-01-03
_audit_creation_method            'Materials Studio'
_symmetry_space_group_name_H-M    'P1'
_symmetry_Int_Tables_number       1
_symmetry_cell_setting            triclinic
loop_
_symmetry_equiv_pos_as_xyz
  x,y,z
_cell_length_a                    32.4966
_cell_length_b                    28.5440
_cell_length_c                    30.1652
_cell_angle_alpha                 89.6321
_cell_angle_beta                  90.1212
_cell_angle_gamma                 90.0369
loop_
_atom_site_label
_atom_site_type_symbol
_atom_site_fract_x
_atom_site_fract_y
_atom_site_fract_z
_atom_site_U_iso_or_equiv
_atom_site_adp_type
_atom_site_occupancy
O1     O     0.10655   0.20625   0.24999   0.00000  Uiso   1.00
O2     O     0.22679   0.12709   0.25000   0.00000  Uiso   1.00
O3     O     0.22679   0.20625   0.25000   0.00000  Uiso   1.00
O4     O     0.10655   0.12709   0.24999   0.00000  Uiso   1.00
C5     C     0.08735   0.16666   0.24995   0.00000  Uiso   1.00
C6     C     0.24598   0.16668   0.25005   0.00000  Uiso   1.00
O7     O     0.16666   0.20627   0.18513   0.00000  Uiso   1.00
O8     O     0.16668   0.12707   0.31487   0.00000  Uiso   1.00
O9     O     0.16668   0.20627   0.31487   0.00000  Uiso   1.00
O10    O     0.16666   0.12707   0.18513   0.00000  Uiso   1.00
C11    C     0.16564   0.16684   0.16437   0.00000  Uiso   1.00
C12    C     0.16766   0.16650   0.33563   0.00000  Uiso   1.00
Cu13   Cu    0.16667   0.21355   0.25000   0.00000  Uiso   1.00
Cu14   Cu    0.16667   0.11978   0.25000   0.00000  Uiso   1.00
C15    C     0.19017   0.13086   0.40771   0.00000  Uiso   1.00
C16    C     0.14298   0.20242   0.09230   0.00000  Uiso   1.00
C17    C     0.16888   0.16616   0.38399   0.00000  Uiso   1.00
C18    C     0.16433   0.16715   0.11602   0.00000  Uiso   1.00
C19    C     0.14745   0.20118   0.40642   0.00000  Uiso   1.00
C20    C     0.18571   0.13210   0.09358   0.00000  Uiso   1.00
C21    C     0.14615   0.20136   0.45246   0.00000  Uiso   1.00
C22    C     0.18693   0.13187   0.04754   0.00000  Uiso   1.00
C23    C     0.16709   0.16632   0.47668   0.00000  Uiso   1.00
C24    C     0.16598   0.16691   0.02332   0.00000  Uiso   1.00
C25    C     0.18928   0.13089   0.45439   0.00000  Uiso   1.00
C26    C     0.14380   0.20234   0.04562   0.00000  Uiso   1.00
C27    C     0.12387   0.23596   0.47456   0.00000  Uiso   1.00
C28    C     0.20917   0.09724   0.02544   0.00000  Uiso   1.00
C29    C     0.12244   0.23632   0.02063   0.00000  Uiso   1.00
C30    C     0.21059   0.09687   0.47937   0.00000  Uiso   1.00
H31    H     0.13095   0.22792   0.38783   0.00000  Uiso   1.00
H32    H     0.20222   0.10537   0.11216   0.00000  Uiso   1.00
H33    H     0.10734   0.26274   0.45615   0.00000  Uiso   1.00
H34    H     0.22568   0.07044   0.04385   0.00000  Uiso   1.00
H35    H     0.10438   0.26333   0.03632   0.00000  Uiso   1.00
H36    H     0.22861   0.06983   0.46368   0.00000  Uiso   1.00
C37    C     0.02126   0.12410   0.25136   0.00000  Uiso   1.00
C38    C     0.31207   0.20923   0.24864   0.00000  Uiso   1.00
C39    C     0.31202   0.12411   0.25146   0.00000  Uiso   1.00
C40    C     0.02131   0.20922   0.24854   0.00000  Uiso   1.00
H41    H     0.03725   0.09083   0.25247   0.00000  Uiso   1.00
H42    H     0.29608   0.24251   0.24753   0.00000  Uiso   1.00
H43    H     0.29599   0.09085   0.25266   0.00000  Uiso   1.00
H44    H     0.03735   0.24249   0.24734   0.00000  Uiso   1.00
C45    C     0.29060   0.16668   0.25008   0.00000  Uiso   1.00
C46    C     0.04274   0.16666   0.24992   0.00000  Uiso   1.00
C47    C     0.13852   0.02495   0.22552   0.00000  Uiso   1.00
C48    C     0.19482   0.30838   0.27448   0.00000  Uiso   1.00
C49    C     0.19485   0.02466   0.27442   0.00000  Uiso   1.00
C50    C     0.13848   0.30868   0.22558   0.00000  Uiso   1.00
H51    H     0.11599   0.04376   0.20586   0.00000  Uiso   1.00
H52    H     0.21734   0.28958   0.29414   0.00000  Uiso   1.00
H53    H     0.21749   0.04322   0.29389   0.00000  Uiso   1.00
H54    H     0.11584   0.29012   0.20611   0.00000  Uiso   1.00
N55    N     0.16667   0.28402   0.25000   0.00000  Uiso   1.00
N56    N     0.16667   0.04931   0.25000   0.00000  Uiso   1.00
N57    N     0.21361   0.09621   0.38450   0.00000  Uiso   1.00
O58    O     0.20277   0.05235   0.38621   0.00000  Uiso   1.00
O59    O     0.24461   0.10880   0.35991   0.00000  Uiso   1.00
N60    N     0.11958   0.23709   0.11554   0.00000  Uiso   1.00
O61    O     0.08884   0.22450   0.14049   0.00000  Uiso   1.00
O62    O     0.13029   0.28099   0.11358   0.00000  Uiso   1.00
O63    O     0.43988   0.20625   0.24999   0.00000  Uiso   1.00
O64    O     0.56012   0.12709   0.25000   0.00000  Uiso   1.00
O65    O     0.56012   0.20625   0.25000   0.00000  Uiso   1.00
O66    O     0.43988   0.12709   0.24999   0.00000  Uiso   1.00
C67    C     0.42068   0.16666   0.24995   0.00000  Uiso   1.00
C68    C     0.57932   0.16668   0.25005   0.00000  Uiso   1.00
O69    O     0.49999   0.20627   0.18513   0.00000  Uiso   1.00
O70    O     0.50001   0.12707   0.31487   0.00000  Uiso   1.00
O71    O     0.50001   0.20627   0.31487   0.00000  Uiso   1.00
O72    O     0.49999   0.12707   0.18513   0.00000  Uiso   1.00
C73    C     0.49897   0.16684   0.16437   0.00000  Uiso   1.00
C74    C     0.50100   0.16650   0.33563   0.00000  Uiso   1.00
Cu75   Cu    0.50000   0.21355   0.25000   0.00000  Uiso   1.00
Cu76   Cu    0.50000   0.11978   0.25000   0.00000  Uiso   1.00
C77    C     0.52350   0.13086   0.40771   0.00000  Uiso   1.00
C78    C     0.47632   0.20242   0.09230   0.00000  Uiso   1.00
C79    C     0.50221   0.16616   0.38399   0.00000  Uiso   1.00
C80    C     0.49766   0.16715   0.11602   0.00000  Uiso   1.00
C81    C     0.48078   0.20118   0.40642   0.00000  Uiso   1.00
C82    C     0.51904   0.13210   0.09358   0.00000  Uiso   1.00
C83    C     0.47949   0.20136   0.45246   0.00000  Uiso   1.00
C84    C     0.52026   0.13187   0.04754   0.00000  Uiso   1.00
C85    C     0.50042   0.16632   0.47668   0.00000  Uiso   1.00
C86    C     0.49931   0.16691   0.02332   0.00000  Uiso   1.00
C87    C     0.52261   0.13089   0.45439   0.00000  Uiso   1.00
C88    C     0.47714   0.20234   0.04562   0.00000  Uiso   1.00
C89    C     0.45720   0.23596   0.47456   0.00000  Uiso   1.00
C90    C     0.54250   0.09724   0.02544   0.00000  Uiso   1.00
C91    C     0.45577   0.23632   0.02063   0.00000  Uiso   1.00
C92    C     0.54392   0.09687   0.47937   0.00000  Uiso   1.00
H93    H     0.46428   0.22792   0.38783   0.00000  Uiso   1.00
H94    H     0.53556   0.10537   0.11216   0.00000  Uiso   1.00
H95    H     0.44068   0.26274   0.45615   0.00000  Uiso   1.00
H96    H     0.55901   0.07044   0.04385   0.00000  Uiso   1.00
H97    H     0.43771   0.26333   0.03632   0.00000  Uiso   1.00
H98    H     0.56195   0.06983   0.46368   0.00000  Uiso   1.00
C99    C     0.35459   0.12410   0.25136   0.00000  Uiso   1.00
C100   C     0.64541   0.20923   0.24864   0.00000  Uiso   1.00
C101   C     0.64536   0.12411   0.25146   0.00000  Uiso   1.00
C102   C     0.35464   0.20922   0.24854   0.00000  Uiso   1.00
H103   H     0.37059   0.09083   0.25247   0.00000  Uiso   1.00
H104   H     0.62941   0.24251   0.24753   0.00000  Uiso   1.00
H105   H     0.62932   0.09085   0.25266   0.00000  Uiso   1.00
H106   H     0.37068   0.24249   0.24734   0.00000  Uiso   1.00
C107   C     0.62393   0.16668   0.25008   0.00000  Uiso   1.00
C108   C     0.37607   0.16666   0.24992   0.00000  Uiso   1.00
C109   C     0.47185   0.02495   0.22552   0.00000  Uiso   1.00
C110   C     0.52815   0.30838   0.27448   0.00000  Uiso   1.00
C111   C     0.52819   0.02466   0.27442   0.00000  Uiso   1.00
C112   C     0.47182   0.30868   0.22558   0.00000  Uiso   1.00
H113   H     0.44933   0.04376   0.20586   0.00000  Uiso   1.00
H114   H     0.55068   0.28958   0.29414   0.00000  Uiso   1.00
H115   H     0.55083   0.04322   0.29389   0.00000  Uiso   1.00
H116   H     0.44918   0.29012   0.20611   0.00000  Uiso   1.00
N117   N     0.50000   0.28402   0.25000   0.00000  Uiso   1.00
N118   N     0.50000   0.04931   0.25000   0.00000  Uiso   1.00
N119   N     0.54694   0.09621   0.38450   0.00000  Uiso   1.00
O120   O     0.53610   0.05235   0.38621   0.00000  Uiso   1.00
O121   O     0.57794   0.10880   0.35991   0.00000  Uiso   1.00
N122   N     0.45292   0.23709   0.11554   0.00000  Uiso   1.00
O123   O     0.42217   0.22450   0.14049   0.00000  Uiso   1.00
O124   O     0.46363   0.28099   0.11358   0.00000  Uiso   1.00
O125   O     0.77321   0.20625   0.24999   0.00000  Uiso   1.00
O126   O     0.89345   0.12709   0.25000   0.00000  Uiso   1.00
O127   O     0.89345   0.20625   0.25000   0.00000  Uiso   1.00
O128   O     0.77321   0.12709   0.24999   0.00000  Uiso   1.00
C129   C     0.75402   0.16666   0.24995   0.00000  Uiso   1.00
C130   C     0.91265   0.16668   0.25005   0.00000  Uiso   1.00
O131   O     0.83332   0.20627   0.18513   0.00000  Uiso   1.00
O132   O     0.83334   0.12707   0.31487   0.00000  Uiso   1.00
O133   O     0.83334   0.20627   0.31487   0.00000  Uiso   1.00
O134   O     0.83332   0.12707   0.18513   0.00000  Uiso   1.00
C135   C     0.83230   0.16684   0.16437   0.00000  Uiso   1.00
C136   C     0.83433   0.16650   0.33563   0.00000  Uiso   1.00
Cu137  Cu    0.83333   0.21355   0.25000   0.00000  Uiso   1.00
Cu138  Cu    0.83333   0.11978   0.25000   0.00000  Uiso   1.00
C139   C     0.85683   0.13086   0.40771   0.00000  Uiso   1.00
C140   C     0.80965   0.20242   0.09230   0.00000  Uiso   1.00
C141   C     0.83555   0.16616   0.38399   0.00000  Uiso   1.00
C142   C     0.83100   0.16715   0.11602   0.00000  Uiso   1.00
C143   C     0.81411   0.20118   0.40642   0.00000  Uiso   1.00
C144   C     0.85237   0.13210   0.09358   0.00000  Uiso   1.00
C145   C     0.81282   0.20136   0.45246   0.00000  Uiso   1.00
C146   C     0.85360   0.13187   0.04754   0.00000  Uiso   1.00
C147   C     0.83376   0.16632   0.47668   0.00000  Uiso   1.00
C148   C     0.83265   0.16691   0.02332   0.00000  Uiso   1.00
C149   C     0.85594   0.13089   0.45439   0.00000  Uiso   1.00
C150   C     0.81047   0.20234   0.04562   0.00000  Uiso   1.00
C151   C     0.79054   0.23596   0.47456   0.00000  Uiso   1.00
C152   C     0.87584   0.09724   0.02544   0.00000  Uiso   1.00
C153   C     0.78911   0.23632   0.02063   0.00000  Uiso   1.00
C154   C     0.87725   0.09687   0.47937   0.00000  Uiso   1.00
H155   H     0.79762   0.22792   0.38783   0.00000  Uiso   1.00
H156   H     0.86889   0.10537   0.11216   0.00000  Uiso   1.00
H157   H     0.77401   0.26274   0.45615   0.00000  Uiso   1.00
H158   H     0.89235   0.07044   0.04385   0.00000  Uiso   1.00
H159   H     0.77104   0.26333   0.03632   0.00000  Uiso   1.00
H160   H     0.89528   0.06983   0.46368   0.00000  Uiso   1.00
C161   C     0.68793   0.12410   0.25136   0.00000  Uiso   1.00
C162   C     0.97874   0.20923   0.24864   0.00000  Uiso   1.00
C163   C     0.97869   0.12411   0.25146   0.00000  Uiso   1.00
C164   C     0.68798   0.20922   0.24854   0.00000  Uiso   1.00
H165   H     0.70392   0.09083   0.25247   0.00000  Uiso   1.00
H166   H     0.96275   0.24251   0.24753   0.00000  Uiso   1.00
H167   H     0.96265   0.09085   0.25266   0.00000  Uiso   1.00
H168   H     0.70401   0.24249   0.24734   0.00000  Uiso   1.00
C169   C     0.95726   0.16668   0.25008   0.00000  Uiso   1.00
C170   C     0.70941   0.16666   0.24992   0.00000  Uiso   1.00
C171   C     0.80518   0.02495   0.22552   0.00000  Uiso   1.00
C172   C     0.86149   0.30838   0.27448   0.00000  Uiso   1.00
C173   C     0.86152   0.02466   0.27442   0.00000  Uiso   1.00
C174   C     0.80515   0.30868   0.22558   0.00000  Uiso   1.00
H175   H     0.78266   0.04376   0.20586   0.00000  Uiso   1.00
H176   H     0.88401   0.28958   0.29414   0.00000  Uiso   1.00
H177   H     0.88416   0.04322   0.29389   0.00000  Uiso   1.00
H178   H     0.78251   0.29012   0.20611   0.00000  Uiso   1.00
N179   N     0.83333   0.28402   0.25000   0.00000  Uiso   1.00
N180   N     0.83333   0.04931   0.25000   0.00000  Uiso   1.00
N181   N     0.88028   0.09621   0.38450   0.00000  Uiso   1.00
O182   O     0.86944   0.05235   0.38621   0.00000  Uiso   1.00
O183   O     0.91127   0.10880   0.35991   0.00000  Uiso   1.00
N184   N     0.78625   0.23709   0.11554   0.00000  Uiso   1.00
O185   O     0.75551   0.22450   0.14049   0.00000  Uiso   1.00
O186   O     0.79696   0.28099   0.11358   0.00000  Uiso   1.00
O187   O     0.10655   0.53958   0.24999   0.00000  Uiso   1.00
O188   O     0.22679   0.46042   0.25000   0.00000  Uiso   1.00
O189   O     0.22679   0.53958   0.25000   0.00000  Uiso   1.00
O190   O     0.10655   0.46042   0.24999   0.00000  Uiso   1.00
C191   C     0.08735   0.49999   0.24995   0.00000  Uiso   1.00
C192   C     0.24598   0.50001   0.25005   0.00000  Uiso   1.00
O193   O     0.16666   0.53960   0.18513   0.00000  Uiso   1.00
O194   O     0.16668   0.46040   0.31487   0.00000  Uiso   1.00
O195   O     0.16668   0.53960   0.31487   0.00000  Uiso   1.00
O196   O     0.16666   0.46040   0.18513   0.00000  Uiso   1.00
C197   C     0.16564   0.50017   0.16437   0.00000  Uiso   1.00
C198   C     0.16766   0.49983   0.33563   0.00000  Uiso   1.00
Cu199  Cu    0.16667   0.54689   0.25000   0.00000  Uiso   1.00
Cu200  Cu    0.16667   0.45311   0.25000   0.00000  Uiso   1.00
C201   C     0.19017   0.46420   0.40771   0.00000  Uiso   1.00
C202   C     0.14298   0.53575   0.09230   0.00000  Uiso   1.00
C203   C     0.16888   0.49949   0.38399   0.00000  Uiso   1.00
C204   C     0.16433   0.50048   0.11602   0.00000  Uiso   1.00
C205   C     0.14745   0.53452   0.40642   0.00000  Uiso   1.00
C206   C     0.18571   0.46543   0.09358   0.00000  Uiso   1.00
C207   C     0.14615   0.53470   0.45246   0.00000  Uiso   1.00
C208   C     0.18693   0.46520   0.04754   0.00000  Uiso   1.00
C209   C     0.16709   0.49966   0.47668   0.00000  Uiso   1.00
C210   C     0.16598   0.50024   0.02332   0.00000  Uiso   1.00
C211   C     0.18928   0.46423   0.45439   0.00000  Uiso   1.00
C212   C     0.14380   0.53567   0.04562   0.00000  Uiso   1.00
C213   C     0.12387   0.56929   0.47456   0.00000  Uiso   1.00
C214   C     0.20917   0.43057   0.02544   0.00000  Uiso   1.00
C215   C     0.12244   0.56965   0.02063   0.00000  Uiso   1.00
C216   C     0.21059   0.43021   0.47937   0.00000  Uiso   1.00
H217   H     0.13095   0.56125   0.38783   0.00000  Uiso   1.00
H218   H     0.20222   0.43871   0.11216   0.00000  Uiso   1.00
H219   H     0.10734   0.59608   0.45615   0.00000  Uiso   1.00
H220   H     0.22568   0.40378   0.04385   0.00000  Uiso   1.00
H221   H     0.10438   0.59666   0.03632   0.00000  Uiso   1.00
H222   H     0.22861   0.40316   0.46368   0.00000  Uiso   1.00
C223   C     0.02126   0.45743   0.25136   0.00000  Uiso   1.00
C224   C     0.31207   0.54257   0.24864   0.00000  Uiso   1.00
C225   C     0.31202   0.45745   0.25146   0.00000  Uiso   1.00
C226   C     0.02131   0.54255   0.24854   0.00000  Uiso   1.00
H227   H     0.03725   0.42416   0.25247   0.00000  Uiso   1.00
H228   H     0.29608   0.57584   0.24753   0.00000  Uiso   1.00
H229   H     0.29599   0.42418   0.25266   0.00000  Uiso   1.00
H230   H     0.03735   0.57582   0.24734   0.00000  Uiso   1.00
C231   C     0.29060   0.50001   0.25008   0.00000  Uiso   1.00
C232   C     0.04274   0.49999   0.24992   0.00000  Uiso   1.00
C233   C     0.13852   0.35829   0.22552   0.00000  Uiso   1.00
C234   C     0.19482   0.64171   0.27448   0.00000  Uiso   1.00
C235   C     0.19485   0.35799   0.27442   0.00000  Uiso   1.00
C236   C     0.13848   0.64201   0.22558   0.00000  Uiso   1.00
H237   H     0.11599   0.37709   0.20586   0.00000  Uiso   1.00
H238   H     0.21734   0.62291   0.29414   0.00000  Uiso   1.00
H239   H     0.21749   0.37655   0.29389   0.00000  Uiso   1.00
H240   H     0.11584   0.62345   0.20611   0.00000  Uiso   1.00
N241   N     0.16667   0.61736   0.25000   0.00000  Uiso   1.00
N242   N     0.16667   0.38264   0.25000   0.00000  Uiso   1.00
N243   N     0.21361   0.42954   0.38450   0.00000  Uiso   1.00
O244   O     0.20277   0.38569   0.38621   0.00000  Uiso   1.00
O245   O     0.24461   0.44213   0.35991   0.00000  Uiso   1.00
N246   N     0.11958   0.57043   0.11554   0.00000  Uiso   1.00
O247   O     0.08884   0.55783   0.14049   0.00000  Uiso   1.00
O248   O     0.13029   0.61432   0.11358   0.00000  Uiso   1.00
O249   O     0.43988   0.53958   0.24999   0.00000  Uiso   1.00
O250   O     0.56012   0.46042   0.25000   0.00000  Uiso   1.00
O251   O     0.56012   0.53958   0.25000   0.00000  Uiso   1.00
O252   O     0.43988   0.46042   0.24999   0.00000  Uiso   1.00
C253   C     0.42068   0.49999   0.24995   0.00000  Uiso   1.00
C254   C     0.57932   0.50001   0.25005   0.00000  Uiso   1.00
O255   O     0.49999   0.53960   0.18513   0.00000  Uiso   1.00
O256   O     0.50001   0.46040   0.31487   0.00000  Uiso   1.00
O257   O     0.50001   0.53960   0.31487   0.00000  Uiso   1.00
O258   O     0.49999   0.46040   0.18513   0.00000  Uiso   1.00
C259   C     0.49897   0.50017   0.16437   0.00000  Uiso   1.00
C260   C     0.50100   0.49983   0.33563   0.00000  Uiso   1.00
Cu261  Cu    0.50000   0.54689   0.25000   0.00000  Uiso   1.00
Cu262  Cu    0.50000   0.45311   0.25000   0.00000  Uiso   1.00
C263   C     0.52350   0.46420   0.40771   0.00000  Uiso   1.00
C264   C     0.47632   0.53575   0.09230   0.00000  Uiso   1.00
C265   C     0.50221   0.49949   0.38399   0.00000  Uiso   1.00
C266   C     0.49766   0.50048   0.11602   0.00000  Uiso   1.00
C267   C     0.48078   0.53452   0.40642   0.00000  Uiso   1.00
C268   C     0.51904   0.46543   0.09358   0.00000  Uiso   1.00
C269   C     0.47949   0.53470   0.45246   0.00000  Uiso   1.00
C270   C     0.52026   0.46520   0.04754   0.00000  Uiso   1.00
C271   C     0.50042   0.49966   0.47668   0.00000  Uiso   1.00
C272   C     0.49931   0.50024   0.02332   0.00000  Uiso   1.00
C273   C     0.52261   0.46423   0.45439   0.00000  Uiso   1.00
C274   C     0.47714   0.53567   0.04562   0.00000  Uiso   1.00
C275   C     0.45720   0.56929   0.47456   0.00000  Uiso   1.00
C276   C     0.54250   0.43057   0.02544   0.00000  Uiso   1.00
C277   C     0.45577   0.56965   0.02063   0.00000  Uiso   1.00
C278   C     0.54392   0.43021   0.47937   0.00000  Uiso   1.00
H279   H     0.46428   0.56125   0.38783   0.00000  Uiso   1.00
H280   H     0.53556   0.43871   0.11216   0.00000  Uiso   1.00
H281   H     0.44068   0.59608   0.45615   0.00000  Uiso   1.00
H282   H     0.55901   0.40378   0.04385   0.00000  Uiso   1.00
H283   H     0.43771   0.59666   0.03632   0.00000  Uiso   1.00
H284   H     0.56195   0.40316   0.46368   0.00000  Uiso   1.00
C285   C     0.35459   0.45743   0.25136   0.00000  Uiso   1.00
C286   C     0.64541   0.54257   0.24864   0.00000  Uiso   1.00
C287   C     0.64536   0.45745   0.25146   0.00000  Uiso   1.00
C288   C     0.35464   0.54255   0.24854   0.00000  Uiso   1.00
H289   H     0.37059   0.42416   0.25247   0.00000  Uiso   1.00
H290   H     0.62941   0.57584   0.24753   0.00000  Uiso   1.00
H291   H     0.62932   0.42418   0.25266   0.00000  Uiso   1.00
H292   H     0.37068   0.57582   0.24734   0.00000  Uiso   1.00
C293   C     0.62393   0.50001   0.25008   0.00000  Uiso   1.00
C294   C     0.37607   0.49999   0.24992   0.00000  Uiso   1.00
C295   C     0.47185   0.35829   0.22552   0.00000  Uiso   1.00
C296   C     0.52815   0.64171   0.27448   0.00000  Uiso   1.00
C297   C     0.52819   0.35799   0.27442   0.00000  Uiso   1.00
C298   C     0.47182   0.64201   0.22558   0.00000  Uiso   1.00
H299   H     0.44933   0.37709   0.20586   0.00000  Uiso   1.00
H300   H     0.55068   0.62291   0.29414   0.00000  Uiso   1.00
H301   H     0.55083   0.37655   0.29389   0.00000  Uiso   1.00
H302   H     0.44918   0.62345   0.20611   0.00000  Uiso   1.00
N303   N     0.50000   0.61736   0.25000   0.00000  Uiso   1.00
N304   N     0.50000   0.38264   0.25000   0.00000  Uiso   1.00
N305   N     0.54694   0.42954   0.38450   0.00000  Uiso   1.00
O306   O     0.53610   0.38569   0.38621   0.00000  Uiso   1.00
O307   O     0.57794   0.44213   0.35991   0.00000  Uiso   1.00
N308   N     0.45292   0.57043   0.11554   0.00000  Uiso   1.00
O309   O     0.42217   0.55783   0.14049   0.00000  Uiso   1.00
O310   O     0.46363   0.61432   0.11358   0.00000  Uiso   1.00
O311   O     0.77321   0.53958   0.24999   0.00000  Uiso   1.00
O312   O     0.89345   0.46042   0.25000   0.00000  Uiso   1.00
O313   O     0.89345   0.53958   0.25000   0.00000  Uiso   1.00
O314   O     0.77321   0.46042   0.24999   0.00000  Uiso   1.00
C315   C     0.75402   0.49999   0.24995   0.00000  Uiso   1.00
C316   C     0.91265   0.50001   0.25005   0.00000  Uiso   1.00
O317   O     0.83332   0.53960   0.18513   0.00000  Uiso   1.00
O318   O     0.83334   0.46040   0.31487   0.00000  Uiso   1.00
O319   O     0.83334   0.53960   0.31487   0.00000  Uiso   1.00
O320   O     0.83332   0.46040   0.18513   0.00000  Uiso   1.00
C321   C     0.83230   0.50017   0.16437   0.00000  Uiso   1.00
C322   C     0.83433   0.49983   0.33563   0.00000  Uiso   1.00
Cu323  Cu    0.83333   0.54689   0.25000   0.00000  Uiso   1.00
Cu324  Cu    0.83333   0.45311   0.25000   0.00000  Uiso   1.00
C325   C     0.85683   0.46420   0.40771   0.00000  Uiso   1.00
C326   C     0.80965   0.53575   0.09230   0.00000  Uiso   1.00
C327   C     0.83555   0.49949   0.38399   0.00000  Uiso   1.00
C328   C     0.83100   0.50048   0.11602   0.00000  Uiso   1.00
C329   C     0.81411   0.53452   0.40642   0.00000  Uiso   1.00
C330   C     0.85237   0.46543   0.09358   0.00000  Uiso   1.00
C331   C     0.81282   0.53470   0.45246   0.00000  Uiso   1.00
C332   C     0.85360   0.46520   0.04754   0.00000  Uiso   1.00
C333   C     0.83376   0.49966   0.47668   0.00000  Uiso   1.00
C334   C     0.83265   0.50024   0.02332   0.00000  Uiso   1.00
C335   C     0.85594   0.46423   0.45439   0.00000  Uiso   1.00
C336   C     0.81047   0.53567   0.04562   0.00000  Uiso   1.00
C337   C     0.79054   0.56929   0.47456   0.00000  Uiso   1.00
C338   C     0.87584   0.43057   0.02544   0.00000  Uiso   1.00
C339   C     0.78911   0.56965   0.02063   0.00000  Uiso   1.00
C340   C     0.87725   0.43021   0.47937   0.00000  Uiso   1.00
H341   H     0.79762   0.56125   0.38783   0.00000  Uiso   1.00
H342   H     0.86889   0.43871   0.11216   0.00000  Uiso   1.00
H343   H     0.77401   0.59608   0.45615   0.00000  Uiso   1.00
H344   H     0.89235   0.40378   0.04385   0.00000  Uiso   1.00
H345   H     0.77104   0.59666   0.03632   0.00000  Uiso   1.00
H346   H     0.89528   0.40316   0.46368   0.00000  Uiso   1.00
C347   C     0.68793   0.45743   0.25136   0.00000  Uiso   1.00
C348   C     0.97874   0.54257   0.24864   0.00000  Uiso   1.00
C349   C     0.97869   0.45745   0.25146   0.00000  Uiso   1.00
C350   C     0.68798   0.54255   0.24854   0.00000  Uiso   1.00
H351   H     0.70392   0.42416   0.25247   0.00000  Uiso   1.00
H352   H     0.96275   0.57584   0.24753   0.00000  Uiso   1.00
H353   H     0.96265   0.42418   0.25266   0.00000  Uiso   1.00
H354   H     0.70401   0.57582   0.24734   0.00000  Uiso   1.00
C355   C     0.95726   0.50001   0.25008   0.00000  Uiso   1.00
C356   C     0.70941   0.49999   0.24992   0.00000  Uiso   1.00
C357   C     0.80518   0.35829   0.22552   0.00000  Uiso   1.00
C358   C     0.86149   0.64171   0.27448   0.00000  Uiso   1.00
C359   C     0.86152   0.35799   0.27442   0.00000  Uiso   1.00
C360   C     0.80515   0.64201   0.22558   0.00000  Uiso   1.00
H361   H     0.78266   0.37709   0.20586   0.00000  Uiso   1.00
H362   H     0.88401   0.62291   0.29414   0.00000  Uiso   1.00
H363   H     0.88416   0.37655   0.29389   0.00000  Uiso   1.00
H364   H     0.78251   0.62345   0.20611   0.00000  Uiso   1.00
N365   N     0.83333   0.61736   0.25000   0.00000  Uiso   1.00
N366   N     0.83333   0.38264   0.25000   0.00000  Uiso   1.00
N367   N     0.88028   0.42954   0.38450   0.00000  Uiso   1.00
O368   O     0.86944   0.38569   0.38621   0.00000  Uiso   1.00
O369   O     0.91127   0.44213   0.35991   0.00000  Uiso   1.00
N370   N     0.78625   0.57043   0.11554   0.00000  Uiso   1.00
O371   O     0.75551   0.55783   0.14049   0.00000  Uiso   1.00
O372   O     0.79696   0.61432   0.11358   0.00000  Uiso   1.00
O373   O     0.10655   0.87291   0.24999   0.00000  Uiso   1.00
O374   O     0.22679   0.79375   0.25000   0.00000  Uiso   1.00
O375   O     0.22679   0.87291   0.25000   0.00000  Uiso   1.00
O376   O     0.10655   0.79375   0.24999   0.00000  Uiso   1.00
C377   C     0.08735   0.83333   0.24995   0.00000  Uiso   1.00
C378   C     0.24598   0.83334   0.25005   0.00000  Uiso   1.00
O379   O     0.16666   0.87293   0.18513   0.00000  Uiso   1.00
O380   O     0.16668   0.79373   0.31487   0.00000  Uiso   1.00
O381   O     0.16668   0.87293   0.31487   0.00000  Uiso   1.00
O382   O     0.16666   0.79373   0.18513   0.00000  Uiso   1.00
C383   C     0.16564   0.83350   0.16437   0.00000  Uiso   1.00
C384   C     0.16766   0.83316   0.33563   0.00000  Uiso   1.00
Cu385  Cu    0.16667   0.88022   0.25000   0.00000  Uiso   1.00
Cu386  Cu    0.16667   0.78645   0.25000   0.00000  Uiso   1.00
C387   C     0.19017   0.79753   0.40771   0.00000  Uiso   1.00
C388   C     0.14298   0.86908   0.09230   0.00000  Uiso   1.00
C389   C     0.16888   0.83283   0.38399   0.00000  Uiso   1.00
C390   C     0.16433   0.83382   0.11602   0.00000  Uiso   1.00
C391   C     0.14745   0.86785   0.40642   0.00000  Uiso   1.00
C392   C     0.18571   0.79876   0.09358   0.00000  Uiso   1.00
C393   C     0.14615   0.86803   0.45246   0.00000  Uiso   1.00
C394   C     0.18693   0.79854   0.04754   0.00000  Uiso   1.00
C395   C     0.16709   0.83299   0.47668   0.00000  Uiso   1.00
C396   C     0.16598   0.83357   0.02332   0.00000  Uiso   1.00
C397   C     0.18928   0.79756   0.45439   0.00000  Uiso   1.00
C398   C     0.14380   0.86901   0.04562   0.00000  Uiso   1.00
C399   C     0.12387   0.90263   0.47456   0.00000  Uiso   1.00
C400   C     0.20917   0.76391   0.02544   0.00000  Uiso   1.00
C401   C     0.12244   0.90298   0.02063   0.00000  Uiso   1.00
C402   C     0.21059   0.76354   0.47937   0.00000  Uiso   1.00
H403   H     0.13095   0.89458   0.38783   0.00000  Uiso   1.00
H404   H     0.20222   0.77204   0.11216   0.00000  Uiso   1.00
H405   H     0.10734   0.92941   0.45615   0.00000  Uiso   1.00
H406   H     0.22568   0.73711   0.04385   0.00000  Uiso   1.00
H407   H     0.10438   0.93000   0.03632   0.00000  Uiso   1.00
H408   H     0.22861   0.73650   0.46368   0.00000  Uiso   1.00
C409   C     0.02126   0.79077   0.25136   0.00000  Uiso   1.00
C410   C     0.31207   0.87590   0.24864   0.00000  Uiso   1.00
C411   C     0.31202   0.79078   0.25146   0.00000  Uiso   1.00
C412   C     0.02131   0.87589   0.24854   0.00000  Uiso   1.00
H413   H     0.03725   0.75749   0.25247   0.00000  Uiso   1.00
H414   H     0.29608   0.90917   0.24753   0.00000  Uiso   1.00
H415   H     0.29599   0.75751   0.25266   0.00000  Uiso   1.00
H416   H     0.03735   0.90915   0.24734   0.00000  Uiso   1.00
C417   C     0.29060   0.83334   0.25008   0.00000  Uiso   1.00
C418   C     0.04274   0.83332   0.24992   0.00000  Uiso   1.00
C419   C     0.13852   0.69162   0.22552   0.00000  Uiso   1.00
C420   C     0.19482   0.97505   0.27448   0.00000  Uiso   1.00
C421   C     0.19485   0.69132   0.27442   0.00000  Uiso   1.00
C422   C     0.13848   0.97534   0.22558   0.00000  Uiso   1.00
H423   H     0.11599   0.71042   0.20586   0.00000  Uiso   1.00
H424   H     0.21734   0.95624   0.29414   0.00000  Uiso   1.00
H425   H     0.21749   0.70988   0.29389   0.00000  Uiso   1.00
H426   H     0.11584   0.95678   0.20611   0.00000  Uiso   1.00
N427   N     0.16667   0.95069   0.25000   0.00000  Uiso   1.00
N428   N     0.16667   0.71598   0.25000   0.00000  Uiso   1.00
N429   N     0.21361   0.76288   0.38450   0.00000  Uiso   1.00
O430   O     0.20277   0.71902   0.38621   0.00000  Uiso   1.00
O431   O     0.24461   0.77546   0.35991   0.00000  Uiso   1.00
N432   N     0.11958   0.90376   0.11554   0.00000  Uiso   1.00
O433   O     0.08884   0.89116   0.14049   0.00000  Uiso   1.00
O434   O     0.13029   0.94765   0.11358   0.00000  Uiso   1.00
O435   O     0.43988   0.87291   0.24999   0.00000  Uiso   1.00
O436   O     0.56012   0.79375   0.25000   0.00000  Uiso   1.00
O437   O     0.56012   0.87291   0.25000   0.00000  Uiso   1.00
O438   O     0.43988   0.79375   0.24999   0.00000  Uiso   1.00
C439   C     0.42068   0.83333   0.24995   0.00000  Uiso   1.00
C440   C     0.57932   0.83334   0.25005   0.00000  Uiso   1.00
O441   O     0.49999   0.87293   0.18513   0.00000  Uiso   1.00
O442   O     0.50001   0.79373   0.31487   0.00000  Uiso   1.00
O443   O     0.50001   0.87293   0.31487   0.00000  Uiso   1.00
O444   O     0.49999   0.79373   0.18513   0.00000  Uiso   1.00
C445   C     0.49897   0.83350   0.16437   0.00000  Uiso   1.00
C446   C     0.50100   0.83316   0.33563   0.00000  Uiso   1.00
Cu447  Cu    0.50000   0.88022   0.25000   0.00000  Uiso   1.00
Cu448  Cu    0.50000   0.78645   0.25000   0.00000  Uiso   1.00
C449   C     0.52350   0.79753   0.40771   0.00000  Uiso   1.00
C450   C     0.47632   0.86908   0.09230   0.00000  Uiso   1.00
C451   C     0.50221   0.83283   0.38399   0.00000  Uiso   1.00
C452   C     0.49766   0.83382   0.11602   0.00000  Uiso   1.00
C453   C     0.48078   0.86785   0.40642   0.00000  Uiso   1.00
C454   C     0.51904   0.79876   0.09358   0.00000  Uiso   1.00
C455   C     0.47949   0.86803   0.45246   0.00000  Uiso   1.00
C456   C     0.52026   0.79854   0.04754   0.00000  Uiso   1.00
C457   C     0.50042   0.83299   0.47668   0.00000  Uiso   1.00
C458   C     0.49931   0.83357   0.02332   0.00000  Uiso   1.00
C459   C     0.52261   0.79756   0.45439   0.00000  Uiso   1.00
C460   C     0.47714   0.86901   0.04562   0.00000  Uiso   1.00
C461   C     0.45720   0.90263   0.47456   0.00000  Uiso   1.00
C462   C     0.54250   0.76391   0.02544   0.00000  Uiso   1.00
C463   C     0.45577   0.90298   0.02063   0.00000  Uiso   1.00
C464   C     0.54392   0.76354   0.47937   0.00000  Uiso   1.00
H465   H     0.46428   0.89458   0.38783   0.00000  Uiso   1.00
H466   H     0.53556   0.77204   0.11216   0.00000  Uiso   1.00
H467   H     0.44068   0.92941   0.45615   0.00000  Uiso   1.00
H468   H     0.55901   0.73711   0.04385   0.00000  Uiso   1.00
H469   H     0.43771   0.93000   0.03632   0.00000  Uiso   1.00
H470   H     0.56195   0.73650   0.46368   0.00000  Uiso   1.00
C471   C     0.35459   0.79077   0.25136   0.00000  Uiso   1.00
C472   C     0.64541   0.87590   0.24864   0.00000  Uiso   1.00
C473   C     0.64536   0.79078   0.25146   0.00000  Uiso   1.00
C474   C     0.35464   0.87589   0.24854   0.00000  Uiso   1.00
H475   H     0.37059   0.75749   0.25247   0.00000  Uiso   1.00
H476   H     0.62941   0.90917   0.24753   0.00000  Uiso   1.00
H477   H     0.62932   0.75751   0.25266   0.00000  Uiso   1.00
H478   H     0.37068   0.90915   0.24734   0.00000  Uiso   1.00
C479   C     0.62393   0.83334   0.25008   0.00000  Uiso   1.00
C480   C     0.37607   0.83332   0.24992   0.00000  Uiso   1.00
C481   C     0.47185   0.69162   0.22552   0.00000  Uiso   1.00
C482   C     0.52815   0.97505   0.27448   0.00000  Uiso   1.00
C483   C     0.52819   0.69132   0.27442   0.00000  Uiso   1.00
C484   C     0.47182   0.97534   0.22558   0.00000  Uiso   1.00
H485   H     0.44933   0.71042   0.20586   0.00000  Uiso   1.00
H486   H     0.55068   0.95624   0.29414   0.00000  Uiso   1.00
H487   H     0.55083   0.70988   0.29389   0.00000  Uiso   1.00
H488   H     0.44918   0.95678   0.20611   0.00000  Uiso   1.00
N489   N     0.50000   0.95069   0.25000   0.00000  Uiso   1.00
N490   N     0.50000   0.71598   0.25000   0.00000  Uiso   1.00
N491   N     0.54694   0.76288   0.38450   0.00000  Uiso   1.00
O492   O     0.53610   0.71902   0.38621   0.00000  Uiso   1.00
O493   O     0.57794   0.77546   0.35991   0.00000  Uiso   1.00
N494   N     0.45292   0.90376   0.11554   0.00000  Uiso   1.00
O495   O     0.42217   0.89116   0.14049   0.00000  Uiso   1.00
O496   O     0.46363   0.94765   0.11358   0.00000  Uiso   1.00
O497   O     0.77321   0.87291   0.24999   0.00000  Uiso   1.00
O498   O     0.89345   0.79375   0.25000   0.00000  Uiso   1.00
O499   O     0.89345   0.87291   0.25000   0.00000  Uiso   1.00
O500   O     0.77321   0.79375   0.24999   0.00000  Uiso   1.00
C501   C     0.75402   0.83333   0.24995   0.00000  Uiso   1.00
C502   C     0.91265   0.83334   0.25005   0.00000  Uiso   1.00
O503   O     0.83332   0.87293   0.18513   0.00000  Uiso   1.00
O504   O     0.83334   0.79373   0.31487   0.00000  Uiso   1.00
O505   O     0.83334   0.87293   0.31487   0.00000  Uiso   1.00
O506   O     0.83332   0.79373   0.18513   0.00000  Uiso   1.00
C507   C     0.83230   0.83350   0.16437   0.00000  Uiso   1.00
C508   C     0.83433   0.83316   0.33563   0.00000  Uiso   1.00
Cu509  Cu    0.83333   0.88022   0.25000   0.00000  Uiso   1.00
Cu510  Cu    0.83333   0.78645   0.25000   0.00000  Uiso   1.00
C511   C     0.85683   0.79753   0.40771   0.00000  Uiso   1.00
C512   C     0.80965   0.86908   0.09230   0.00000  Uiso   1.00
C513   C     0.83555   0.83283   0.38399   0.00000  Uiso   1.00
C514   C     0.83100   0.83382   0.11602   0.00000  Uiso   1.00
C515   C     0.81411   0.86785   0.40642   0.00000  Uiso   1.00
C516   C     0.85237   0.79876   0.09358   0.00000  Uiso   1.00
C517   C     0.81282   0.86803   0.45246   0.00000  Uiso   1.00
C518   C     0.85360   0.79854   0.04754   0.00000  Uiso   1.00
C519   C     0.83376   0.83299   0.47668   0.00000  Uiso   1.00
C520   C     0.83265   0.83357   0.02332   0.00000  Uiso   1.00
C521   C     0.85594   0.79756   0.45439   0.00000  Uiso   1.00
C522   C     0.81047   0.86901   0.04562   0.00000  Uiso   1.00
C523   C     0.79054   0.90263   0.47456   0.00000  Uiso   1.00
C524   C     0.87584   0.76391   0.02544   0.00000  Uiso   1.00
C525   C     0.78911   0.90298   0.02063   0.00000  Uiso   1.00
C526   C     0.87725   0.76354   0.47937   0.00000  Uiso   1.00
H527   H     0.79762   0.89458   0.38783   0.00000  Uiso   1.00
H528   H     0.86889   0.77204   0.11216   0.00000  Uiso   1.00
H529   H     0.77401   0.92941   0.45615   0.00000  Uiso   1.00
H530   H     0.89235   0.73711   0.04385   0.00000  Uiso   1.00
H531   H     0.77104   0.93000   0.03632   0.00000  Uiso   1.00
H532   H     0.89528   0.73650   0.46368   0.00000  Uiso   1.00
C533   C     0.68793   0.79077   0.25136   0.00000  Uiso   1.00
C534   C     0.97874   0.87590   0.24864   0.00000  Uiso   1.00
C535   C     0.97869   0.79078   0.25146   0.00000  Uiso   1.00
C536   C     0.68798   0.87589   0.24854   0.00000  Uiso   1.00
H537   H     0.70392   0.75749   0.25247   0.00000  Uiso   1.00
H538   H     0.96275   0.90917   0.24753   0.00000  Uiso   1.00
H539   H     0.96265   0.75751   0.25266   0.00000  Uiso   1.00
H540   H     0.70401   0.90915   0.24734   0.00000  Uiso   1.00
C541   C     0.95726   0.83334   0.25008   0.00000  Uiso   1.00
C542   C     0.70941   0.83332   0.24992   0.00000  Uiso   1.00
C543   C     0.80518   0.69162   0.22552   0.00000  Uiso   1.00
C544   C     0.86149   0.97505   0.27448   0.00000  Uiso   1.00
C545   C     0.86152   0.69132   0.27442   0.00000  Uiso   1.00
C546   C     0.80515   0.97534   0.22558   0.00000  Uiso   1.00
H547   H     0.78266   0.71042   0.20586   0.00000  Uiso   1.00
H548   H     0.88401   0.95624   0.29414   0.00000  Uiso   1.00
H549   H     0.88416   0.70988   0.29389   0.00000  Uiso   1.00
H550   H     0.78251   0.95678   0.20611   0.00000  Uiso   1.00
N551   N     0.83333   0.95069   0.25000   0.00000  Uiso   1.00
N552   N     0.83333   0.71598   0.25000   0.00000  Uiso   1.00
N553   N     0.88028   0.76288   0.38450   0.00000  Uiso   1.00
O554   O     0.86944   0.71902   0.38621   0.00000  Uiso   1.00
O555   O     0.91127   0.77546   0.35991   0.00000  Uiso   1.00
N556   N     0.78625   0.90376   0.11554   0.00000  Uiso   1.00
O557   O     0.75551   0.89116   0.14049   0.00000  Uiso   1.00
O558   O     0.79696   0.94765   0.11358   0.00000  Uiso   1.00
O559   O     0.10655   0.20625   0.74999   0.00000  Uiso   1.00
O560   O     0.22679   0.12709   0.75000   0.00000  Uiso   1.00
O561   O     0.22679   0.20625   0.75000   0.00000  Uiso   1.00
O562   O     0.10655   0.12709   0.74999   0.00000  Uiso   1.00
C563   C     0.08735   0.16666   0.74995   0.00000  Uiso   1.00
C564   C     0.24598   0.16668   0.75005   0.00000  Uiso   1.00
O565   O     0.16666   0.20627   0.68513   0.00000  Uiso   1.00
O566   O     0.16668   0.12707   0.81487   0.00000  Uiso   1.00
O567   O     0.16668   0.20627   0.81487   0.00000  Uiso   1.00
O568   O     0.16666   0.12707   0.68513   0.00000  Uiso   1.00
C569   C     0.16564   0.16684   0.66437   0.00000  Uiso   1.00
C570   C     0.16766   0.16650   0.83563   0.00000  Uiso   1.00
Cu571  Cu    0.16667   0.21355   0.75000   0.00000  Uiso   1.00
Cu572  Cu    0.16667   0.11978   0.75000   0.00000  Uiso   1.00
C573   C     0.19017   0.13086   0.90771   0.00000  Uiso   1.00
C574   C     0.14298   0.20242   0.59230   0.00000  Uiso   1.00
C575   C     0.16888   0.16616   0.88399   0.00000  Uiso   1.00
C576   C     0.16433   0.16715   0.61602   0.00000  Uiso   1.00
C577   C     0.14745   0.20118   0.90642   0.00000  Uiso   1.00
C578   C     0.18571   0.13210   0.59358   0.00000  Uiso   1.00
C579   C     0.14615   0.20136   0.95246   0.00000  Uiso   1.00
C580   C     0.18693   0.13187   0.54754   0.00000  Uiso   1.00
C581   C     0.16709   0.16632   0.97668   0.00000  Uiso   1.00
C582   C     0.16598   0.16691   0.52332   0.00000  Uiso   1.00
C583   C     0.18928   0.13089   0.95439   0.00000  Uiso   1.00
C584   C     0.14380   0.20234   0.54562   0.00000  Uiso   1.00
C585   C     0.12387   0.23596   0.97456   0.00000  Uiso   1.00
C586   C     0.20917   0.09724   0.52544   0.00000  Uiso   1.00
C587   C     0.12244   0.23632   0.52063   0.00000  Uiso   1.00
C588   C     0.21059   0.09687   0.97937   0.00000  Uiso   1.00
H589   H     0.13095   0.22792   0.88783   0.00000  Uiso   1.00
H590   H     0.20222   0.10537   0.61216   0.00000  Uiso   1.00
H591   H     0.10734   0.26274   0.95615   0.00000  Uiso   1.00
H592   H     0.22568   0.07044   0.54385   0.00000  Uiso   1.00
H593   H     0.10438   0.26333   0.53632   0.00000  Uiso   1.00
H594   H     0.22861   0.06983   0.96368   0.00000  Uiso   1.00
C595   C     0.02126   0.12410   0.75136   0.00000  Uiso   1.00
C596   C     0.31207   0.20923   0.74864   0.00000  Uiso   1.00
C597   C     0.31202   0.12411   0.75146   0.00000  Uiso   1.00
C598   C     0.02131   0.20922   0.74854   0.00000  Uiso   1.00
H599   H     0.03725   0.09083   0.75247   0.00000  Uiso   1.00
H600   H     0.29608   0.24251   0.74753   0.00000  Uiso   1.00
H601   H     0.29599   0.09085   0.75266   0.00000  Uiso   1.00
H602   H     0.03735   0.24249   0.74734   0.00000  Uiso   1.00
C603   C     0.29060   0.16668   0.75008   0.00000  Uiso   1.00
C604   C     0.04274   0.16666   0.74992   0.00000  Uiso   1.00
C605   C     0.13852   0.02495   0.72552   0.00000  Uiso   1.00
C606   C     0.19482   0.30838   0.77448   0.00000  Uiso   1.00
C607   C     0.19485   0.02466   0.77442   0.00000  Uiso   1.00
C608   C     0.13848   0.30868   0.72558   0.00000  Uiso   1.00
H609   H     0.11599   0.04376   0.70586   0.00000  Uiso   1.00
H610   H     0.21734   0.28958   0.79414   0.00000  Uiso   1.00
H611   H     0.21749   0.04322   0.79389   0.00000  Uiso   1.00
H612   H     0.11584   0.29012   0.70611   0.00000  Uiso   1.00
N613   N     0.16667   0.28402   0.75000   0.00000  Uiso   1.00
N614   N     0.16667   0.04931   0.75000   0.00000  Uiso   1.00
N615   N     0.21361   0.09621   0.88450   0.00000  Uiso   1.00
O616   O     0.20277   0.05235   0.88621   0.00000  Uiso   1.00
O617   O     0.24461   0.10880   0.85991   0.00000  Uiso   1.00
N618   N     0.11958   0.23709   0.61554   0.00000  Uiso   1.00
O619   O     0.08884   0.22450   0.64049   0.00000  Uiso   1.00
O620   O     0.13029   0.28099   0.61358   0.00000  Uiso   1.00
O621   O     0.43988   0.20625   0.74999   0.00000  Uiso   1.00
O622   O     0.56012   0.12709   0.75000   0.00000  Uiso   1.00
O623   O     0.56012   0.20625   0.75000   0.00000  Uiso   1.00
O624   O     0.43988   0.12709   0.74999   0.00000  Uiso   1.00
C625   C     0.42068   0.16666   0.74995   0.00000  Uiso   1.00
C626   C     0.57932   0.16668   0.75005   0.00000  Uiso   1.00
O627   O     0.49999   0.20627   0.68513   0.00000  Uiso   1.00
O628   O     0.50001   0.12707   0.81487   0.00000  Uiso   1.00
O629   O     0.50001   0.20627   0.81487   0.00000  Uiso   1.00
O630   O     0.49999   0.12707   0.68513   0.00000  Uiso   1.00
C631   C     0.49897   0.16684   0.66437   0.00000  Uiso   1.00
C632   C     0.50100   0.16650   0.83563   0.00000  Uiso   1.00
Cu633  Cu    0.50000   0.21355   0.75000   0.00000  Uiso   1.00
Cu634  Cu    0.50000   0.11978   0.75000   0.00000  Uiso   1.00
C635   C     0.52350   0.13086   0.90771   0.00000  Uiso   1.00
C636   C     0.47632   0.20242   0.59230   0.00000  Uiso   1.00
C637   C     0.50221   0.16616   0.88399   0.00000  Uiso   1.00
C638   C     0.49766   0.16715   0.61602   0.00000  Uiso   1.00
C639   C     0.48078   0.20118   0.90642   0.00000  Uiso   1.00
C640   C     0.51904   0.13210   0.59358   0.00000  Uiso   1.00
C641   C     0.47949   0.20136   0.95246   0.00000  Uiso   1.00
C642   C     0.52026   0.13187   0.54754   0.00000  Uiso   1.00
C643   C     0.50042   0.16632   0.97668   0.00000  Uiso   1.00
C644   C     0.49931   0.16691   0.52332   0.00000  Uiso   1.00
C645   C     0.52261   0.13089   0.95439   0.00000  Uiso   1.00
C646   C     0.47714   0.20234   0.54562   0.00000  Uiso   1.00
C647   C     0.45720   0.23596   0.97456   0.00000  Uiso   1.00
C648   C     0.54250   0.09724   0.52544   0.00000  Uiso   1.00
C649   C     0.45577   0.23632   0.52063   0.00000  Uiso   1.00
C650   C     0.54392   0.09687   0.97937   0.00000  Uiso   1.00
H651   H     0.46428   0.22792   0.88783   0.00000  Uiso   1.00
H652   H     0.53556   0.10537   0.61216   0.00000  Uiso   1.00
H653   H     0.44068   0.26274   0.95615   0.00000  Uiso   1.00
H654   H     0.55901   0.07044   0.54385   0.00000  Uiso   1.00
H655   H     0.43771   0.26333   0.53632   0.00000  Uiso   1.00
H656   H     0.56195   0.06983   0.96368   0.00000  Uiso   1.00
C657   C     0.35459   0.12410   0.75136   0.00000  Uiso   1.00
C658   C     0.64541   0.20923   0.74864   0.00000  Uiso   1.00
C659   C     0.64536   0.12411   0.75146   0.00000  Uiso   1.00
C660   C     0.35464   0.20922   0.74854   0.00000  Uiso   1.00
H661   H     0.37059   0.09083   0.75247   0.00000  Uiso   1.00
H662   H     0.62941   0.24251   0.74753   0.00000  Uiso   1.00
H663   H     0.62932   0.09085   0.75266   0.00000  Uiso   1.00
H664   H     0.37068   0.24249   0.74734   0.00000  Uiso   1.00
C665   C     0.62393   0.16668   0.75008   0.00000  Uiso   1.00
C666   C     0.37607   0.16666   0.74992   0.00000  Uiso   1.00
C667   C     0.47185   0.02495   0.72552   0.00000  Uiso   1.00
C668   C     0.52815   0.30838   0.77448   0.00000  Uiso   1.00
C669   C     0.52819   0.02466   0.77442   0.00000  Uiso   1.00
C670   C     0.47182   0.30868   0.72558   0.00000  Uiso   1.00
H671   H     0.44933   0.04376   0.70586   0.00000  Uiso   1.00
H672   H     0.55068   0.28958   0.79414   0.00000  Uiso   1.00
H673   H     0.55083   0.04322   0.79389   0.00000  Uiso   1.00
H674   H     0.44918   0.29012   0.70611   0.00000  Uiso   1.00
N675   N     0.50000   0.28402   0.75000   0.00000  Uiso   1.00
N676   N     0.50000   0.04931   0.75000   0.00000  Uiso   1.00
N677   N     0.54694   0.09621   0.88450   0.00000  Uiso   1.00
O678   O     0.53610   0.05235   0.88621   0.00000  Uiso   1.00
O679   O     0.57794   0.10880   0.85991   0.00000  Uiso   1.00
N680   N     0.45292   0.23709   0.61554   0.00000  Uiso   1.00
O681   O     0.42217   0.22450   0.64049   0.00000  Uiso   1.00
O682   O     0.46363   0.28099   0.61358   0.00000  Uiso   1.00
O683   O     0.77321   0.20625   0.74999   0.00000  Uiso   1.00
O684   O     0.89345   0.12709   0.75000   0.00000  Uiso   1.00
O685   O     0.89345   0.20625   0.75000   0.00000  Uiso   1.00
O686   O     0.77321   0.12709   0.74999   0.00000  Uiso   1.00
C687   C     0.75402   0.16666   0.74995   0.00000  Uiso   1.00
C688   C     0.91265   0.16668   0.75005   0.00000  Uiso   1.00
O689   O     0.83332   0.20627   0.68513   0.00000  Uiso   1.00
O690   O     0.83334   0.12707   0.81487   0.00000  Uiso   1.00
O691   O     0.83334   0.20627   0.81487   0.00000  Uiso   1.00
O692   O     0.83332   0.12707   0.68513   0.00000  Uiso   1.00
C693   C     0.83230   0.16684   0.66437   0.00000  Uiso   1.00
C694   C     0.83433   0.16650   0.83563   0.00000  Uiso   1.00
Cu695  Cu    0.83333   0.21355   0.75000   0.00000  Uiso   1.00
Cu696  Cu    0.83333   0.11978   0.75000   0.00000  Uiso   1.00
C697   C     0.85683   0.13086   0.90771   0.00000  Uiso   1.00
C698   C     0.80965   0.20242   0.59230   0.00000  Uiso   1.00
C699   C     0.83555   0.16616   0.88399   0.00000  Uiso   1.00
C700   C     0.83100   0.16715   0.61602   0.00000  Uiso   1.00
C701   C     0.81411   0.20118   0.90642   0.00000  Uiso   1.00
C702   C     0.85237   0.13210   0.59358   0.00000  Uiso   1.00
C703   C     0.81282   0.20136   0.95246   0.00000  Uiso   1.00
C704   C     0.85360   0.13187   0.54754   0.00000  Uiso   1.00
C705   C     0.83376   0.16632   0.97668   0.00000  Uiso   1.00
C706   C     0.83265   0.16691   0.52332   0.00000  Uiso   1.00
C707   C     0.85594   0.13089   0.95439   0.00000  Uiso   1.00
C708   C     0.81047   0.20234   0.54562   0.00000  Uiso   1.00
C709   C     0.79054   0.23596   0.97456   0.00000  Uiso   1.00
C710   C     0.87584   0.09724   0.52544   0.00000  Uiso   1.00
C711   C     0.78911   0.23632   0.52063   0.00000  Uiso   1.00
C712   C     0.87725   0.09687   0.97937   0.00000  Uiso   1.00
H713   H     0.79762   0.22792   0.88783   0.00000  Uiso   1.00
H714   H     0.86889   0.10537   0.61216   0.00000  Uiso   1.00
H715   H     0.77401   0.26274   0.95615   0.00000  Uiso   1.00
H716   H     0.89235   0.07044   0.54385   0.00000  Uiso   1.00
H717   H     0.77104   0.26333   0.53632   0.00000  Uiso   1.00
H718   H     0.89528   0.06983   0.96368   0.00000  Uiso   1.00
C719   C     0.68793   0.12410   0.75136   0.00000  Uiso   1.00
C720   C     0.97874   0.20923   0.74864   0.00000  Uiso   1.00
C721   C     0.97869   0.12411   0.75146   0.00000  Uiso   1.00
C722   C     0.68798   0.20922   0.74854   0.00000  Uiso   1.00
H723   H     0.70392   0.09083   0.75247   0.00000  Uiso   1.00
H724   H     0.96275   0.24251   0.74753   0.00000  Uiso   1.00
H725   H     0.96265   0.09085   0.75266   0.00000  Uiso   1.00
H726   H     0.70401   0.24249   0.74734   0.00000  Uiso   1.00
C727   C     0.95726   0.16668   0.75008   0.00000  Uiso   1.00
C728   C     0.70941   0.16666   0.74992   0.00000  Uiso   1.00
C729   C     0.80518   0.02495   0.72552   0.00000  Uiso   1.00
C730   C     0.86149   0.30838   0.77448   0.00000  Uiso   1.00
C731   C     0.86152   0.02466   0.77442   0.00000  Uiso   1.00
C732   C     0.80515   0.30868   0.72558   0.00000  Uiso   1.00
H733   H     0.78266   0.04376   0.70586   0.00000  Uiso   1.00
H734   H     0.88401   0.28958   0.79414   0.00000  Uiso   1.00
H735   H     0.88416   0.04322   0.79389   0.00000  Uiso   1.00
H736   H     0.78251   0.29012   0.70611   0.00000  Uiso   1.00
N737   N     0.83333   0.28402   0.75000   0.00000  Uiso   1.00
N738   N     0.83333   0.04931   0.75000   0.00000  Uiso   1.00
N739   N     0.88028   0.09621   0.88450   0.00000  Uiso   1.00
O740   O     0.86944   0.05235   0.88621   0.00000  Uiso   1.00
O741   O     0.91127   0.10880   0.85991   0.00000  Uiso   1.00
N742   N     0.78625   0.23709   0.61554   0.00000  Uiso   1.00
O743   O     0.75551   0.22450   0.64049   0.00000  Uiso   1.00
O744   O     0.79696   0.28099   0.61358   0.00000  Uiso   1.00
O745   O     0.10655   0.53958   0.74999   0.00000  Uiso   1.00
O746   O     0.22679   0.46042   0.75000   0.00000  Uiso   1.00
O747   O     0.22679   0.53958   0.75000   0.00000  Uiso   1.00
O748   O     0.10655   0.46042   0.74999   0.00000  Uiso   1.00
C749   C     0.08735   0.49999   0.74995   0.00000  Uiso   1.00
C750   C     0.24598   0.50001   0.75005   0.00000  Uiso   1.00
O751   O     0.16666   0.53960   0.68513   0.00000  Uiso   1.00
O752   O     0.16668   0.46040   0.81487   0.00000  Uiso   1.00
O753   O     0.16668   0.53960   0.81487   0.00000  Uiso   1.00
O754   O     0.16666   0.46040   0.68513   0.00000  Uiso   1.00
C755   C     0.16564   0.50017   0.66437   0.00000  Uiso   1.00
C756   C     0.16766   0.49983   0.83563   0.00000  Uiso   1.00
Cu757  Cu    0.16667   0.54689   0.75000   0.00000  Uiso   1.00
Cu758  Cu    0.16667   0.45311   0.75000   0.00000  Uiso   1.00
C759   C     0.19017   0.46420   0.90771   0.00000  Uiso   1.00
C760   C     0.14298   0.53575   0.59230   0.00000  Uiso   1.00
C761   C     0.16888   0.49949   0.88399   0.00000  Uiso   1.00
C762   C     0.16433   0.50048   0.61602   0.00000  Uiso   1.00
C763   C     0.14745   0.53452   0.90642   0.00000  Uiso   1.00
C764   C     0.18571   0.46543   0.59358   0.00000  Uiso   1.00
C765   C     0.14615   0.53470   0.95246   0.00000  Uiso   1.00
C766   C     0.18693   0.46520   0.54754   0.00000  Uiso   1.00
C767   C     0.16709   0.49966   0.97668   0.00000  Uiso   1.00
C768   C     0.16598   0.50024   0.52332   0.00000  Uiso   1.00
C769   C     0.18928   0.46423   0.95439   0.00000  Uiso   1.00
C770   C     0.14380   0.53567   0.54562   0.00000  Uiso   1.00
C771   C     0.12387   0.56929   0.97456   0.00000  Uiso   1.00
C772   C     0.20917   0.43057   0.52544   0.00000  Uiso   1.00
C773   C     0.12244   0.56965   0.52063   0.00000  Uiso   1.00
C774   C     0.21059   0.43021   0.97937   0.00000  Uiso   1.00
H775   H     0.13095   0.56125   0.88783   0.00000  Uiso   1.00
H776   H     0.20222   0.43871   0.61216   0.00000  Uiso   1.00
H777   H     0.10734   0.59608   0.95615   0.00000  Uiso   1.00
H778   H     0.22568   0.40378   0.54385   0.00000  Uiso   1.00
H779   H     0.10438   0.59666   0.53632   0.00000  Uiso   1.00
H780   H     0.22861   0.40316   0.96368   0.00000  Uiso   1.00
C781   C     0.02126   0.45743   0.75136   0.00000  Uiso   1.00
C782   C     0.31207   0.54257   0.74864   0.00000  Uiso   1.00
C783   C     0.31202   0.45745   0.75146   0.00000  Uiso   1.00
C784   C     0.02131   0.54255   0.74854   0.00000  Uiso   1.00
H785   H     0.03725   0.42416   0.75247   0.00000  Uiso   1.00
H786   H     0.29608   0.57584   0.74753   0.00000  Uiso   1.00
H787   H     0.29599   0.42418   0.75266   0.00000  Uiso   1.00
H788   H     0.03735   0.57582   0.74734   0.00000  Uiso   1.00
C789   C     0.29060   0.50001   0.75008   0.00000  Uiso   1.00
C790   C     0.04274   0.49999   0.74992   0.00000  Uiso   1.00
C791   C     0.13852   0.35829   0.72552   0.00000  Uiso   1.00
C792   C     0.19482   0.64171   0.77448   0.00000  Uiso   1.00
C793   C     0.19485   0.35799   0.77442   0.00000  Uiso   1.00
C794   C     0.13848   0.64201   0.72558   0.00000  Uiso   1.00
H795   H     0.11599   0.37709   0.70586   0.00000  Uiso   1.00
H796   H     0.21734   0.62291   0.79414   0.00000  Uiso   1.00
H797   H     0.21749   0.37655   0.79389   0.00000  Uiso   1.00
H798   H     0.11584   0.62345   0.70611   0.00000  Uiso   1.00
N799   N     0.16667   0.61736   0.75000   0.00000  Uiso   1.00
N800   N     0.16667   0.38264   0.75000   0.00000  Uiso   1.00
N801   N     0.21361   0.42954   0.88450   0.00000  Uiso   1.00
O802   O     0.20277   0.38569   0.88621   0.00000  Uiso   1.00
O803   O     0.24461   0.44213   0.85991   0.00000  Uiso   1.00
N804   N     0.11958   0.57043   0.61554   0.00000  Uiso   1.00
O805   O     0.08884   0.55783   0.64049   0.00000  Uiso   1.00
O806   O     0.13029   0.61432   0.61358   0.00000  Uiso   1.00
O807   O     0.43988   0.53958   0.74999   0.00000  Uiso   1.00
O808   O     0.56012   0.46042   0.75000   0.00000  Uiso   1.00
O809   O     0.56012   0.53958   0.75000   0.00000  Uiso   1.00
O810   O     0.43988   0.46042   0.74999   0.00000  Uiso   1.00
C811   C     0.42068   0.49999   0.74995   0.00000  Uiso   1.00
C812   C     0.57932   0.50001   0.75005   0.00000  Uiso   1.00
O813   O     0.49999   0.53960   0.68513   0.00000  Uiso   1.00
O814   O     0.50001   0.46040   0.81487   0.00000  Uiso   1.00
O815   O     0.50001   0.53960   0.81487   0.00000  Uiso   1.00
O816   O     0.49999   0.46040   0.68513   0.00000  Uiso   1.00
C817   C     0.49897   0.50017   0.66437   0.00000  Uiso   1.00
C818   C     0.50100   0.49983   0.83563   0.00000  Uiso   1.00
Cu819  Cu    0.50000   0.54689   0.75000   0.00000  Uiso   1.00
Cu820  Cu    0.50000   0.45311   0.75000   0.00000  Uiso   1.00
C821   C     0.52350   0.46420   0.90771   0.00000  Uiso   1.00
C822   C     0.47632   0.53575   0.59230   0.00000  Uiso   1.00
C823   C     0.50221   0.49949   0.88399   0.00000  Uiso   1.00
C824   C     0.49766   0.50048   0.61602   0.00000  Uiso   1.00
C825   C     0.48078   0.53452   0.90642   0.00000  Uiso   1.00
C826   C     0.51904   0.46543   0.59358   0.00000  Uiso   1.00
C827   C     0.47949   0.53470   0.95246   0.00000  Uiso   1.00
C828   C     0.52026   0.46520   0.54754   0.00000  Uiso   1.00
C829   C     0.50042   0.49966   0.97668   0.00000  Uiso   1.00
C830   C     0.49931   0.50024   0.52332   0.00000  Uiso   1.00
C831   C     0.52261   0.46423   0.95439   0.00000  Uiso   1.00
C832   C     0.47714   0.53567   0.54562   0.00000  Uiso   1.00
C833   C     0.45720   0.56929   0.97456   0.00000  Uiso   1.00
C834   C     0.54250   0.43057   0.52544   0.00000  Uiso   1.00
C835   C     0.45577   0.56965   0.52063   0.00000  Uiso   1.00
C836   C     0.54392   0.43021   0.97937   0.00000  Uiso   1.00
H837   H     0.46428   0.56125   0.88783   0.00000  Uiso   1.00
H838   H     0.53556   0.43871   0.61216   0.00000  Uiso   1.00
H839   H     0.44068   0.59608   0.95615   0.00000  Uiso   1.00
H840   H     0.55901   0.40378   0.54385   0.00000  Uiso   1.00
H841   H     0.43771   0.59666   0.53632   0.00000  Uiso   1.00
H842   H     0.56195   0.40316   0.96368   0.00000  Uiso   1.00
C843   C     0.35459   0.45743   0.75136   0.00000  Uiso   1.00
C844   C     0.64541   0.54257   0.74864   0.00000  Uiso   1.00
C845   C     0.64536   0.45745   0.75146   0.00000  Uiso   1.00
C846   C     0.35464   0.54255   0.74854   0.00000  Uiso   1.00
H847   H     0.37059   0.42416   0.75247   0.00000  Uiso   1.00
H848   H     0.62941   0.57584   0.74753   0.00000  Uiso   1.00
H849   H     0.62932   0.42418   0.75266   0.00000  Uiso   1.00
H850   H     0.37068   0.57582   0.74734   0.00000  Uiso   1.00
C851   C     0.62393   0.50001   0.75008   0.00000  Uiso   1.00
C852   C     0.37607   0.49999   0.74992   0.00000  Uiso   1.00
C853   C     0.47185   0.35829   0.72552   0.00000  Uiso   1.00
C854   C     0.52815   0.64171   0.77448   0.00000  Uiso   1.00
C855   C     0.52819   0.35799   0.77442   0.00000  Uiso   1.00
C856   C     0.47182   0.64201   0.72558   0.00000  Uiso   1.00
H857   H     0.44933   0.37709   0.70586   0.00000  Uiso   1.00
H858   H     0.55068   0.62291   0.79414   0.00000  Uiso   1.00
H859   H     0.55083   0.37655   0.79389   0.00000  Uiso   1.00
H860   H     0.44918   0.62345   0.70611   0.00000  Uiso   1.00
N861   N     0.50000   0.61736   0.75000   0.00000  Uiso   1.00
N862   N     0.50000   0.38264   0.75000   0.00000  Uiso   1.00
N863   N     0.54694   0.42954   0.88450   0.00000  Uiso   1.00
O864   O     0.53610   0.38569   0.88621   0.00000  Uiso   1.00
O865   O     0.57794   0.44213   0.85991   0.00000  Uiso   1.00
N866   N     0.45292   0.57043   0.61554   0.00000  Uiso   1.00
O867   O     0.42217   0.55783   0.64049   0.00000  Uiso   1.00
O868   O     0.46363   0.61432   0.61358   0.00000  Uiso   1.00
O869   O     0.77321   0.53958   0.74999   0.00000  Uiso   1.00
O870   O     0.89345   0.46042   0.75000   0.00000  Uiso   1.00
O871   O     0.89345   0.53958   0.75000   0.00000  Uiso   1.00
O872   O     0.77321   0.46042   0.74999   0.00000  Uiso   1.00
C873   C     0.75402   0.49999   0.74995   0.00000  Uiso   1.00
C874   C     0.91265   0.50001   0.75005   0.00000  Uiso   1.00
O875   O     0.83332   0.53960   0.68513   0.00000  Uiso   1.00
O876   O     0.83334   0.46040   0.81487   0.00000  Uiso   1.00
O877   O     0.83334   0.53960   0.81487   0.00000  Uiso   1.00
O878   O     0.83332   0.46040   0.68513   0.00000  Uiso   1.00
C879   C     0.83230   0.50017   0.66437   0.00000  Uiso   1.00
C880   C     0.83433   0.49983   0.83563   0.00000  Uiso   1.00
Cu881  Cu    0.83333   0.54689   0.75000   0.00000  Uiso   1.00
Cu882  Cu    0.83333   0.45311   0.75000   0.00000  Uiso   1.00
C883   C     0.85683   0.46420   0.90771   0.00000  Uiso   1.00
C884   C     0.80965   0.53575   0.59230   0.00000  Uiso   1.00
C885   C     0.83555   0.49949   0.88399   0.00000  Uiso   1.00
C886   C     0.83100   0.50048   0.61602   0.00000  Uiso   1.00
C887   C     0.81411   0.53452   0.90642   0.00000  Uiso   1.00
C888   C     0.85237   0.46543   0.59358   0.00000  Uiso   1.00
C889   C     0.81282   0.53470   0.95246   0.00000  Uiso   1.00
C890   C     0.85360   0.46520   0.54754   0.00000  Uiso   1.00
C891   C     0.83376   0.49966   0.97668   0.00000  Uiso   1.00
C892   C     0.83265   0.50024   0.52332   0.00000  Uiso   1.00
C893   C     0.85594   0.46423   0.95439   0.00000  Uiso   1.00
C894   C     0.81047   0.53567   0.54562   0.00000  Uiso   1.00
C895   C     0.79054   0.56929   0.97456   0.00000  Uiso   1.00
C896   C     0.87584   0.43057   0.52544   0.00000  Uiso   1.00
C897   C     0.78911   0.56965   0.52063   0.00000  Uiso   1.00
C898   C     0.87725   0.43021   0.97937   0.00000  Uiso   1.00
H899   H     0.79762   0.56125   0.88783   0.00000  Uiso   1.00
H900   H     0.86889   0.43871   0.61216   0.00000  Uiso   1.00
H901   H     0.77401   0.59608   0.95615   0.00000  Uiso   1.00
H902   H     0.89235   0.40378   0.54385   0.00000  Uiso   1.00
H903   H     0.77104   0.59666   0.53632   0.00000  Uiso   1.00
H904   H     0.89528   0.40316   0.96368   0.00000  Uiso   1.00
C905   C     0.68793   0.45743   0.75136   0.00000  Uiso   1.00
C906   C     0.97874   0.54257   0.74864   0.00000  Uiso   1.00
C907   C     0.97869   0.45745   0.75146   0.00000  Uiso   1.00
C908   C     0.68798   0.54255   0.74854   0.00000  Uiso   1.00
H909   H     0.70392   0.42416   0.75247   0.00000  Uiso   1.00
H910   H     0.96275   0.57584   0.74753   0.00000  Uiso   1.00
H911   H     0.96265   0.42418   0.75266   0.00000  Uiso   1.00
H912   H     0.70401   0.57582   0.74734   0.00000  Uiso   1.00
C913   C     0.95726   0.50001   0.75008   0.00000  Uiso   1.00
C914   C     0.70941   0.49999   0.74992   0.00000  Uiso   1.00
C915   C     0.80518   0.35829   0.72552   0.00000  Uiso   1.00
C916   C     0.86149   0.64171   0.77448   0.00000  Uiso   1.00
C917   C     0.86152   0.35799   0.77442   0.00000  Uiso   1.00
C918   C     0.80515   0.64201   0.72558   0.00000  Uiso   1.00
H919   H     0.78266   0.37709   0.70586   0.00000  Uiso   1.00
H920   H     0.88401   0.62291   0.79414   0.00000  Uiso   1.00
H921   H     0.88416   0.37655   0.79389   0.00000  Uiso   1.00
H922   H     0.78251   0.62345   0.70611   0.00000  Uiso   1.00
N923   N     0.83333   0.61736   0.75000   0.00000  Uiso   1.00
N924   N     0.83333   0.38264   0.75000   0.00000  Uiso   1.00
N925   N     0.88028   0.42954   0.88450   0.00000  Uiso   1.00
O926   O     0.86944   0.38569   0.88621   0.00000  Uiso   1.00
O927   O     0.91127   0.44213   0.85991   0.00000  Uiso   1.00
N928   N     0.78625   0.57043   0.61554   0.00000  Uiso   1.00
O929   O     0.75551   0.55783   0.64049   0.00000  Uiso   1.00
O930   O     0.79696   0.61432   0.61358   0.00000  Uiso   1.00
O931   O     0.10655   0.87291   0.74999   0.00000  Uiso   1.00
O932   O     0.22679   0.79375   0.75000   0.00000  Uiso   1.00
O933   O     0.22679   0.87291   0.75000   0.00000  Uiso   1.00
O934   O     0.10655   0.79375   0.74999   0.00000  Uiso   1.00
C935   C     0.08735   0.83333   0.74995   0.00000  Uiso   1.00
C936   C     0.24598   0.83334   0.75005   0.00000  Uiso   1.00
O937   O     0.16666   0.87293   0.68513   0.00000  Uiso   1.00
O938   O     0.16668   0.79373   0.81487   0.00000  Uiso   1.00
O939   O     0.16668   0.87293   0.81487   0.00000  Uiso   1.00
O940   O     0.16666   0.79373   0.68513   0.00000  Uiso   1.00
C941   C     0.16564   0.83350   0.66437   0.00000  Uiso   1.00
C942   C     0.16766   0.83316   0.83563   0.00000  Uiso   1.00
Cu943  Cu    0.16667   0.88022   0.75000   0.00000  Uiso   1.00
Cu944  Cu    0.16667   0.78645   0.75000   0.00000  Uiso   1.00
C945   C     0.19017   0.79753   0.90771   0.00000  Uiso   1.00
C946   C     0.14298   0.86908   0.59230   0.00000  Uiso   1.00
C947   C     0.16888   0.83283   0.88399   0.00000  Uiso   1.00
C948   C     0.16433   0.83382   0.61602   0.00000  Uiso   1.00
C949   C     0.14745   0.86785   0.90642   0.00000  Uiso   1.00
C950   C     0.18571   0.79876   0.59358   0.00000  Uiso   1.00
C951   C     0.14615   0.86803   0.95246   0.00000  Uiso   1.00
C952   C     0.18693   0.79854   0.54754   0.00000  Uiso   1.00
C953   C     0.16709   0.83299   0.97668   0.00000  Uiso   1.00
C954   C     0.16598   0.83357   0.52332   0.00000  Uiso   1.00
C955   C     0.18928   0.79756   0.95439   0.00000  Uiso   1.00
C956   C     0.14380   0.86901   0.54562   0.00000  Uiso   1.00
C957   C     0.12387   0.90263   0.97456   0.00000  Uiso   1.00
C958   C     0.20917   0.76391   0.52544   0.00000  Uiso   1.00
C959   C     0.12244   0.90298   0.52063   0.00000  Uiso   1.00
C960   C     0.21059   0.76354   0.97937   0.00000  Uiso   1.00
H961   H     0.13095   0.89458   0.88783   0.00000  Uiso   1.00
H962   H     0.20222   0.77204   0.61216   0.00000  Uiso   1.00
H963   H     0.10734   0.92941   0.95615   0.00000  Uiso   1.00
H964   H     0.22568   0.73711   0.54385   0.00000  Uiso   1.00
H965   H     0.10438   0.93000   0.53632   0.00000  Uiso   1.00
H966   H     0.22861   0.73650   0.96368   0.00000  Uiso   1.00
C967   C     0.02126   0.79077   0.75136   0.00000  Uiso   1.00
C968   C     0.31207   0.87590   0.74864   0.00000  Uiso   1.00
C969   C     0.31202   0.79078   0.75146   0.00000  Uiso   1.00
C970   C     0.02131   0.87589   0.74854   0.00000  Uiso   1.00
H971   H     0.03725   0.75749   0.75247   0.00000  Uiso   1.00
H972   H     0.29608   0.90917   0.74753   0.00000  Uiso   1.00
H973   H     0.29599   0.75751   0.75266   0.00000  Uiso   1.00
H974   H     0.03735   0.90915   0.74734   0.00000  Uiso   1.00
C975   C     0.29060   0.83334   0.75008   0.00000  Uiso   1.00
C976   C     0.04274   0.83332   0.74992   0.00000  Uiso   1.00
C977   C     0.13852   0.69162   0.72552   0.00000  Uiso   1.00
C978   C     0.19482   0.97505   0.77448   0.00000  Uiso   1.00
C979   C     0.19485   0.69132   0.77442   0.00000  Uiso   1.00
C980   C     0.13848   0.97534   0.72558   0.00000  Uiso   1.00
H981   H     0.11599   0.71042   0.70586   0.00000  Uiso   1.00
H982   H     0.21734   0.95624   0.79414   0.00000  Uiso   1.00
H983   H     0.21749   0.70988   0.79389   0.00000  Uiso   1.00
H984   H     0.11584   0.95678   0.70611   0.00000  Uiso   1.00
N985   N     0.16667   0.95069   0.75000   0.00000  Uiso   1.00
N986   N     0.16667   0.71598   0.75000   0.00000  Uiso   1.00
N987   N     0.21361   0.76288   0.88450   0.00000  Uiso   1.00
O988   O     0.20277   0.71902   0.88621   0.00000  Uiso   1.00
O989   O     0.24461   0.77546   0.85991   0.00000  Uiso   1.00
N990   N     0.11958   0.90376   0.61554   0.00000  Uiso   1.00
O991   O     0.08884   0.89116   0.64049   0.00000  Uiso   1.00
O992   O     0.13029   0.94765   0.61358   0.00000  Uiso   1.00
O993   O     0.43988   0.87291   0.74999   0.00000  Uiso   1.00
O994   O     0.56012   0.79375   0.75000   0.00000  Uiso   1.00
O995   O     0.56012   0.87291   0.75000   0.00000  Uiso   1.00
O996   O     0.43988   0.79375   0.74999   0.00000  Uiso   1.00
C997   C     0.42068   0.83333   0.74995   0.00000  Uiso   1.00
C998   C     0.57932   0.83334   0.75005   0.00000  Uiso   1.00
O999   O     0.49999   0.87293   0.68513   0.00000  Uiso   1.00
O1000  O     0.50001   0.79373   0.81487   0.00000  Uiso   1.00
O1001  O     0.50001   0.87293   0.81487   0.00000  Uiso   1.00
O1002  O     0.49999   0.79373   0.68513   0.00000  Uiso   1.00
C1003  C     0.49897   0.83350   0.66437   0.00000  Uiso   1.00
C1004  C     0.50100   0.83316   0.83563   0.00000  Uiso   1.00
Cu1005 Cu    0.50000   0.88022   0.75000   0.00000  Uiso   1.00
Cu1006 Cu    0.50000   0.78645   0.75000   0.00000  Uiso   1.00
C1007  C     0.52350   0.79753   0.90771   0.00000  Uiso   1.00
C1008  C     0.47632   0.86908   0.59230   0.00000  Uiso   1.00
C1009  C     0.50221   0.83283   0.88399   0.00000  Uiso   1.00
C1010  C     0.49766   0.83382   0.61602   0.00000  Uiso   1.00
C1011  C     0.48078   0.86785   0.90642   0.00000  Uiso   1.00
C1012  C     0.51904   0.79876   0.59358   0.00000  Uiso   1.00
C1013  C     0.47949   0.86803   0.95246   0.00000  Uiso   1.00
C1014  C     0.52026   0.79854   0.54754   0.00000  Uiso   1.00
C1015  C     0.50042   0.83299   0.97668   0.00000  Uiso   1.00
C1016  C     0.49931   0.83357   0.52332   0.00000  Uiso   1.00
C1017  C     0.52261   0.79756   0.95439   0.00000  Uiso   1.00
C1018  C     0.47714   0.86901   0.54562   0.00000  Uiso   1.00
C1019  C     0.45720   0.90263   0.97456   0.00000  Uiso   1.00
C1020  C     0.54250   0.76391   0.52544   0.00000  Uiso   1.00
C1021  C     0.45577   0.90298   0.52063   0.00000  Uiso   1.00
C1022  C     0.54392   0.76354   0.97937   0.00000  Uiso   1.00
H1023  H     0.46428   0.89458   0.88783   0.00000  Uiso   1.00
H1024  H     0.53556   0.77204   0.61216   0.00000  Uiso   1.00
H1025  H     0.44068   0.92941   0.95615   0.00000  Uiso   1.00
H1026  H     0.55901   0.73711   0.54385   0.00000  Uiso   1.00
H1027  H     0.43771   0.93000   0.53632   0.00000  Uiso   1.00
H1028  H     0.56195   0.73650   0.96368   0.00000  Uiso   1.00
C1029  C     0.35459   0.79077   0.75136   0.00000  Uiso   1.00
C1030  C     0.64541   0.87590   0.74864   0.00000  Uiso   1.00
C1031  C     0.64536   0.79078   0.75146   0.00000  Uiso   1.00
C1032  C     0.35464   0.87589   0.74854   0.00000  Uiso   1.00
H1033  H     0.37059   0.75749   0.75247   0.00000  Uiso   1.00
H1034  H     0.62941   0.90917   0.74753   0.00000  Uiso   1.00
H1035  H     0.62932   0.75751   0.75266   0.00000  Uiso   1.00
H1036  H     0.37068   0.90915   0.74734   0.00000  Uiso   1.00
C1037  C     0.62393   0.83334   0.75008   0.00000  Uiso   1.00
C1038  C     0.37607   0.83332   0.74992   0.00000  Uiso   1.00
C1039  C     0.47185   0.69162   0.72552   0.00000  Uiso   1.00
C1040  C     0.52815   0.97505   0.77448   0.00000  Uiso   1.00
C1041  C     0.52819   0.69132   0.77442   0.00000  Uiso   1.00
C1042  C     0.47182   0.97534   0.72558   0.00000  Uiso   1.00
H1043  H     0.44933   0.71042   0.70586   0.00000  Uiso   1.00
H1044  H     0.55068   0.95624   0.79414   0.00000  Uiso   1.00
H1045  H     0.55083   0.70988   0.79389   0.00000  Uiso   1.00
H1046  H     0.44918   0.95678   0.70611   0.00000  Uiso   1.00
N1047  N     0.50000   0.95069   0.75000   0.00000  Uiso   1.00
N1048  N     0.50000   0.71598   0.75000   0.00000  Uiso   1.00
N1049  N     0.54694   0.76288   0.88450   0.00000  Uiso   1.00
O1050  O     0.53610   0.71902   0.88621   0.00000  Uiso   1.00
O1051  O     0.57794   0.77546   0.85991   0.00000  Uiso   1.00
N1052  N     0.45292   0.90376   0.61554   0.00000  Uiso   1.00
O1053  O     0.42217   0.89116   0.64049   0.00000  Uiso   1.00
O1054  O     0.46363   0.94765   0.61358   0.00000  Uiso   1.00
O1055  O     0.77321   0.87291   0.74999   0.00000  Uiso   1.00
O1056  O     0.89345   0.79375   0.75000   0.00000  Uiso   1.00
O1057  O     0.89345   0.87291   0.75000   0.00000  Uiso   1.00
O1058  O     0.77321   0.79375   0.74999   0.00000  Uiso   1.00
C1059  C     0.75402   0.83333   0.74995   0.00000  Uiso   1.00
C1060  C     0.91265   0.83334   0.75005   0.00000  Uiso   1.00
O1061  O     0.83332   0.87293   0.68513   0.00000  Uiso   1.00
O1062  O     0.83334   0.79373   0.81487   0.00000  Uiso   1.00
O1063  O     0.83334   0.87293   0.81487   0.00000  Uiso   1.00
O1064  O     0.83332   0.79373   0.68513   0.00000  Uiso   1.00
C1065  C     0.83230   0.83350   0.66437   0.00000  Uiso   1.00
C1066  C     0.83433   0.83316   0.83563   0.00000  Uiso   1.00
Cu1067 Cu    0.83333   0.88022   0.75000   0.00000  Uiso   1.00
Cu1068 Cu    0.83333   0.78645   0.75000   0.00000  Uiso   1.00
C1069  C     0.85683   0.79753   0.90771   0.00000  Uiso   1.00
C1070  C     0.80965   0.86908   0.59230   0.00000  Uiso   1.00
C1071  C     0.83555   0.83283   0.88399   0.00000  Uiso   1.00
C1072  C     0.83100   0.83382   0.61602   0.00000  Uiso   1.00
C1073  C     0.81411   0.86785   0.90642   0.00000  Uiso   1.00
C1074  C     0.85237   0.79876   0.59358   0.00000  Uiso   1.00
C1075  C     0.81282   0.86803   0.95246   0.00000  Uiso   1.00
C1076  C     0.85360   0.79854   0.54754   0.00000  Uiso   1.00
C1077  C     0.83376   0.83299   0.97668   0.00000  Uiso   1.00
C1078  C     0.83265   0.83357   0.52332   0.00000  Uiso   1.00
C1079  C     0.85594   0.79756   0.95439   0.00000  Uiso   1.00
C1080  C     0.81047   0.86901   0.54562   0.00000  Uiso   1.00
C1081  C     0.79054   0.90263   0.97456   0.00000  Uiso   1.00
C1082  C     0.87584   0.76391   0.52544   0.00000  Uiso   1.00
C1083  C     0.78911   0.90298   0.52063   0.00000  Uiso   1.00
C1084  C     0.87725   0.76354   0.97937   0.00000  Uiso   1.00
H1085  H     0.79762   0.89458   0.88783   0.00000  Uiso   1.00
H1086  H     0.86889   0.77204   0.61216   0.00000  Uiso   1.00
H1087  H     0.77401   0.92941   0.95615   0.00000  Uiso   1.00
H1088  H     0.89235   0.73711   0.54385   0.00000  Uiso   1.00
H1089  H     0.77104   0.93000   0.53632   0.00000  Uiso   1.00
H1090  H     0.89528   0.73650   0.96368   0.00000  Uiso   1.00
C1091  C     0.68793   0.79077   0.75136   0.00000  Uiso   1.00
C1092  C     0.97874   0.87590   0.74864   0.00000  Uiso   1.00
C1093  C     0.97869   0.79078   0.75146   0.00000  Uiso   1.00
C1094  C     0.68798   0.87589   0.74854   0.00000  Uiso   1.00
H1095  H     0.70392   0.75749   0.75247   0.00000  Uiso   1.00
H1096  H     0.96275   0.90917   0.74753   0.00000  Uiso   1.00
H1097  H     0.96265   0.75751   0.75266   0.00000  Uiso   1.00
H1098  H     0.70401   0.90915   0.74734   0.00000  Uiso   1.00
C1099  C     0.95726   0.83334   0.75008   0.00000  Uiso   1.00
C1100  C     0.70941   0.83332   0.74992   0.00000  Uiso   1.00
C1101  C     0.80518   0.69162   0.72552   0.00000  Uiso   1.00
C1102  C     0.86149   0.97505   0.77448   0.00000  Uiso   1.00
C1103  C     0.86152   0.69132   0.77442   0.00000  Uiso   1.00
C1104  C     0.80515   0.97534   0.72558   0.00000  Uiso   1.00
H1105  H     0.78266   0.71042   0.70586   0.00000  Uiso   1.00
H1106  H     0.88401   0.95624   0.79414   0.00000  Uiso   1.00
H1107  H     0.88416   0.70988   0.79389   0.00000  Uiso   1.00
H1108  H     0.78251   0.95678   0.70611   0.00000  Uiso   1.00
N1109  N     0.83333   0.95069   0.75000   0.00000  Uiso   1.00
N1110  N     0.83333   0.71598   0.75000   0.00000  Uiso   1.00
N1111  N     0.88028   0.76288   0.88450   0.00000  Uiso   1.00
O1112  O     0.86944   0.71902   0.88621   0.00000  Uiso   1.00
O1113  O     0.91127   0.77546   0.85991   0.00000  Uiso   1.00
N1114  N     0.78625   0.90376   0.61554   0.00000  Uiso   1.00
O1115  O     0.75551   0.89116   0.64049   0.00000  Uiso   1.00
O1116  O     0.79696   0.94765   0.61358   0.00000  Uiso   1.00
loop_
_geom_bond_atom_site_label_1
_geom_bond_atom_site_label_2
_geom_bond_distance
_geom_bond_site_symmetry_2
_ccdc_geom_bond_type
O1     C5      1.290   .     A
O1     Cu13    1.965   .     S
O2     Cu14    1.965   .     S
O2     C6      1.290   .     A
O3     Cu13    1.965   .     S
O3     C6      1.291   .     A
O4     Cu14    1.965   .     S
O4     C5      1.291   .     A
C5     C46     1.450   .     S
C6     C45     1.450   .     S
O7     C11     1.292   .     A
O7     Cu13    1.969   .     S
O8     C12     1.292   .     A
O8     Cu14    1.969   .     S
O9     C12     1.293   .     A
O9     Cu13    1.967   .     S
O10    C11     1.293   .     A
O10    Cu14    1.967   .     S
C11    C18     1.459   .     S
C12    C17     1.459   .     S
Cu13   N55     2.011   .     S
Cu13   Cu14    2.677   .     S
Cu14   N56     2.011   .     S
C15    N57     1.436   .     S
C15    C25     1.408   .     A
C15    C17     1.413   .     A
C16    C18     1.413   .     A
C16    N60     1.436   .     S
C16    C26     1.409   .     A
C17    C19     1.398   .     A
C18    C20     1.398   .     A
C19    H31     1.085   .     S
C19    C21     1.390   .     A
C20    H32     1.085   .     S
C20    C22     1.389   .     A
C21    C27     1.398   .     A
C21    C23     1.409   .     A
C22    C28     1.398   .     A
C22    C24     1.409   .     A
C23    C25     1.417   .     A
C23    C582    1.408   .     S
C24    C26     1.417   .     A
C24    C581    1.408   1_554 S
C25    C30     1.407   .     A
C26    C29     1.407   .     A
C27    H33     1.084   .     S
C27    C587    1.391   .     S
C28    H34     1.084   .     S
C28    C588    1.391   1_554 S
C29    H35     1.081   .     S
C29    C585    1.391   1_554 S
C30    H36     1.081   .     S
C30    C586    1.391   .     S
C37    H41     1.083   .     S
C37    C46     1.401   .     A
C37    C163    1.383   1_455 S
C38    H42     1.083   .     S
C38    C45     1.401   .     A
C38    C102    1.383   .     S
C39    C45     1.401   .     A
C39    H43     1.083   .     S
C39    C99     1.383   .     S
C40    C46     1.401   .     A
C40    H44     1.083   .     S
C40    C162    1.383   1_455 S
C47    N56     1.367   .     A
C47    H51     1.082   .     S
C47    C422    1.416   1_545 S
C48    N55     1.367   .     A
C48    H52     1.082   .     S
C48    C235    1.416   .     S
C49    N56     1.367   .     A
C49    H53     1.081   .     S
C49    C420    1.416   1_545 S
C50    N55     1.367   .     A
C50    H54     1.081   .     S
C50    C233    1.416   .     S
N57    O58     1.301   .     A
N57    O59     1.301   .     A
N60    O61     1.301   .     A
N60    O62     1.301   .     A
O63    C67     1.290   .     A
O63    Cu75    1.965   .     S
O64    Cu76    1.965   .     S
O64    C68     1.290   .     A
O65    Cu75    1.965   .     S
O65    C68     1.291   .     A
O66    Cu76    1.965   .     S
O66    C67     1.291   .     A
C67    C108    1.450   .     S
C68    C107    1.450   .     S
O69    C73     1.292   .     A
O69    Cu75    1.969   .     S
O70    C74     1.292   .     A
O70    Cu76    1.969   .     S
O71    C74     1.293   .     A
O71    Cu75    1.967   .     S
O72    C73     1.293   .     A
O72    Cu76    1.967   .     S
C73    C80     1.459   .     S
C74    C79     1.459   .     S
Cu75   N117    2.011   .     S
Cu75   Cu76    2.677   .     S
Cu76   N118    2.011   .     S
C77    N119    1.436   .     S
C77    C87     1.408   .     A
C77    C79     1.413   .     A
C78    C80     1.413   .     A
C78    N122    1.436   .     S
C78    C88     1.409   .     A
C79    C81     1.398   .     A
C80    C82     1.398   .     A
C81    H93     1.085   .     S
C81    C83     1.390   .     A
C82    H94     1.085   .     S
C82    C84     1.389   .     A
C83    C89     1.398   .     A
C83    C85     1.409   .     A
C84    C90     1.398   .     A
C84    C86     1.409   .     A
C85    C87     1.417   .     A
C85    C644    1.408   .     S
C86    C88     1.417   .     A
C86    C643    1.408   1_554 S
C87    C92     1.407   .     A
C88    C91     1.407   .     A
C89    H95     1.084   .     S
C89    C649    1.391   .     S
C90    H96     1.084   .     S
C90    C650    1.391   1_554 S
C91    H97     1.081   .     S
C91    C647    1.391   1_554 S
C92    H98     1.081   .     S
C92    C648    1.391   .     S
C99    H103    1.083   .     S
C99    C108    1.401   .     A
C100   H104    1.083   .     S
C100   C107    1.401   .     A
C100   C164    1.383   .     S
C101   C107    1.401   .     A
C101   H105    1.083   .     S
C101   C161    1.383   .     S
C102   C108    1.401   .     A
C102   H106    1.083   .     S
C109   N118    1.367   .     A
C109   H113    1.082   .     S
C109   C484    1.416   1_545 S
C110   N117    1.367   .     A
C110   H114    1.082   .     S
C110   C297    1.416   .     S
C111   N118    1.367   .     A
C111   H115    1.081   .     S
C111   C482    1.416   1_545 S
C112   N117    1.367   .     A
C112   H116    1.081   .     S
C112   C295    1.416   .     S
N119   O120    1.301   .     A
N119   O121    1.301   .     A
N122   O123    1.301   .     A
N122   O124    1.301   .     A
O125   C129    1.290   .     A
O125   Cu137   1.965   .     S
O126   Cu138   1.965   .     S
O126   C130    1.290   .     A
O127   Cu137   1.965   .     S
O127   C130    1.291   .     A
O128   Cu138   1.965   .     S
O128   C129    1.291   .     A
C129   C170    1.450   .     S
C130   C169    1.450   .     S
O131   C135    1.292   .     A
O131   Cu137   1.969   .     S
O132   C136    1.292   .     A
O132   Cu138   1.969   .     S
O133   C136    1.293   .     A
O133   Cu137   1.967   .     S
O134   C135    1.293   .     A
O134   Cu138   1.967   .     S
C135   C142    1.459   .     S
C136   C141    1.459   .     S
Cu137  N179    2.011   .     S
Cu137  Cu138   2.677   .     S
Cu138  N180    2.011   .     S
C139   N181    1.436   .     S
C139   C149    1.408   .     A
C139   C141    1.413   .     A
C140   C142    1.413   .     A
C140   N184    1.436   .     S
C140   C150    1.409   .     A
C141   C143    1.398   .     A
C142   C144    1.398   .     A
C143   H155    1.085   .     S
C143   C145    1.390   .     A
C144   H156    1.085   .     S
C144   C146    1.389   .     A
C145   C151    1.398   .     A
C145   C147    1.409   .     A
C146   C152    1.398   .     A
C146   C148    1.409   .     A
C147   C149    1.417   .     A
C147   C706    1.408   .     S
C148   C150    1.417   .     A
C148   C705    1.408   1_554 S
C149   C154    1.407   .     A
C150   C153    1.407   .     A
C151   H157    1.084   .     S
C151   C711    1.391   .     S
C152   H158    1.084   .     S
C152   C712    1.391   1_554 S
C153   H159    1.081   .     S
C153   C709    1.391   1_554 S
C154   H160    1.081   .     S
C154   C710    1.391   .     S
C161   H165    1.083   .     S
C161   C170    1.401   .     A
C162   H166    1.083   .     S
C162   C169    1.401   .     A
C162   C40     1.383   1_655 S
C163   C169    1.401   .     A
C163   H167    1.083   .     S
C163   C37     1.383   1_655 S
C164   C170    1.401   .     A
C164   H168    1.083   .     S
C171   N180    1.367   .     A
C171   H175    1.082   .     S
C171   C546    1.416   1_545 S
C172   N179    1.367   .     A
C172   H176    1.082   .     S
C172   C359    1.416   .     S
C173   N180    1.367   .     A
C173   H177    1.081   .     S
C173   C544    1.416   1_545 S
C174   N179    1.367   .     A
C174   H178    1.081   .     S
C174   C357    1.416   .     S
N181   O182    1.301   .     A
N181   O183    1.301   .     A
N184   O185    1.301   .     A
N184   O186    1.301   .     A
O187   C191    1.290   .     A
O187   Cu199   1.965   .     S
O188   Cu200   1.965   .     S
O188   C192    1.290   .     A
O189   Cu199   1.965   .     S
O189   C192    1.291   .     A
O190   Cu200   1.965   .     S
O190   C191    1.291   .     A
C191   C232    1.450   .     S
C192   C231    1.450   .     S
O193   C197    1.292   .     A
O193   Cu199   1.969   .     S
O194   C198    1.292   .     A
O194   Cu200   1.969   .     S
O195   C198    1.293   .     A
O195   Cu199   1.967   .     S
O196   C197    1.293   .     A
O196   Cu200   1.967   .     S
C197   C204    1.459   .     S
C198   C203    1.459   .     S
Cu199  N241    2.011   .     S
Cu199  Cu200   2.677   .     S
Cu200  N242    2.011   .     S
C201   N243    1.436   .     S
C201   C211    1.408   .     A
C201   C203    1.413   .     A
C202   C204    1.413   .     A
C202   N246    1.436   .     S
C202   C212    1.409   .     A
C203   C205    1.398   .     A
C204   C206    1.398   .     A
C205   H217    1.085   .     S
C205   C207    1.390   .     A
C206   H218    1.085   .     S
C206   C208    1.389   .     A
C207   C213    1.398   .     A
C207   C209    1.409   .     A
C208   C214    1.398   .     A
C208   C210    1.409   .     A
C209   C211    1.417   .     A
C209   C768    1.408   .     S
C210   C212    1.417   .     A
C210   C767    1.408   1_554 S
C211   C216    1.407   .     A
C212   C215    1.407   .     A
C213   H219    1.084   .     S
C213   C773    1.391   .     S
C214   H220    1.084   .     S
C214   C774    1.391   1_554 S
C215   H221    1.081   .     S
C215   C771    1.391   1_554 S
C216   H222    1.081   .     S
C216   C772    1.391   .     S
C223   H227    1.083   .     S
C223   C232    1.401   .     A
C223   C349    1.383   1_455 S
C224   H228    1.083   .     S
C224   C231    1.401   .     A
C224   C288    1.383   .     S
C225   C231    1.401   .     A
C225   H229    1.083   .     S
C225   C285    1.383   .     S
C226   C232    1.401   .     A
C226   H230    1.083   .     S
C226   C348    1.383   1_455 S
C233   N242    1.367   .     A
C233   H237    1.082   .     S
C234   N241    1.367   .     A
C234   H238    1.082   .     S
C234   C421    1.416   .     S
C235   N242    1.367   .     A
C235   H239    1.081   .     S
C236   N241    1.367   .     A
C236   H240    1.081   .     S
C236   C419    1.416   .     S
N243   O244    1.301   .     A
N243   O245    1.301   .     A
N246   O247    1.301   .     A
N246   O248    1.301   .     A
O249   C253    1.290   .     A
O249   Cu261   1.965   .     S
O250   Cu262   1.965   .     S
O250   C254    1.290   .     A
O251   Cu261   1.965   .     S
O251   C254    1.291   .     A
O252   Cu262   1.965   .     S
O252   C253    1.291   .     A
C253   C294    1.450   .     S
C254   C293    1.450   .     S
O255   C259    1.292   .     A
O255   Cu261   1.969   .     S
O256   C260    1.292   .     A
O256   Cu262   1.969   .     S
O257   C260    1.293   .     A
O257   Cu261   1.967   .     S
O258   C259    1.293   .     A
O258   Cu262   1.967   .     S
C259   C266    1.459   .     S
C260   C265    1.459   .     S
Cu261  N303    2.011   .     S
Cu261  Cu262   2.677   .     S
Cu262  N304    2.011   .     S
C263   N305    1.436   .     S
C263   C273    1.408   .     A
C263   C265    1.413   .     A
C264   C266    1.413   .     A
C264   N308    1.436   .     S
C264   C274    1.409   .     A
C265   C267    1.398   .     A
C266   C268    1.398   .     A
C267   H279    1.085   .     S
C267   C269    1.390   .     A
C268   H280    1.085   .     S
C268   C270    1.389   .     A
C269   C275    1.398   .     A
C269   C271    1.409   .     A
C270   C276    1.398   .     A
C270   C272    1.409   .     A
C271   C273    1.417   .     A
C271   C830    1.408   .     S
C272   C274    1.417   .     A
C272   C829    1.408   1_554 S
C273   C278    1.407   .     A
C274   C277    1.407   .     A
C275   H281    1.084   .     S
C275   C835    1.391   .     S
C276   H282    1.084   .     S
C276   C836    1.391   1_554 S
C277   H283    1.081   .     S
C277   C833    1.391   1_554 S
C278   H284    1.081   .     S
C278   C834    1.391   .     S
C285   H289    1.083   .     S
C285   C294    1.401   .     A
C286   H290    1.083   .     S
C286   C293    1.401   .     A
C286   C350    1.383   .     S
C287   C293    1.401   .     A
C287   H291    1.083   .     S
C287   C347    1.383   .     S
C288   C294    1.401   .     A
C288   H292    1.083   .     S
C295   N304    1.367   .     A
C295   H299    1.082   .     S
C296   N303    1.367   .     A
C296   H300    1.082   .     S
C296   C483    1.416   .     S
C297   N304    1.367   .     A
C297   H301    1.081   .     S
C298   N303    1.367   .     A
C298   H302    1.081   .     S
C298   C481    1.416   .     S
N305   O306    1.301   .     A
N305   O307    1.301   .     A
N308   O309    1.301   .     A
N308   O310    1.301   .     A
O311   C315    1.290   .     A
O311   Cu323   1.965   .     S
O312   Cu324   1.965   .     S
O312   C316    1.290   .     A
O313   Cu323   1.965   .     S
O313   C316    1.291   .     A
O314   Cu324   1.965   .     S
O314   C315    1.291   .     A
C315   C356    1.450   .     S
C316   C355    1.450   .     S
O317   C321    1.292   .     A
O317   Cu323   1.969   .     S
O318   C322    1.292   .     A
O318   Cu324   1.969   .     S
O319   C322    1.293   .     A
O319   Cu323   1.967   .     S
O320   C321    1.293   .     A
O320   Cu324   1.967   .     S
C321   C328    1.459   .     S
C322   C327    1.459   .     S
Cu323  N365    2.011   .     S
Cu323  Cu324   2.677   .     S
Cu324  N366    2.011   .     S
C325   N367    1.436   .     S
C325   C335    1.408   .     A
C325   C327    1.413   .     A
C326   C328    1.413   .     A
C326   N370    1.436   .     S
C326   C336    1.409   .     A
C327   C329    1.398   .     A
C328   C330    1.398   .     A
C329   H341    1.085   .     S
C329   C331    1.390   .     A
C330   H342    1.085   .     S
C330   C332    1.389   .     A
C331   C337    1.398   .     A
C331   C333    1.409   .     A
C332   C338    1.398   .     A
C332   C334    1.409   .     A
C333   C335    1.417   .     A
C333   C892    1.408   .     S
C334   C336    1.417   .     A
C334   C891    1.408   1_554 S
C335   C340    1.407   .     A
C336   C339    1.407   .     A
C337   H343    1.084   .     S
C337   C897    1.391   .     S
C338   H344    1.084   .     S
C338   C898    1.391   1_554 S
C339   H345    1.081   .     S
C339   C895    1.391   1_554 S
C340   H346    1.081   .     S
C340   C896    1.391   .     S
C347   H351    1.083   .     S
C347   C356    1.401   .     A
C348   H352    1.083   .     S
C348   C355    1.401   .     A
C348   C226    1.383   1_655 S
C349   C355    1.401   .     A
C349   H353    1.083   .     S
C349   C223    1.383   1_655 S
C350   C356    1.401   .     A
C350   H354    1.083   .     S
C357   N366    1.367   .     A
C357   H361    1.082   .     S
C358   N365    1.367   .     A
C358   H362    1.082   .     S
C358   C545    1.416   .     S
C359   N366    1.367   .     A
C359   H363    1.081   .     S
C360   N365    1.367   .     A
C360   H364    1.081   .     S
C360   C543    1.416   .     S
N367   O368    1.301   .     A
N367   O369    1.301   .     A
N370   O371    1.301   .     A
N370   O372    1.301   .     A
O373   C377    1.290   .     A
O373   Cu385   1.965   .     S
O374   Cu386   1.965   .     S
O374   C378    1.290   .     A
O375   Cu385   1.965   .     S
O375   C378    1.291   .     A
O376   Cu386   1.965   .     S
O376   C377    1.291   .     A
C377   C418    1.450   .     S
C378   C417    1.450   .     S
O379   C383    1.292   .     A
O379   Cu385   1.969   .     S
O380   C384    1.292   .     A
O380   Cu386   1.969   .     S
O381   C384    1.293   .     A
O381   Cu385   1.967   .     S
O382   C383    1.293   .     A
O382   Cu386   1.967   .     S
C383   C390    1.459   .     S
C384   C389    1.459   .     S
Cu385  N427    2.011   .     S
Cu385  Cu386   2.677   .     S
Cu386  N428    2.011   .     S
C387   N429    1.436   .     S
C387   C397    1.408   .     A
C387   C389    1.413   .     A
C388   C390    1.413   .     A
C388   N432    1.436   .     S
C388   C398    1.409   .     A
C389   C391    1.398   .     A
C390   C392    1.398   .     A
C391   H403    1.085   .     S
C391   C393    1.390   .     A
C392   H404    1.085   .     S
C392   C394    1.389   .     A
C393   C399    1.398   .     A
C393   C395    1.409   .     A
C394   C400    1.398   .     A
C394   C396    1.409   .     A
C395   C397    1.417   .     A
C395   C954    1.408   .     S
C396   C398    1.417   .     A
C396   C953    1.408   1_554 S
C397   C402    1.407   .     A
C398   C401    1.407   .     A
C399   H405    1.084   .     S
C399   C959    1.391   .     S
C400   H406    1.084   .     S
C400   C960    1.391   1_554 S
C401   H407    1.081   .     S
C401   C957    1.391   1_554 S
C402   H408    1.081   .     S
C402   C958    1.391   .     S
C409   H413    1.083   .     S
C409   C418    1.401   .     A
C409   C535    1.383   1_455 S
C410   H414    1.083   .     S
C410   C417    1.401   .     A
C410   C474    1.383   .     S
C411   C417    1.401   .     A
C411   H415    1.083   .     S
C411   C471    1.383   .     S
C412   C418    1.401   .     A
C412   H416    1.083   .     S
C412   C534    1.383   1_455 S
C419   N428    1.367   .     A
C419   H423    1.082   .     S
C420   N427    1.367   .     A
C420   H424    1.082   .     S
C420   C49     1.416   1_565 S
C421   N428    1.367   .     A
C421   H425    1.081   .     S
C422   N427    1.367   .     A
C422   H426    1.081   .     S
C422   C47     1.416   1_565 S
N429   O430    1.301   .     A
N429   O431    1.301   .     A
N432   O433    1.301   .     A
N432   O434    1.301   .     A
O435   C439    1.290   .     A
O435   Cu447   1.965   .     S
O436   Cu448   1.965   .     S
O436   C440    1.290   .     A
O437   Cu447   1.965   .     S
O437   C440    1.291   .     A
O438   Cu448   1.965   .     S
O438   C439    1.291   .     A
C439   C480    1.450   .     S
C440   C479    1.450   .     S
O441   C445    1.292   .     A
O441   Cu447   1.969   .     S
O442   C446    1.292   .     A
O442   Cu448   1.969   .     S
O443   C446    1.293   .     A
O443   Cu447   1.967   .     S
O444   C445    1.293   .     A
O444   Cu448   1.967   .     S
C445   C452    1.459   .     S
C446   C451    1.459   .     S
Cu447  N489    2.011   .     S
Cu447  Cu448   2.677   .     S
Cu448  N490    2.011   .     S
C449   N491    1.436   .     S
C449   C459    1.408   .     A
C449   C451    1.413   .     A
C450   C452    1.413   .     A
C450   N494    1.436   .     S
C450   C460    1.409   .     A
C451   C453    1.398   .     A
C452   C454    1.398   .     A
C453   H465    1.085   .     S
C453   C455    1.390   .     A
C454   H466    1.085   .     S
C454   C456    1.389   .     A
C455   C461    1.398   .     A
C455   C457    1.409   .     A
C456   C462    1.398   .     A
C456   C458    1.409   .     A
C457   C459    1.417   .     A
C457   C1016   1.408   .     S
C458   C460    1.417   .     A
C458   C1015   1.408   1_554 S
C459   C464    1.407   .     A
C460   C463    1.407   .     A
C461   H467    1.084   .     S
C461   C1021   1.391   .     S
C462   H468    1.084   .     S
C462   C1022   1.391   1_554 S
C463   H469    1.081   .     S
C463   C1019   1.391   1_554 S
C464   H470    1.081   .     S
C464   C1020   1.391   .     S
C471   H475    1.083   .     S
C471   C480    1.401   .     A
C472   H476    1.083   .     S
C472   C479    1.401   .     A
C472   C536    1.383   .     S
C473   C479    1.401   .     A
C473   H477    1.083   .     S
C473   C533    1.383   .     S
C474   C480    1.401   .     A
C474   H478    1.083   .     S
C481   N490    1.367   .     A
C481   H485    1.082   .     S
C482   N489    1.367   .     A
C482   H486    1.082   .     S
C482   C111    1.416   1_565 S
C483   N490    1.367   .     A
C483   H487    1.081   .     S
C484   N489    1.367   .     A
C484   H488    1.081   .     S
C484   C109    1.416   1_565 S
N491   O492    1.301   .     A
N491   O493    1.301   .     A
N494   O495    1.301   .     A
N494   O496    1.301   .     A
O497   C501    1.290   .     A
O497   Cu509   1.965   .     S
O498   Cu510   1.965   .     S
O498   C502    1.290   .     A
O499   Cu509   1.965   .     S
O499   C502    1.291   .     A
O500   Cu510   1.965   .     S
O500   C501    1.291   .     A
C501   C542    1.450   .     S
C502   C541    1.450   .     S
O503   C507    1.292   .     A
O503   Cu509   1.969   .     S
O504   C508    1.292   .     A
O504   Cu510   1.969   .     S
O505   C508    1.293   .     A
O505   Cu509   1.967   .     S
O506   C507    1.293   .     A
O506   Cu510   1.967   .     S
C507   C514    1.459   .     S
C508   C513    1.459   .     S
Cu509  N551    2.011   .     S
Cu509  Cu510   2.677   .     S
Cu510  N552    2.011   .     S
C511   N553    1.436   .     S
C511   C521    1.408   .     A
C511   C513    1.413   .     A
C512   C514    1.413   .     A
C512   N556    1.436   .     S
C512   C522    1.409   .     A
C513   C515    1.398   .     A
C514   C516    1.398   .     A
C515   H527    1.085   .     S
C515   C517    1.390   .     A
C516   H528    1.085   .     S
C516   C518    1.389   .     A
C517   C523    1.398   .     A
C517   C519    1.409   .     A
C518   C524    1.398   .     A
C518   C520    1.409   .     A
C519   C521    1.417   .     A
C519   C1078   1.408   .     S
C520   C522    1.417   .     A
C520   C1077   1.408   1_554 S
C521   C526    1.407   .     A
C522   C525    1.407   .     A
C523   H529    1.084   .     S
C523   C1083   1.391   .     S
C524   H530    1.084   .     S
C524   C1084   1.391   1_554 S
C525   H531    1.081   .     S
C525   C1081   1.391   1_554 S
C526   H532    1.081   .     S
C526   C1082   1.391   .     S
C533   H537    1.083   .     S
C533   C542    1.401   .     A
C534   H538    1.083   .     S
C534   C541    1.401   .     A
C534   C412    1.383   1_655 S
C535   C541    1.401   .     A
C535   H539    1.083   .     S
C535   C409    1.383   1_655 S
C536   C542    1.401   .     A
C536   H540    1.083   .     S
C543   N552    1.367   .     A
C543   H547    1.082   .     S
C544   N551    1.367   .     A
C544   H548    1.082   .     S
C544   C173    1.416   1_565 S
C545   N552    1.367   .     A
C545   H549    1.081   .     S
C546   N551    1.367   .     A
C546   H550    1.081   .     S
C546   C171    1.416   1_565 S
N553   O554    1.301   .     A
N553   O555    1.301   .     A
N556   O557    1.301   .     A
N556   O558    1.301   .     A
O559   C563    1.290   .     A
O559   Cu571   1.965   .     S
O560   Cu572   1.965   .     S
O560   C564    1.290   .     A
O561   Cu571   1.965   .     S
O561   C564    1.291   .     A
O562   Cu572   1.965   .     S
O562   C563    1.291   .     A
C563   C604    1.450   .     S
C564   C603    1.450   .     S
O565   C569    1.292   .     A
O565   Cu571   1.969   .     S
O566   C570    1.292   .     A
O566   Cu572   1.969   .     S
O567   C570    1.293   .     A
O567   Cu571   1.967   .     S
O568   C569    1.293   .     A
O568   Cu572   1.967   .     S
C569   C576    1.459   .     S
C570   C575    1.459   .     S
Cu571  N613    2.011   .     S
Cu571  Cu572   2.677   .     S
Cu572  N614    2.011   .     S
C573   N615    1.436   .     S
C573   C583    1.408   .     A
C573   C575    1.413   .     A
C574   C576    1.413   .     A
C574   N618    1.436   .     S
C574   C584    1.409   .     A
C575   C577    1.398   .     A
C576   C578    1.398   .     A
C577   H589    1.085   .     S
C577   C579    1.390   .     A
C578   H590    1.085   .     S
C578   C580    1.389   .     A
C579   C585    1.398   .     A
C579   C581    1.409   .     A
C580   C586    1.398   .     A
C580   C582    1.409   .     A
C581   C583    1.417   .     A
C581   C24     1.408   1_556 S
C582   C584    1.417   .     A
C583   C588    1.407   .     A
C584   C587    1.407   .     A
C585   H591    1.084   .     S
C585   C29     1.391   1_556 S
C586   H592    1.084   .     S
C587   H593    1.081   .     S
C588   H594    1.081   .     S
C588   C28     1.391   1_556 S
C595   H599    1.083   .     S
C595   C604    1.401   .     A
C595   C721    1.383   1_455 S
C596   H600    1.083   .     S
C596   C603    1.401   .     A
C596   C660    1.383   .     S
C597   C603    1.401   .     A
C597   H601    1.083   .     S
C597   C657    1.383   .     S
C598   C604    1.401   .     A
C598   H602    1.083   .     S
C598   C720    1.383   1_455 S
C605   N614    1.367   .     A
C605   H609    1.082   .     S
C605   C980    1.416   1_545 S
C606   N613    1.367   .     A
C606   H610    1.082   .     S
C606   C793    1.416   .     S
C607   N614    1.367   .     A
C607   H611    1.081   .     S
C607   C978    1.416   1_545 S
C608   N613    1.367   .     A
C608   H612    1.081   .     S
C608   C791    1.416   .     S
N615   O616    1.301   .     A
N615   O617    1.301   .     A
N618   O619    1.301   .     A
N618   O620    1.301   .     A
O621   C625    1.290   .     A
O621   Cu633   1.965   .     S
O622   Cu634   1.965   .     S
O622   C626    1.290   .     A
O623   Cu633   1.965   .     S
O623   C626    1.291   .     A
O624   Cu634   1.965   .     S
O624   C625    1.291   .     A
C625   C666    1.450   .     S
C626   C665    1.450   .     S
O627   C631    1.292   .     A
O627   Cu633   1.969   .     S
O628   C632    1.292   .     A
O628   Cu634   1.969   .     S
O629   C632    1.293   .     A
O629   Cu633   1.967   .     S
O630   C631    1.293   .     A
O630   Cu634   1.967   .     S
C631   C638    1.459   .     S
C632   C637    1.459   .     S
Cu633  N675    2.011   .     S
Cu633  Cu634   2.677   .     S
Cu634  N676    2.011   .     S
C635   N677    1.436   .     S
C635   C645    1.408   .     A
C635   C637    1.413   .     A
C636   C638    1.413   .     A
C636   N680    1.436   .     S
C636   C646    1.409   .     A
C637   C639    1.398   .     A
C638   C640    1.398   .     A
C639   H651    1.085   .     S
C639   C641    1.390   .     A
C640   H652    1.085   .     S
C640   C642    1.389   .     A
C641   C647    1.398   .     A
C641   C643    1.409   .     A
C642   C648    1.398   .     A
C642   C644    1.409   .     A
C643   C645    1.417   .     A
C643   C86     1.408   1_556 S
C644   C646    1.417   .     A
C645   C650    1.407   .     A
C646   C649    1.407   .     A
C647   H653    1.084   .     S
C647   C91     1.391   1_556 S
C648   H654    1.084   .     S
C649   H655    1.081   .     S
C650   H656    1.081   .     S
C650   C90     1.391   1_556 S
C657   H661    1.083   .     S
C657   C666    1.401   .     A
C658   H662    1.083   .     S
C658   C665    1.401   .     A
C658   C722    1.383   .     S
C659   C665    1.401   .     A
C659   H663    1.083   .     S
C659   C719    1.383   .     S
C660   C666    1.401   .     A
C660   H664    1.083   .     S
C667   N676    1.367   .     A
C667   H671    1.082   .     S
C667   C1042   1.416   1_545 S
C668   N675    1.367   .     A
C668   H672    1.082   .     S
C668   C855    1.416   .     S
C669   N676    1.367   .     A
C669   H673    1.081   .     S
C669   C1040   1.416   1_545 S
C670   N675    1.367   .     A
C670   H674    1.081   .     S
C670   C853    1.416   .     S
N677   O678    1.301   .     A
N677   O679    1.301   .     A
N680   O681    1.301   .     A
N680   O682    1.301   .     A
O683   C687    1.290   .     A
O683   Cu695   1.965   .     S
O684   Cu696   1.965   .     S
O684   C688    1.290   .     A
O685   Cu695   1.965   .     S
O685   C688    1.291   .     A
O686   Cu696   1.965   .     S
O686   C687    1.291   .     A
C687   C728    1.450   .     S
C688   C727    1.450   .     S
O689   C693    1.292   .     A
O689   Cu695   1.969   .     S
O690   C694    1.292   .     A
O690   Cu696   1.969   .     S
O691   C694    1.293   .     A
O691   Cu695   1.967   .     S
O692   C693    1.293   .     A
O692   Cu696   1.967   .     S
C693   C700    1.459   .     S
C694   C699    1.459   .     S
Cu695  N737    2.011   .     S
Cu695  Cu696   2.677   .     S
Cu696  N738    2.011   .     S
C697   N739    1.436   .     S
C697   C707    1.408   .     A
C697   C699    1.413   .     A
C698   C700    1.413   .     A
C698   N742    1.436   .     S
C698   C708    1.409   .     A
C699   C701    1.398   .     A
C700   C702    1.398   .     A
C701   H713    1.085   .     S
C701   C703    1.390   .     A
C702   H714    1.085   .     S
C702   C704    1.389   .     A
C703   C709    1.398   .     A
C703   C705    1.409   .     A
C704   C710    1.398   .     A
C704   C706    1.409   .     A
C705   C707    1.417   .     A
C705   C148    1.408   1_556 S
C706   C708    1.417   .     A
C707   C712    1.407   .     A
C708   C711    1.407   .     A
C709   H715    1.084   .     S
C709   C153    1.391   1_556 S
C710   H716    1.084   .     S
C711   H717    1.081   .     S
C712   H718    1.081   .     S
C712   C152    1.391   1_556 S
C719   H723    1.083   .     S
C719   C728    1.401   .     A
C720   H724    1.083   .     S
C720   C727    1.401   .     A
C720   C598    1.383   1_655 S
C721   C727    1.401   .     A
C721   H725    1.083   .     S
C721   C595    1.383   1_655 S
C722   C728    1.401   .     A
C722   H726    1.083   .     S
C729   N738    1.367   .     A
C729   H733    1.082   .     S
C729   C1104   1.416   1_545 S
C730   N737    1.367   .     A
C730   H734    1.082   .     S
C730   C917    1.416   .     S
C731   N738    1.367   .     A
C731   H735    1.081   .     S
C731   C1102   1.416   1_545 S
C732   N737    1.367   .     A
C732   H736    1.081   .     S
C732   C915    1.416   .     S
N739   O740    1.301   .     A
N739   O741    1.301   .     A
N742   O743    1.301   .     A
N742   O744    1.301   .     A
O745   C749    1.290   .     A
O745   Cu757   1.965   .     S
O746   Cu758   1.965   .     S
O746   C750    1.290   .     A
O747   Cu757   1.965   .     S
O747   C750    1.291   .     A
O748   Cu758   1.965   .     S
O748   C749    1.291   .     A
C749   C790    1.450   .     S
C750   C789    1.450   .     S
O751   C755    1.292   .     A
O751   Cu757   1.969   .     S
O752   C756    1.292   .     A
O752   Cu758   1.969   .     S
O753   C756    1.293   .     A
O753   Cu757   1.967   .     S
O754   C755    1.293   .     A
O754   Cu758   1.967   .     S
C755   C762    1.459   .     S
C756   C761    1.459   .     S
Cu757  N799    2.011   .     S
Cu757  Cu758   2.677   .     S
Cu758  N800    2.011   .     S
C759   N801    1.436   .     S
C759   C769    1.408   .     A
C759   C761    1.413   .     A
C760   C762    1.413   .     A
C760   N804    1.436   .     S
C760   C770    1.409   .     A
C761   C763    1.398   .     A
C762   C764    1.398   .     A
C763   H775    1.085   .     S
C763   C765    1.390   .     A
C764   H776    1.085   .     S
C764   C766    1.389   .     A
C765   C771    1.398   .     A
C765   C767    1.409   .     A
C766   C772    1.398   .     A
C766   C768    1.409   .     A
C767   C769    1.417   .     A
C767   C210    1.408   1_556 S
C768   C770    1.417   .     A
C769   C774    1.407   .     A
C770   C773    1.407   .     A
C771   H777    1.084   .     S
C771   C215    1.391   1_556 S
C772   H778    1.084   .     S
C773   H779    1.081   .     S
C774   H780    1.081   .     S
C774   C214    1.391   1_556 S
C781   H785    1.083   .     S
C781   C790    1.401   .     A
C781   C907    1.383   1_455 S
C782   H786    1.083   .     S
C782   C789    1.401   .     A
C782   C846    1.383   .     S
C783   C789    1.401   .     A
C783   H787    1.083   .     S
C783   C843    1.383   .     S
C784   C790    1.401   .     A
C784   H788    1.083   .     S
C784   C906    1.383   1_455 S
C791   N800    1.367   .     A
C791   H795    1.082   .     S
C792   N799    1.367   .     A
C792   H796    1.082   .     S
C792   C979    1.416   .     S
C793   N800    1.367   .     A
C793   H797    1.081   .     S
C794   N799    1.367   .     A
C794   H798    1.081   .     S
C794   C977    1.416   .     S
N801   O802    1.301   .     A
N801   O803    1.301   .     A
N804   O805    1.301   .     A
N804   O806    1.301   .     A
O807   C811    1.290   .     A
O807   Cu819   1.965   .     S
O808   Cu820   1.965   .     S
O808   C812    1.290   .     A
O809   Cu819   1.965   .     S
O809   C812    1.291   .     A
O810   Cu820   1.965   .     S
O810   C811    1.291   .     A
C811   C852    1.450   .     S
C812   C851    1.450   .     S
O813   C817    1.292   .     A
O813   Cu819   1.969   .     S
O814   C818    1.292   .     A
O814   Cu820   1.969   .     S
O815   C818    1.293   .     A
O815   Cu819   1.967   .     S
O816   C817    1.293   .     A
O816   Cu820   1.967   .     S
C817   C824    1.459   .     S
C818   C823    1.459   .     S
Cu819  N861    2.011   .     S
Cu819  Cu820   2.677   .     S
Cu820  N862    2.011   .     S
C821   N863    1.436   .     S
C821   C831    1.408   .     A
C821   C823    1.413   .     A
C822   C824    1.413   .     A
C822   N866    1.436   .     S
C822   C832    1.409   .     A
C823   C825    1.398   .     A
C824   C826    1.398   .     A
C825   H837    1.085   .     S
C825   C827    1.390   .     A
C826   H838    1.085   .     S
C826   C828    1.389   .     A
C827   C833    1.398   .     A
C827   C829    1.409   .     A
C828   C834    1.398   .     A
C828   C830    1.409   .     A
C829   C831    1.417   .     A
C829   C272    1.408   1_556 S
C830   C832    1.417   .     A
C831   C836    1.407   .     A
C832   C835    1.407   .     A
C833   H839    1.084   .     S
C833   C277    1.391   1_556 S
C834   H840    1.084   .     S
C835   H841    1.081   .     S
C836   H842    1.081   .     S
C836   C276    1.391   1_556 S
C843   H847    1.083   .     S
C843   C852    1.401   .     A
C844   H848    1.083   .     S
C844   C851    1.401   .     A
C844   C908    1.383   .     S
C845   C851    1.401   .     A
C845   H849    1.083   .     S
C845   C905    1.383   .     S
C846   C852    1.401   .     A
C846   H850    1.083   .     S
C853   N862    1.367   .     A
C853   H857    1.082   .     S
C854   N861    1.367   .     A
C854   H858    1.082   .     S
C854   C1041   1.416   .     S
C855   N862    1.367   .     A
C855   H859    1.081   .     S
C856   N861    1.367   .     A
C856   H860    1.081   .     S
C856   C1039   1.416   .     S
N863   O864    1.301   .     A
N863   O865    1.301   .     A
N866   O867    1.301   .     A
N866   O868    1.301   .     A
O869   C873    1.290   .     A
O869   Cu881   1.965   .     S
O870   Cu882   1.965   .     S
O870   C874    1.290   .     A
O871   Cu881   1.965   .     S
O871   C874    1.291   .     A
O872   Cu882   1.965   .     S
O872   C873    1.291   .     A
C873   C914    1.450   .     S
C874   C913    1.450   .     S
O875   C879    1.292   .     A
O875   Cu881   1.969   .     S
O876   C880    1.292   .     A
O876   Cu882   1.969   .     S
O877   C880    1.293   .     A
O877   Cu881   1.967   .     S
O878   C879    1.293   .     A
O878   Cu882   1.967   .     S
C879   C886    1.459   .     S
C880   C885    1.459   .     S
Cu881  N923    2.011   .     S
Cu881  Cu882   2.677   .     S
Cu882  N924    2.011   .     S
C883   N925    1.436   .     S
C883   C893    1.408   .     A
C883   C885    1.413   .     A
C884   C886    1.413   .     A
C884   N928    1.436   .     S
C884   C894    1.409   .     A
C885   C887    1.398   .     A
C886   C888    1.398   .     A
C887   H899    1.085   .     S
C887   C889    1.390   .     A
C888   H900    1.085   .     S
C888   C890    1.389   .     A
C889   C895    1.398   .     A
C889   C891    1.409   .     A
C890   C896    1.398   .     A
C890   C892    1.409   .     A
C891   C893    1.417   .     A
C891   C334    1.408   1_556 S
C892   C894    1.417   .     A
C893   C898    1.407   .     A
C894   C897    1.407   .     A
C895   H901    1.084   .     S
C895   C339    1.391   1_556 S
C896   H902    1.084   .     S
C897   H903    1.081   .     S
C898   H904    1.081   .     S
C898   C338    1.391   1_556 S
C905   H909    1.083   .     S
C905   C914    1.401   .     A
C906   H910    1.083   .     S
C906   C913    1.401   .     A
C906   C784    1.383   1_655 S
C907   C913    1.401   .     A
C907   H911    1.083   .     S
C907   C781    1.383   1_655 S
C908   C914    1.401   .     A
C908   H912    1.083   .     S
C915   N924    1.367   .     A
C915   H919    1.082   .     S
C916   N923    1.367   .     A
C916   H920    1.082   .     S
C916   C1103   1.416   .     S
C917   N924    1.367   .     A
C917   H921    1.081   .     S
C918   N923    1.367   .     A
C918   H922    1.081   .     S
C918   C1101   1.416   .     S
N925   O926    1.301   .     A
N925   O927    1.301   .     A
N928   O929    1.301   .     A
N928   O930    1.301   .     A
O931   C935    1.290   .     A
O931   Cu943   1.965   .     S
O932   Cu944   1.965   .     S
O932   C936    1.290   .     A
O933   Cu943   1.965   .     S
O933   C936    1.291   .     A
O934   Cu944   1.965   .     S
O934   C935    1.291   .     A
C935   C976    1.450   .     S
C936   C975    1.450   .     S
O937   C941    1.292   .     A
O937   Cu943   1.969   .     S
O938   C942    1.292   .     A
O938   Cu944   1.969   .     S
O939   C942    1.293   .     A
O939   Cu943   1.967   .     S
O940   C941    1.293   .     A
O940   Cu944   1.967   .     S
C941   C948    1.459   .     S
C942   C947    1.459   .     S
Cu943  N985    2.011   .     S
Cu943  Cu944   2.677   .     S
Cu944  N986    2.011   .     S
C945   N987    1.436   .     S
C945   C955    1.408   .     A
C945   C947    1.413   .     A
C946   C948    1.413   .     A
C946   N990    1.436   .     S
C946   C956    1.409   .     A
C947   C949    1.398   .     A
C948   C950    1.398   .     A
C949   H961    1.085   .     S
C949   C951    1.390   .     A
C950   H962    1.085   .     S
C950   C952    1.389   .     A
C951   C957    1.398   .     A
C951   C953    1.409   .     A
C952   C958    1.398   .     A
C952   C954    1.409   .     A
C953   C955    1.417   .     A
C953   C396    1.408   1_556 S
C954   C956    1.417   .     A
C955   C960    1.407   .     A
C956   C959    1.407   .     A
C957   H963    1.084   .     S
C957   C401    1.391   1_556 S
C958   H964    1.084   .     S
C959   H965    1.081   .     S
C960   H966    1.081   .     S
C960   C400    1.391   1_556 S
C967   H971    1.083   .     S
C967   C976    1.401   .     A
C967   C1093   1.383   1_455 S
C968   H972    1.083   .     S
C968   C975    1.401   .     A
C968   C1032   1.383   .     S
C969   C975    1.401   .     A
C969   H973    1.083   .     S
C969   C1029   1.383   .     S
C970   C976    1.401   .     A
C970   H974    1.083   .     S
C970   C1092   1.383   1_455 S
C977   N986    1.367   .     A
C977   H981    1.082   .     S
C978   N985    1.367   .     A
C978   H982    1.082   .     S
C978   C607    1.416   1_565 S
C979   N986    1.367   .     A
C979   H983    1.081   .     S
C980   N985    1.367   .     A
C980   H984    1.081   .     S
C980   C605    1.416   1_565 S
N987   O988    1.301   .     A
N987   O989    1.301   .     A
N990   O991    1.301   .     A
N990   O992    1.301   .     A
O993   C997    1.290   .     A
O993   Cu1005  1.965   .     S
O994   Cu1006  1.965   .     S
O994   C998    1.290   .     A
O995   Cu1005  1.965   .     S
O995   C998    1.291   .     A
O996   Cu1006  1.965   .     S
O996   C997    1.291   .     A
C997   C1038   1.450   .     S
C998   C1037   1.450   .     S
O999   C1003   1.292   .     A
O999   Cu1005  1.969   .     S
O1000  C1004   1.292   .     A
O1000  Cu1006  1.969   .     S
O1001  C1004   1.293   .     A
O1001  Cu1005  1.967   .     S
O1002  C1003   1.293   .     A
O1002  Cu1006  1.967   .     S
C1003  C1010   1.459   .     S
C1004  C1009   1.459   .     S
Cu1005 N1047   2.011   .     S
Cu1005 Cu1006  2.677   .     S
Cu1006 N1048   2.011   .     S
C1007  N1049   1.436   .     S
C1007  C1017   1.408   .     A
C1007  C1009   1.413   .     A
C1008  C1010   1.413   .     A
C1008  N1052   1.436   .     S
C1008  C1018   1.409   .     A
C1009  C1011   1.398   .     A
C1010  C1012   1.398   .     A
C1011  H1023   1.085   .     S
C1011  C1013   1.390   .     A
C1012  H1024   1.085   .     S
C1012  C1014   1.389   .     A
C1013  C1019   1.398   .     A
C1013  C1015   1.409   .     A
C1014  C1020   1.398   .     A
C1014  C1016   1.409   .     A
C1015  C1017   1.417   .     A
C1015  C458    1.408   1_556 S
C1016  C1018   1.417   .     A
C1017  C1022   1.407   .     A
C1018  C1021   1.407   .     A
C1019  H1025   1.084   .     S
C1019  C463    1.391   1_556 S
C1020  H1026   1.084   .     S
C1021  H1027   1.081   .     S
C1022  H1028   1.081   .     S
C1022  C462    1.391   1_556 S
C1029  H1033   1.083   .     S
C1029  C1038   1.401   .     A
C1030  H1034   1.083   .     S
C1030  C1037   1.401   .     A
C1030  C1094   1.383   .     S
C1031  C1037   1.401   .     A
C1031  H1035   1.083   .     S
C1031  C1091   1.383   .     S
C1032  C1038   1.401   .     A
C1032  H1036   1.083   .     S
C1039  N1048   1.367   .     A
C1039  H1043   1.082   .     S
C1040  N1047   1.367   .     A
C1040  H1044   1.082   .     S
C1040  C669    1.416   1_565 S
C1041  N1048   1.367   .     A
C1041  H1045   1.081   .     S
C1042  N1047   1.367   .     A
C1042  H1046   1.081   .     S
C1042  C667    1.416   1_565 S
N1049  O1050   1.301   .     A
N1049  O1051   1.301   .     A
N1052  O1053   1.301   .     A
N1052  O1054   1.301   .     A
O1055  C1059   1.290   .     A
O1055  Cu1067  1.965   .     S
O1056  Cu1068  1.965   .     S
O1056  C1060   1.290   .     A
O1057  Cu1067  1.965   .     S
O1057  C1060   1.291   .     A
O1058  Cu1068  1.965   .     S
O1058  C1059   1.291   .     A
C1059  C1100   1.450   .     S
C1060  C1099   1.450   .     S
O1061  C1065   1.292   .     A
O1061  Cu1067  1.969   .     S
O1062  C1066   1.292   .     A
O1062  Cu1068  1.969   .     S
O1063  C1066   1.293   .     A
O1063  Cu1067  1.967   .     S
O1064  C1065   1.293   .     A
O1064  Cu1068  1.967   .     S
C1065  C1072   1.459   .     S
C1066  C1071   1.459   .     S
Cu1067 N1109   2.011   .     S
Cu1067 Cu1068  2.677   .     S
Cu1068 N1110   2.011   .     S
C1069  N1111   1.436   .     S
C1069  C1079   1.408   .     A
C1069  C1071   1.413   .     A
C1070  C1072   1.413   .     A
C1070  N1114   1.436   .     S
C1070  C1080   1.409   .     A
C1071  C1073   1.398   .     A
C1072  C1074   1.398   .     A
C1073  H1085   1.085   .     S
C1073  C1075   1.390   .     A
C1074  H1086   1.085   .     S
C1074  C1076   1.389   .     A
C1075  C1081   1.398   .     A
C1075  C1077   1.409   .     A
C1076  C1082   1.398   .     A
C1076  C1078   1.409   .     A
C1077  C1079   1.417   .     A
C1077  C520    1.408   1_556 S
C1078  C1080   1.417   .     A
C1079  C1084   1.407   .     A
C1080  C1083   1.407   .     A
C1081  H1087   1.084   .     S
C1081  C525    1.391   1_556 S
C1082  H1088   1.084   .     S
C1083  H1089   1.081   .     S
C1084  H1090   1.081   .     S
C1084  C524    1.391   1_556 S
C1091  H1095   1.083   .     S
C1091  C1100   1.401   .     A
C1092  H1096   1.083   .     S
C1092  C1099   1.401   .     A
C1092  C970    1.383   1_655 S
C1093  C1099   1.401   .     A
C1093  H1097   1.083   .     S
C1093  C967    1.383   1_655 S
C1094  C1100   1.401   .     A
C1094  H1098   1.083   .     S
C1101  N1110   1.367   .     A
C1101  H1105   1.082   .     S
C1102  N1109   1.367   .     A
C1102  H1106   1.082   .     S
C1102  C731    1.416   1_565 S
C1103  N1110   1.367   .     A
C1103  H1107   1.081   .     S
C1104  N1109   1.367   .     A
C1104  H1108   1.081   .     S
C1104  C729    1.416   1_565 S
N1111  O1112   1.301   .     A
N1111  O1113   1.301   .     A
N1114  O1115   1.301   .     A
N1114  O1116   1.301   .     A
