data_str_m2_o1_o18_pcu_sym.60
_audit_creation_date              2020-01-03
_audit_creation_method            'Materials Studio'
_symmetry_space_group_name_H-M    'P1'
_symmetry_Int_Tables_number       1
_symmetry_cell_setting            triclinic
loop_
_symmetry_equiv_pos_as_xyz
  x,y,z
_cell_length_a                    28.6775
_cell_length_b                    32.4482
_cell_length_c                    30.6164
_cell_angle_alpha                 88.6385
_cell_angle_beta                  75.0298
_cell_angle_gamma                 89.3020
loop_
_atom_site_label
_atom_site_type_symbol
_atom_site_fract_x
_atom_site_fract_y
_atom_site_fract_z
_atom_site_U_iso_or_equiv
_atom_site_adp_type
_atom_site_occupancy
C1     C     0.00041   0.08748   0.24890   0.00000  Uiso   1.00
C2     C     0.03331   0.02145   0.26734   0.00000  Uiso   1.00
C3     C     0.33244   0.29049   0.25313   0.00000  Uiso   1.00
C4     C     0.00066   0.04282   0.24803   0.00000  Uiso   1.00
C5     C     0.18313   0.14648   0.28319   0.00000  Uiso   1.00
C6     C     0.15038   0.18692   0.21690   0.00000  Uiso   1.00
C7     C     0.13320   0.14615   0.28384   0.00000  Uiso   1.00
C8     C     0.19991   0.18732   0.21680   0.00000  Uiso   1.00
C9     C     0.30624   0.16676   0.33632   0.00000  Uiso   1.00
C10    C     0.02718   0.16773   0.16370   0.00000  Uiso   1.00
C11    C     0.29148   0.16616   0.38611   0.00000  Uiso   1.00
C12    C     0.33284   0.24584   0.25149   0.00000  Uiso   1.00
C13    C     0.04282   0.17447   0.11439   0.00000  Uiso   1.00
C14    C     0.30812   0.14968   0.45842   0.00000  Uiso   1.00
C15    C     0.03196   0.20864   0.04621   0.00000  Uiso   1.00
C16    C     0.32396   0.15525   0.41144   0.00000  Uiso   1.00
C17    C     0.01369   0.19581   0.09125   0.00000  Uiso   1.00
C18    C     0.24338   0.17454   0.40824   0.00000  Uiso   1.00
C19    C     0.09065   0.16530   0.09194   0.00000  Uiso   1.00
C20    C     0.22674   0.17233   0.45567   0.00000  Uiso   1.00
C21    C     0.11108   0.17926   0.04732   0.00000  Uiso   1.00
C22    C     0.25937   0.15839   0.48082   0.00000  Uiso   1.00
C23    C     0.19464   0.16035   0.04965   0.00000  Uiso   1.00
C24    C     0.08057   0.19980   0.02379   0.00000  Uiso   1.00
C25    C     0.17810   0.18230   0.47849   0.00000  Uiso   1.00
C26    C     0.16096   0.17328   0.02554   0.00000  Uiso   1.00
C27    C     0.00510   0.09074   0.49221   0.00000  Uiso   1.00
C28    C     0.00689   0.27589   0.02576   0.00000  Uiso   1.00
C29    C     0.26634   0.04203   0.20808   0.00000  Uiso   1.00
C30    C     0.21640   0.04051   0.22791   0.00000  Uiso   1.00
C31    C     0.18441   0.06193   0.20786   0.00000  Uiso   1.00
C32    C     0.20204   0.08487   0.16788   0.00000  Uiso   1.00
C33    C     0.25167   0.08625   0.14776   0.00000  Uiso   1.00
C34    C     0.14650   0.20216   0.45605   0.00000  Uiso   1.00
C35    C     0.28378   0.06481   0.16764   0.00000  Uiso   1.00
C36    C     0.06671   0.29110   0.29328   0.00000  Uiso   1.00
C37    C     0.04947   0.26568   0.33180   0.00000  Uiso   1.00
C38    C     0.08187   0.24385   0.35099   0.00000  Uiso   1.00
C39    C     0.13156   0.24779   0.33240   0.00000  Uiso   1.00
C40    C     0.14897   0.27383   0.29490   0.00000  Uiso   1.00
C41    C     0.11673   0.29535   0.27525   0.00000  Uiso   1.00
C42    C     0.11463   0.10687   0.35741   0.00000  Uiso   1.00
C43    C     0.22307   0.24842   0.16875   0.00000  Uiso   1.00
C44    C     0.24285   0.15383   0.02781   0.00000  Uiso   1.00
C45    C     0.09911   0.21119   0.47838   0.00000  Uiso   1.00
C46    C     0.30036   0.02122   0.23074   0.00000  Uiso   1.00
C47    C     0.03262   0.31204   0.27070   0.00000  Uiso   1.00
C48    C     0.29975   0.31190   0.23402   0.00000  Uiso   1.00
Cu49   Cu    0.04689   0.16667   0.25000   0.00000  Uiso   1.00
Cu50   Cu    0.28645   0.16666   0.25000   0.00000  Uiso   1.00
H51    H     0.26723   0.14507   0.04819   0.00000  Uiso   1.00
H52    H     0.05848   0.03810   0.28128   0.00000  Uiso   1.00
H53    H     0.19634   0.13007   0.30866   0.00000  Uiso   1.00
H54    H     0.13847   0.20255   0.19011   0.00000  Uiso   1.00
H55    H     0.04308   0.14355   0.46823   0.00000  Uiso   1.00
H56    H     0.01574   0.07345   0.46019   0.00000  Uiso   1.00
H57    H     0.30130   0.08180   0.01104   0.00000  Uiso   1.00
H58    H     0.03002   0.08212   0.01335   0.00000  Uiso   1.00
H59    H     0.29921   0.22318   0.03449   0.00000  Uiso   1.00
H60    H     0.31757   0.29144   0.00579   0.00000  Uiso   1.00
H61    H     0.04501   0.28504   0.01100   0.00000  Uiso   1.00
H62    H     0.07677   0.22673   0.45943   0.00000  Uiso   1.00
H63    H     0.32834   0.28635   0.06126   0.00000  Uiso   1.00
H64    H     0.20244   0.02353   0.25937   0.00000  Uiso   1.00
H65    H     0.14600   0.06112   0.22357   0.00000  Uiso   1.00
H66    H     0.17727   0.10171   0.15263   0.00000  Uiso   1.00
H67    H     0.26533   0.10415   0.11695   0.00000  Uiso   1.00
H68    H     0.32220   0.06648   0.15201   0.00000  Uiso   1.00
H69    H     0.01103   0.26206   0.34624   0.00000  Uiso   1.00
H70    H     0.06844   0.22360   0.37999   0.00000  Uiso   1.00
H71    H     0.15666   0.23052   0.34678   0.00000  Uiso   1.00
H72    H     0.18749   0.27693   0.28081   0.00000  Uiso   1.00
H73    H     0.11136   0.14718   0.11029   0.00000  Uiso   1.00
H74    H     0.13065   0.31454   0.24543   0.00000  Uiso   1.00
H75    H     0.07674   0.10525   0.30837   0.00000  Uiso   1.00
H76    H     0.08304   0.09337   0.38236   0.00000  Uiso   1.00
H77    H     0.12989   0.13124   0.37444   0.00000  Uiso   1.00
H78    H     0.14133   0.08167   0.34623   0.00000  Uiso   1.00
H79    H     0.24001   0.18782   0.15198   0.00000  Uiso   1.00
H80    H     0.19575   0.24926   0.14878   0.00000  Uiso   1.00
H81    H     0.25657   0.26303   0.14802   0.00000  Uiso   1.00
H82    H     0.20951   0.26651   0.19981   0.00000  Uiso   1.00
H83    H     0.21903   0.18142   0.38750   0.00000  Uiso   1.00
H84    H     0.31094   0.20481   0.10863   0.00000  Uiso   1.00
H85    H     0.02791   0.14911   0.39458   0.00000  Uiso   1.00
H86    H     0.18527   0.15678   0.08597   0.00000  Uiso   1.00
H87    H     0.15792   0.21296   0.42149   0.00000  Uiso   1.00
H88    H     0.27475   0.29530   0.22000   0.00000  Uiso   1.00
N89    N     0.11736   0.16668   0.24999   0.00000  Uiso   1.00
N90    N     0.21597   0.16666   0.25001   0.00000  Uiso   1.00
N91    N     0.00798   0.13465   0.48262   0.00000  Uiso   1.00
N92    N     0.00164   0.23170   0.02427   0.00000  Uiso   1.00
N93    N     0.09948   0.12429   0.31918   0.00000  Uiso   1.00
N94    N     0.23355   0.20626   0.17988   0.00000  Uiso   1.00
O95    O     0.03958   0.10655   0.25000   0.00000  Uiso   1.00
O96    O     0.29375   0.22678   0.25000   0.00000  Uiso   1.00
O97    O     0.29372   0.10654   0.25000   0.00000  Uiso   1.00
O98    O     0.03961   0.22679   0.25000   0.00000  Uiso   1.00
O99    O     0.01852   0.16668   0.31492   0.00000  Uiso   1.00
O100   O     0.31481   0.16666   0.18508   0.00000  Uiso   1.00
O101   O     0.27267   0.16667   0.31492   0.00000  Uiso   1.00
O102   O     0.06067   0.16667   0.18508   0.00000  Uiso   1.00
C103   C     0.33375   0.08748   0.24890   0.00000  Uiso   1.00
C104   C     0.36664   0.02145   0.26734   0.00000  Uiso   1.00
C105   C     0.66577   0.29049   0.25313   0.00000  Uiso   1.00
C106   C     0.33399   0.04282   0.24803   0.00000  Uiso   1.00
C107   C     0.51647   0.14648   0.28319   0.00000  Uiso   1.00
C108   C     0.48372   0.18692   0.21690   0.00000  Uiso   1.00
C109   C     0.46654   0.14615   0.28384   0.00000  Uiso   1.00
C110   C     0.53324   0.18732   0.21680   0.00000  Uiso   1.00
C111   C     0.63958   0.16676   0.33632   0.00000  Uiso   1.00
C112   C     0.36051   0.16773   0.16370   0.00000  Uiso   1.00
C113   C     0.62481   0.16616   0.38611   0.00000  Uiso   1.00
C114   C     0.66617   0.24584   0.25149   0.00000  Uiso   1.00
C115   C     0.37615   0.17447   0.11439   0.00000  Uiso   1.00
C116   C     0.64145   0.14968   0.45842   0.00000  Uiso   1.00
C117   C     0.36529   0.20864   0.04621   0.00000  Uiso   1.00
C118   C     0.65729   0.15525   0.41144   0.00000  Uiso   1.00
C119   C     0.34702   0.19581   0.09125   0.00000  Uiso   1.00
C120   C     0.57671   0.17454   0.40824   0.00000  Uiso   1.00
C121   C     0.42398   0.16530   0.09194   0.00000  Uiso   1.00
C122   C     0.56008   0.17233   0.45567   0.00000  Uiso   1.00
C123   C     0.44441   0.17926   0.04732   0.00000  Uiso   1.00
C124   C     0.59271   0.15839   0.48082   0.00000  Uiso   1.00
C125   C     0.52797   0.16035   0.04965   0.00000  Uiso   1.00
C126   C     0.41390   0.19980   0.02379   0.00000  Uiso   1.00
C127   C     0.51144   0.18230   0.47849   0.00000  Uiso   1.00
C128   C     0.49430   0.17328   0.02554   0.00000  Uiso   1.00
C129   C     0.33844   0.09074   0.49221   0.00000  Uiso   1.00
C130   C     0.34023   0.27589   0.02576   0.00000  Uiso   1.00
C131   C     0.59967   0.04203   0.20808   0.00000  Uiso   1.00
C132   C     0.54974   0.04051   0.22791   0.00000  Uiso   1.00
C133   C     0.51775   0.06193   0.20786   0.00000  Uiso   1.00
C134   C     0.53538   0.08487   0.16788   0.00000  Uiso   1.00
C135   C     0.58501   0.08625   0.14776   0.00000  Uiso   1.00
C136   C     0.47983   0.20216   0.45605   0.00000  Uiso   1.00
C137   C     0.61711   0.06481   0.16764   0.00000  Uiso   1.00
C138   C     0.40004   0.29110   0.29328   0.00000  Uiso   1.00
C139   C     0.38280   0.26568   0.33180   0.00000  Uiso   1.00
C140   C     0.41520   0.24385   0.35099   0.00000  Uiso   1.00
C141   C     0.46489   0.24779   0.33240   0.00000  Uiso   1.00
C142   C     0.48230   0.27383   0.29490   0.00000  Uiso   1.00
C143   C     0.45007   0.29535   0.27525   0.00000  Uiso   1.00
C144   C     0.44796   0.10687   0.35741   0.00000  Uiso   1.00
C145   C     0.55640   0.24842   0.16875   0.00000  Uiso   1.00
C146   C     0.57619   0.15383   0.02781   0.00000  Uiso   1.00
C147   C     0.43244   0.21119   0.47838   0.00000  Uiso   1.00
C148   C     0.63369   0.02122   0.23074   0.00000  Uiso   1.00
C149   C     0.36595   0.31204   0.27070   0.00000  Uiso   1.00
C150   C     0.63309   0.31190   0.23402   0.00000  Uiso   1.00
Cu151  Cu    0.38022   0.16667   0.25000   0.00000  Uiso   1.00
Cu152  Cu    0.61978   0.16666   0.25000   0.00000  Uiso   1.00
H153   H     0.60056   0.14507   0.04819   0.00000  Uiso   1.00
H154   H     0.39182   0.03810   0.28128   0.00000  Uiso   1.00
H155   H     0.52967   0.13007   0.30866   0.00000  Uiso   1.00
H156   H     0.47180   0.20255   0.19011   0.00000  Uiso   1.00
H157   H     0.37641   0.14355   0.46823   0.00000  Uiso   1.00
H158   H     0.34908   0.07345   0.46019   0.00000  Uiso   1.00
H159   H     0.63464   0.08180   0.01104   0.00000  Uiso   1.00
H160   H     0.36335   0.08212   0.01335   0.00000  Uiso   1.00
H161   H     0.63254   0.22318   0.03449   0.00000  Uiso   1.00
H162   H     0.65090   0.29144   0.00579   0.00000  Uiso   1.00
H163   H     0.37835   0.28504   0.01100   0.00000  Uiso   1.00
H164   H     0.41010   0.22673   0.45943   0.00000  Uiso   1.00
H165   H     0.66167   0.28635   0.06126   0.00000  Uiso   1.00
H166   H     0.53578   0.02353   0.25937   0.00000  Uiso   1.00
H167   H     0.47933   0.06112   0.22357   0.00000  Uiso   1.00
H168   H     0.51060   0.10171   0.15263   0.00000  Uiso   1.00
H169   H     0.59867   0.10415   0.11695   0.00000  Uiso   1.00
H170   H     0.65553   0.06648   0.15201   0.00000  Uiso   1.00
H171   H     0.34436   0.26206   0.34624   0.00000  Uiso   1.00
H172   H     0.40177   0.22360   0.37999   0.00000  Uiso   1.00
H173   H     0.48999   0.23052   0.34678   0.00000  Uiso   1.00
H174   H     0.52082   0.27693   0.28081   0.00000  Uiso   1.00
H175   H     0.44470   0.14718   0.11029   0.00000  Uiso   1.00
H176   H     0.46399   0.31454   0.24543   0.00000  Uiso   1.00
H177   H     0.41008   0.10525   0.30837   0.00000  Uiso   1.00
H178   H     0.41638   0.09337   0.38236   0.00000  Uiso   1.00
H179   H     0.46323   0.13124   0.37444   0.00000  Uiso   1.00
H180   H     0.47466   0.08167   0.34623   0.00000  Uiso   1.00
H181   H     0.57335   0.18782   0.15198   0.00000  Uiso   1.00
H182   H     0.52908   0.24926   0.14878   0.00000  Uiso   1.00
H183   H     0.58991   0.26303   0.14802   0.00000  Uiso   1.00
H184   H     0.54285   0.26651   0.19981   0.00000  Uiso   1.00
H185   H     0.55236   0.18142   0.38750   0.00000  Uiso   1.00
H186   H     0.64427   0.20481   0.10863   0.00000  Uiso   1.00
H187   H     0.36124   0.14911   0.39458   0.00000  Uiso   1.00
H188   H     0.51860   0.15678   0.08597   0.00000  Uiso   1.00
H189   H     0.49125   0.21296   0.42149   0.00000  Uiso   1.00
H190   H     0.60809   0.29530   0.22000   0.00000  Uiso   1.00
N191   N     0.45069   0.16668   0.24999   0.00000  Uiso   1.00
N192   N     0.54931   0.16666   0.25001   0.00000  Uiso   1.00
N193   N     0.34131   0.13465   0.48262   0.00000  Uiso   1.00
N194   N     0.33497   0.23170   0.02427   0.00000  Uiso   1.00
N195   N     0.43282   0.12429   0.31918   0.00000  Uiso   1.00
N196   N     0.56688   0.20626   0.17988   0.00000  Uiso   1.00
O197   O     0.37291   0.10655   0.25000   0.00000  Uiso   1.00
O198   O     0.62709   0.22678   0.25000   0.00000  Uiso   1.00
O199   O     0.62706   0.10654   0.25000   0.00000  Uiso   1.00
O200   O     0.37294   0.22679   0.25000   0.00000  Uiso   1.00
O201   O     0.35186   0.16668   0.31492   0.00000  Uiso   1.00
O202   O     0.64814   0.16666   0.18508   0.00000  Uiso   1.00
O203   O     0.60600   0.16667   0.31492   0.00000  Uiso   1.00
O204   O     0.39400   0.16667   0.18508   0.00000  Uiso   1.00
C205   C     0.66708   0.08748   0.24890   0.00000  Uiso   1.00
C206   C     0.69998   0.02145   0.26734   0.00000  Uiso   1.00
C207   C     0.99911   0.29049   0.25313   0.00000  Uiso   1.00
C208   C     0.66732   0.04282   0.24803   0.00000  Uiso   1.00
C209   C     0.84980   0.14648   0.28319   0.00000  Uiso   1.00
C210   C     0.81705   0.18692   0.21690   0.00000  Uiso   1.00
C211   C     0.79987   0.14615   0.28384   0.00000  Uiso   1.00
C212   C     0.86658   0.18732   0.21680   0.00000  Uiso   1.00
C213   C     0.97291   0.16676   0.33632   0.00000  Uiso   1.00
C214   C     0.69385   0.16773   0.16370   0.00000  Uiso   1.00
C215   C     0.95814   0.16616   0.38611   0.00000  Uiso   1.00
C216   C     0.99951   0.24584   0.25149   0.00000  Uiso   1.00
C217   C     0.70948   0.17447   0.11439   0.00000  Uiso   1.00
C218   C     0.97478   0.14968   0.45842   0.00000  Uiso   1.00
C219   C     0.69862   0.20864   0.04621   0.00000  Uiso   1.00
C220   C     0.99063   0.15525   0.41144   0.00000  Uiso   1.00
C221   C     0.68035   0.19581   0.09125   0.00000  Uiso   1.00
C222   C     0.91004   0.17454   0.40824   0.00000  Uiso   1.00
C223   C     0.75731   0.16530   0.09194   0.00000  Uiso   1.00
C224   C     0.89341   0.17233   0.45567   0.00000  Uiso   1.00
C225   C     0.77774   0.17926   0.04732   0.00000  Uiso   1.00
C226   C     0.92604   0.15839   0.48082   0.00000  Uiso   1.00
C227   C     0.86130   0.16035   0.04965   0.00000  Uiso   1.00
C228   C     0.74723   0.19980   0.02379   0.00000  Uiso   1.00
C229   C     0.84477   0.18230   0.47849   0.00000  Uiso   1.00
C230   C     0.82763   0.17328   0.02554   0.00000  Uiso   1.00
C231   C     0.67177   0.09074   0.49221   0.00000  Uiso   1.00
C232   C     0.67356   0.27589   0.02576   0.00000  Uiso   1.00
C233   C     0.93301   0.04203   0.20808   0.00000  Uiso   1.00
C234   C     0.88307   0.04051   0.22791   0.00000  Uiso   1.00
C235   C     0.85108   0.06193   0.20786   0.00000  Uiso   1.00
C236   C     0.86871   0.08487   0.16788   0.00000  Uiso   1.00
C237   C     0.91834   0.08625   0.14776   0.00000  Uiso   1.00
C238   C     0.81316   0.20216   0.45605   0.00000  Uiso   1.00
C239   C     0.95045   0.06481   0.16764   0.00000  Uiso   1.00
C240   C     0.73337   0.29110   0.29328   0.00000  Uiso   1.00
C241   C     0.71613   0.26568   0.33180   0.00000  Uiso   1.00
C242   C     0.74853   0.24385   0.35099   0.00000  Uiso   1.00
C243   C     0.79822   0.24779   0.33240   0.00000  Uiso   1.00
C244   C     0.81564   0.27383   0.29490   0.00000  Uiso   1.00
C245   C     0.78340   0.29535   0.27525   0.00000  Uiso   1.00
C246   C     0.78129   0.10687   0.35741   0.00000  Uiso   1.00
C247   C     0.88974   0.24842   0.16875   0.00000  Uiso   1.00
C248   C     0.90952   0.15383   0.02781   0.00000  Uiso   1.00
C249   C     0.76578   0.21119   0.47838   0.00000  Uiso   1.00
C250   C     0.96702   0.02122   0.23074   0.00000  Uiso   1.00
C251   C     0.69928   0.31204   0.27070   0.00000  Uiso   1.00
C252   C     0.96642   0.31190   0.23402   0.00000  Uiso   1.00
Cu253  Cu    0.71355   0.16667   0.25000   0.00000  Uiso   1.00
Cu254  Cu    0.95311   0.16666   0.25000   0.00000  Uiso   1.00
H255   H     0.93390   0.14507   0.04819   0.00000  Uiso   1.00
H256   H     0.72515   0.03810   0.28128   0.00000  Uiso   1.00
H257   H     0.86301   0.13007   0.30866   0.00000  Uiso   1.00
H258   H     0.80513   0.20255   0.19011   0.00000  Uiso   1.00
H259   H     0.70975   0.14355   0.46823   0.00000  Uiso   1.00
H260   H     0.68241   0.07345   0.46019   0.00000  Uiso   1.00
H261   H     0.96797   0.08180   0.01104   0.00000  Uiso   1.00
H262   H     0.69668   0.08212   0.01335   0.00000  Uiso   1.00
H263   H     0.96587   0.22318   0.03449   0.00000  Uiso   1.00
H264   H     0.98423   0.29144   0.00579   0.00000  Uiso   1.00
H265   H     0.71168   0.28504   0.01100   0.00000  Uiso   1.00
H266   H     0.74343   0.22673   0.45943   0.00000  Uiso   1.00
H267   H     0.99500   0.28635   0.06126   0.00000  Uiso   1.00
H268   H     0.86911   0.02353   0.25937   0.00000  Uiso   1.00
H269   H     0.81267   0.06112   0.22357   0.00000  Uiso   1.00
H270   H     0.84393   0.10171   0.15263   0.00000  Uiso   1.00
H271   H     0.93200   0.10415   0.11695   0.00000  Uiso   1.00
H272   H     0.98886   0.06648   0.15201   0.00000  Uiso   1.00
H273   H     0.67769   0.26206   0.34624   0.00000  Uiso   1.00
H274   H     0.73511   0.22360   0.37999   0.00000  Uiso   1.00
H275   H     0.82333   0.23052   0.34678   0.00000  Uiso   1.00
H276   H     0.85415   0.27693   0.28081   0.00000  Uiso   1.00
H277   H     0.77803   0.14718   0.11029   0.00000  Uiso   1.00
H278   H     0.79732   0.31454   0.24543   0.00000  Uiso   1.00
H279   H     0.74341   0.10525   0.30837   0.00000  Uiso   1.00
H280   H     0.74971   0.09337   0.38236   0.00000  Uiso   1.00
H281   H     0.79656   0.13124   0.37444   0.00000  Uiso   1.00
H282   H     0.80799   0.08167   0.34623   0.00000  Uiso   1.00
H283   H     0.90668   0.18782   0.15198   0.00000  Uiso   1.00
H284   H     0.86242   0.24926   0.14878   0.00000  Uiso   1.00
H285   H     0.92324   0.26303   0.14802   0.00000  Uiso   1.00
H286   H     0.87618   0.26651   0.19981   0.00000  Uiso   1.00
H287   H     0.88570   0.18142   0.38750   0.00000  Uiso   1.00
H288   H     0.97761   0.20481   0.10863   0.00000  Uiso   1.00
H289   H     0.69458   0.14911   0.39458   0.00000  Uiso   1.00
H290   H     0.85193   0.15678   0.08597   0.00000  Uiso   1.00
H291   H     0.82459   0.21296   0.42149   0.00000  Uiso   1.00
H292   H     0.94142   0.29530   0.22000   0.00000  Uiso   1.00
N293   N     0.78403   0.16668   0.24999   0.00000  Uiso   1.00
N294   N     0.88264   0.16666   0.25001   0.00000  Uiso   1.00
N295   N     0.67464   0.13465   0.48262   0.00000  Uiso   1.00
N296   N     0.66830   0.23170   0.02427   0.00000  Uiso   1.00
N297   N     0.76615   0.12429   0.31918   0.00000  Uiso   1.00
N298   N     0.90022   0.20626   0.17988   0.00000  Uiso   1.00
O299   O     0.70625   0.10655   0.25000   0.00000  Uiso   1.00
O300   O     0.96042   0.22678   0.25000   0.00000  Uiso   1.00
O301   O     0.96039   0.10654   0.25000   0.00000  Uiso   1.00
O302   O     0.70628   0.22679   0.25000   0.00000  Uiso   1.00
O303   O     0.68519   0.16668   0.31492   0.00000  Uiso   1.00
O304   O     0.98148   0.16666   0.18508   0.00000  Uiso   1.00
O305   O     0.93933   0.16667   0.31492   0.00000  Uiso   1.00
O306   O     0.72733   0.16667   0.18508   0.00000  Uiso   1.00
C307   C     0.00041   0.42081   0.24890   0.00000  Uiso   1.00
C308   C     0.03331   0.35478   0.26734   0.00000  Uiso   1.00
C309   C     0.33244   0.62382   0.25313   0.00000  Uiso   1.00
C310   C     0.00066   0.37615   0.24803   0.00000  Uiso   1.00
C311   C     0.18313   0.47981   0.28319   0.00000  Uiso   1.00
C312   C     0.15038   0.52025   0.21690   0.00000  Uiso   1.00
C313   C     0.13320   0.47949   0.28384   0.00000  Uiso   1.00
C314   C     0.19991   0.52066   0.21680   0.00000  Uiso   1.00
C315   C     0.30624   0.50010   0.33632   0.00000  Uiso   1.00
C316   C     0.02718   0.50107   0.16370   0.00000  Uiso   1.00
C317   C     0.29148   0.49949   0.38611   0.00000  Uiso   1.00
C318   C     0.33284   0.57917   0.25149   0.00000  Uiso   1.00
C319   C     0.04282   0.50780   0.11439   0.00000  Uiso   1.00
C320   C     0.30812   0.48302   0.45842   0.00000  Uiso   1.00
C321   C     0.03196   0.54197   0.04621   0.00000  Uiso   1.00
C322   C     0.32396   0.48858   0.41144   0.00000  Uiso   1.00
C323   C     0.01369   0.52914   0.09125   0.00000  Uiso   1.00
C324   C     0.24338   0.50788   0.40824   0.00000  Uiso   1.00
C325   C     0.09065   0.49864   0.09194   0.00000  Uiso   1.00
C326   C     0.22674   0.50566   0.45567   0.00000  Uiso   1.00
C327   C     0.11108   0.51259   0.04732   0.00000  Uiso   1.00
C328   C     0.25937   0.49172   0.48082   0.00000  Uiso   1.00
C329   C     0.19464   0.49368   0.04965   0.00000  Uiso   1.00
C330   C     0.08057   0.53313   0.02379   0.00000  Uiso   1.00
C331   C     0.17810   0.51563   0.47849   0.00000  Uiso   1.00
C332   C     0.16096   0.50662   0.02554   0.00000  Uiso   1.00
C333   C     0.00510   0.42407   0.49221   0.00000  Uiso   1.00
C334   C     0.00689   0.60922   0.02576   0.00000  Uiso   1.00
C335   C     0.26634   0.37536   0.20808   0.00000  Uiso   1.00
C336   C     0.21640   0.37384   0.22791   0.00000  Uiso   1.00
C337   C     0.18441   0.39526   0.20786   0.00000  Uiso   1.00
C338   C     0.20204   0.41820   0.16788   0.00000  Uiso   1.00
C339   C     0.25167   0.41958   0.14776   0.00000  Uiso   1.00
C340   C     0.14650   0.53549   0.45605   0.00000  Uiso   1.00
C341   C     0.28378   0.39815   0.16764   0.00000  Uiso   1.00
C342   C     0.06671   0.62444   0.29328   0.00000  Uiso   1.00
C343   C     0.04947   0.59901   0.33180   0.00000  Uiso   1.00
C344   C     0.08187   0.57718   0.35099   0.00000  Uiso   1.00
C345   C     0.13156   0.58112   0.33240   0.00000  Uiso   1.00
C346   C     0.14897   0.60717   0.29490   0.00000  Uiso   1.00
C347   C     0.11673   0.62868   0.27525   0.00000  Uiso   1.00
C348   C     0.11463   0.44020   0.35741   0.00000  Uiso   1.00
C349   C     0.22307   0.58175   0.16875   0.00000  Uiso   1.00
C350   C     0.24285   0.48716   0.02781   0.00000  Uiso   1.00
C351   C     0.09911   0.54452   0.47838   0.00000  Uiso   1.00
C352   C     0.30036   0.35455   0.23074   0.00000  Uiso   1.00
C353   C     0.03262   0.64538   0.27070   0.00000  Uiso   1.00
C354   C     0.29975   0.64523   0.23402   0.00000  Uiso   1.00
Cu355  Cu    0.04689   0.50001   0.25000   0.00000  Uiso   1.00
Cu356  Cu    0.28645   0.49999   0.25000   0.00000  Uiso   1.00
H357   H     0.26723   0.47841   0.04819   0.00000  Uiso   1.00
H358   H     0.05848   0.37144   0.28128   0.00000  Uiso   1.00
H359   H     0.19634   0.46341   0.30866   0.00000  Uiso   1.00
H360   H     0.13847   0.53588   0.19011   0.00000  Uiso   1.00
H361   H     0.04308   0.47688   0.46823   0.00000  Uiso   1.00
H362   H     0.01574   0.40679   0.46019   0.00000  Uiso   1.00
H363   H     0.30130   0.41513   0.01104   0.00000  Uiso   1.00
H364   H     0.03002   0.41545   0.01335   0.00000  Uiso   1.00
H365   H     0.29921   0.55651   0.03449   0.00000  Uiso   1.00
H366   H     0.31757   0.62477   0.00579   0.00000  Uiso   1.00
H367   H     0.04501   0.61838   0.01100   0.00000  Uiso   1.00
H368   H     0.07677   0.56006   0.45943   0.00000  Uiso   1.00
H369   H     0.32834   0.61968   0.06126   0.00000  Uiso   1.00
H370   H     0.20244   0.35687   0.25937   0.00000  Uiso   1.00
H371   H     0.14600   0.39445   0.22357   0.00000  Uiso   1.00
H372   H     0.17727   0.43504   0.15263   0.00000  Uiso   1.00
H373   H     0.26533   0.43749   0.11695   0.00000  Uiso   1.00
H374   H     0.32220   0.39982   0.15201   0.00000  Uiso   1.00
H375   H     0.01103   0.59539   0.34624   0.00000  Uiso   1.00
H376   H     0.06844   0.55693   0.37999   0.00000  Uiso   1.00
H377   H     0.15666   0.56386   0.34678   0.00000  Uiso   1.00
H378   H     0.18749   0.61027   0.28081   0.00000  Uiso   1.00
H379   H     0.11136   0.48052   0.11029   0.00000  Uiso   1.00
H380   H     0.13065   0.64788   0.24543   0.00000  Uiso   1.00
H381   H     0.07674   0.43858   0.30837   0.00000  Uiso   1.00
H382   H     0.08304   0.42670   0.38236   0.00000  Uiso   1.00
H383   H     0.12989   0.46458   0.37444   0.00000  Uiso   1.00
H384   H     0.14133   0.41500   0.34623   0.00000  Uiso   1.00
H385   H     0.24001   0.52115   0.15198   0.00000  Uiso   1.00
H386   H     0.19575   0.58260   0.14878   0.00000  Uiso   1.00
H387   H     0.25657   0.59636   0.14802   0.00000  Uiso   1.00
H388   H     0.20951   0.59984   0.19981   0.00000  Uiso   1.00
H389   H     0.21903   0.51476   0.38750   0.00000  Uiso   1.00
H390   H     0.31094   0.53814   0.10863   0.00000  Uiso   1.00
H391   H     0.02791   0.48245   0.39458   0.00000  Uiso   1.00
H392   H     0.18527   0.49012   0.08597   0.00000  Uiso   1.00
H393   H     0.15792   0.54629   0.42149   0.00000  Uiso   1.00
H394   H     0.27475   0.62864   0.22000   0.00000  Uiso   1.00
N395   N     0.11736   0.50001   0.24999   0.00000  Uiso   1.00
N396   N     0.21597   0.49999   0.25001   0.00000  Uiso   1.00
N397   N     0.00798   0.46798   0.48262   0.00000  Uiso   1.00
N398   N     0.00164   0.56503   0.02427   0.00000  Uiso   1.00
N399   N     0.09948   0.45762   0.31918   0.00000  Uiso   1.00
N400   N     0.23355   0.53959   0.17988   0.00000  Uiso   1.00
O401   O     0.03958   0.43989   0.25000   0.00000  Uiso   1.00
O402   O     0.29375   0.56011   0.25000   0.00000  Uiso   1.00
O403   O     0.29372   0.43988   0.25000   0.00000  Uiso   1.00
O404   O     0.03961   0.56012   0.25000   0.00000  Uiso   1.00
O405   O     0.01852   0.50001   0.31492   0.00000  Uiso   1.00
O406   O     0.31481   0.49999   0.18508   0.00000  Uiso   1.00
O407   O     0.27267   0.50000   0.31492   0.00000  Uiso   1.00
O408   O     0.06067   0.50000   0.18508   0.00000  Uiso   1.00
C409   C     0.33375   0.42081   0.24890   0.00000  Uiso   1.00
C410   C     0.36664   0.35478   0.26734   0.00000  Uiso   1.00
C411   C     0.66577   0.62382   0.25313   0.00000  Uiso   1.00
C412   C     0.33399   0.37615   0.24803   0.00000  Uiso   1.00
C413   C     0.51647   0.47981   0.28319   0.00000  Uiso   1.00
C414   C     0.48372   0.52025   0.21690   0.00000  Uiso   1.00
C415   C     0.46654   0.47949   0.28384   0.00000  Uiso   1.00
C416   C     0.53324   0.52066   0.21680   0.00000  Uiso   1.00
C417   C     0.63958   0.50010   0.33632   0.00000  Uiso   1.00
C418   C     0.36051   0.50107   0.16370   0.00000  Uiso   1.00
C419   C     0.62481   0.49949   0.38611   0.00000  Uiso   1.00
C420   C     0.66617   0.57917   0.25149   0.00000  Uiso   1.00
C421   C     0.37615   0.50780   0.11439   0.00000  Uiso   1.00
C422   C     0.64145   0.48302   0.45842   0.00000  Uiso   1.00
C423   C     0.36529   0.54197   0.04621   0.00000  Uiso   1.00
C424   C     0.65729   0.48858   0.41144   0.00000  Uiso   1.00
C425   C     0.34702   0.52914   0.09125   0.00000  Uiso   1.00
C426   C     0.57671   0.50788   0.40824   0.00000  Uiso   1.00
C427   C     0.42398   0.49864   0.09194   0.00000  Uiso   1.00
C428   C     0.56008   0.50566   0.45567   0.00000  Uiso   1.00
C429   C     0.44441   0.51259   0.04732   0.00000  Uiso   1.00
C430   C     0.59271   0.49172   0.48082   0.00000  Uiso   1.00
C431   C     0.52797   0.49368   0.04965   0.00000  Uiso   1.00
C432   C     0.41390   0.53313   0.02379   0.00000  Uiso   1.00
C433   C     0.51144   0.51563   0.47849   0.00000  Uiso   1.00
C434   C     0.49430   0.50662   0.02554   0.00000  Uiso   1.00
C435   C     0.33844   0.42407   0.49221   0.00000  Uiso   1.00
C436   C     0.34023   0.60922   0.02576   0.00000  Uiso   1.00
C437   C     0.59967   0.37536   0.20808   0.00000  Uiso   1.00
C438   C     0.54974   0.37384   0.22791   0.00000  Uiso   1.00
C439   C     0.51775   0.39526   0.20786   0.00000  Uiso   1.00
C440   C     0.53538   0.41820   0.16788   0.00000  Uiso   1.00
C441   C     0.58501   0.41958   0.14776   0.00000  Uiso   1.00
C442   C     0.47983   0.53549   0.45605   0.00000  Uiso   1.00
C443   C     0.61711   0.39815   0.16764   0.00000  Uiso   1.00
C444   C     0.40004   0.62444   0.29328   0.00000  Uiso   1.00
C445   C     0.38280   0.59901   0.33180   0.00000  Uiso   1.00
C446   C     0.41520   0.57718   0.35099   0.00000  Uiso   1.00
C447   C     0.46489   0.58112   0.33240   0.00000  Uiso   1.00
C448   C     0.48230   0.60717   0.29490   0.00000  Uiso   1.00
C449   C     0.45007   0.62868   0.27525   0.00000  Uiso   1.00
C450   C     0.44796   0.44020   0.35741   0.00000  Uiso   1.00
C451   C     0.55640   0.58175   0.16875   0.00000  Uiso   1.00
C452   C     0.57619   0.48716   0.02781   0.00000  Uiso   1.00
C453   C     0.43244   0.54452   0.47838   0.00000  Uiso   1.00
C454   C     0.63369   0.35455   0.23074   0.00000  Uiso   1.00
C455   C     0.36595   0.64538   0.27070   0.00000  Uiso   1.00
C456   C     0.63309   0.64523   0.23402   0.00000  Uiso   1.00
Cu457  Cu    0.38022   0.50001   0.25000   0.00000  Uiso   1.00
Cu458  Cu    0.61978   0.49999   0.25000   0.00000  Uiso   1.00
H459   H     0.60056   0.47841   0.04819   0.00000  Uiso   1.00
H460   H     0.39182   0.37144   0.28128   0.00000  Uiso   1.00
H461   H     0.52967   0.46341   0.30866   0.00000  Uiso   1.00
H462   H     0.47180   0.53588   0.19011   0.00000  Uiso   1.00
H463   H     0.37641   0.47688   0.46823   0.00000  Uiso   1.00
H464   H     0.34908   0.40679   0.46019   0.00000  Uiso   1.00
H465   H     0.63464   0.41513   0.01104   0.00000  Uiso   1.00
H466   H     0.36335   0.41545   0.01335   0.00000  Uiso   1.00
H467   H     0.63254   0.55651   0.03449   0.00000  Uiso   1.00
H468   H     0.65090   0.62477   0.00579   0.00000  Uiso   1.00
H469   H     0.37835   0.61838   0.01100   0.00000  Uiso   1.00
H470   H     0.41010   0.56006   0.45943   0.00000  Uiso   1.00
H471   H     0.66167   0.61968   0.06126   0.00000  Uiso   1.00
H472   H     0.53578   0.35687   0.25937   0.00000  Uiso   1.00
H473   H     0.47933   0.39445   0.22357   0.00000  Uiso   1.00
H474   H     0.51060   0.43504   0.15263   0.00000  Uiso   1.00
H475   H     0.59867   0.43749   0.11695   0.00000  Uiso   1.00
H476   H     0.65553   0.39982   0.15201   0.00000  Uiso   1.00
H477   H     0.34436   0.59539   0.34624   0.00000  Uiso   1.00
H478   H     0.40177   0.55693   0.37999   0.00000  Uiso   1.00
H479   H     0.48999   0.56386   0.34678   0.00000  Uiso   1.00
H480   H     0.52082   0.61027   0.28081   0.00000  Uiso   1.00
H481   H     0.44470   0.48052   0.11029   0.00000  Uiso   1.00
H482   H     0.46399   0.64788   0.24543   0.00000  Uiso   1.00
H483   H     0.41008   0.43858   0.30837   0.00000  Uiso   1.00
H484   H     0.41638   0.42670   0.38236   0.00000  Uiso   1.00
H485   H     0.46323   0.46458   0.37444   0.00000  Uiso   1.00
H486   H     0.47466   0.41500   0.34623   0.00000  Uiso   1.00
H487   H     0.57335   0.52115   0.15198   0.00000  Uiso   1.00
H488   H     0.52908   0.58260   0.14878   0.00000  Uiso   1.00
H489   H     0.58991   0.59636   0.14802   0.00000  Uiso   1.00
H490   H     0.54285   0.59984   0.19981   0.00000  Uiso   1.00
H491   H     0.55236   0.51476   0.38750   0.00000  Uiso   1.00
H492   H     0.64427   0.53814   0.10863   0.00000  Uiso   1.00
H493   H     0.36124   0.48245   0.39458   0.00000  Uiso   1.00
H494   H     0.51860   0.49012   0.08597   0.00000  Uiso   1.00
H495   H     0.49125   0.54629   0.42149   0.00000  Uiso   1.00
H496   H     0.60809   0.62864   0.22000   0.00000  Uiso   1.00
N497   N     0.45069   0.50001   0.24999   0.00000  Uiso   1.00
N498   N     0.54931   0.49999   0.25001   0.00000  Uiso   1.00
N499   N     0.34131   0.46798   0.48262   0.00000  Uiso   1.00
N500   N     0.33497   0.56503   0.02427   0.00000  Uiso   1.00
N501   N     0.43282   0.45762   0.31918   0.00000  Uiso   1.00
N502   N     0.56688   0.53959   0.17988   0.00000  Uiso   1.00
O503   O     0.37291   0.43989   0.25000   0.00000  Uiso   1.00
O504   O     0.62709   0.56011   0.25000   0.00000  Uiso   1.00
O505   O     0.62706   0.43988   0.25000   0.00000  Uiso   1.00
O506   O     0.37294   0.56012   0.25000   0.00000  Uiso   1.00
O507   O     0.35186   0.50001   0.31492   0.00000  Uiso   1.00
O508   O     0.64814   0.49999   0.18508   0.00000  Uiso   1.00
O509   O     0.60600   0.50000   0.31492   0.00000  Uiso   1.00
O510   O     0.39400   0.50000   0.18508   0.00000  Uiso   1.00
C511   C     0.66708   0.42081   0.24890   0.00000  Uiso   1.00
C512   C     0.69998   0.35478   0.26734   0.00000  Uiso   1.00
C513   C     0.99911   0.62382   0.25313   0.00000  Uiso   1.00
C514   C     0.66732   0.37615   0.24803   0.00000  Uiso   1.00
C515   C     0.84980   0.47981   0.28319   0.00000  Uiso   1.00
C516   C     0.81705   0.52025   0.21690   0.00000  Uiso   1.00
C517   C     0.79987   0.47949   0.28384   0.00000  Uiso   1.00
C518   C     0.86658   0.52066   0.21680   0.00000  Uiso   1.00
C519   C     0.97291   0.50010   0.33632   0.00000  Uiso   1.00
C520   C     0.69385   0.50107   0.16370   0.00000  Uiso   1.00
C521   C     0.95814   0.49949   0.38611   0.00000  Uiso   1.00
C522   C     0.99951   0.57917   0.25149   0.00000  Uiso   1.00
C523   C     0.70948   0.50780   0.11439   0.00000  Uiso   1.00
C524   C     0.97478   0.48302   0.45842   0.00000  Uiso   1.00
C525   C     0.69862   0.54197   0.04621   0.00000  Uiso   1.00
C526   C     0.99063   0.48858   0.41144   0.00000  Uiso   1.00
C527   C     0.68035   0.52914   0.09125   0.00000  Uiso   1.00
C528   C     0.91004   0.50788   0.40824   0.00000  Uiso   1.00
C529   C     0.75731   0.49864   0.09194   0.00000  Uiso   1.00
C530   C     0.89341   0.50566   0.45567   0.00000  Uiso   1.00
C531   C     0.77774   0.51259   0.04732   0.00000  Uiso   1.00
C532   C     0.92604   0.49172   0.48082   0.00000  Uiso   1.00
C533   C     0.86130   0.49368   0.04965   0.00000  Uiso   1.00
C534   C     0.74723   0.53313   0.02379   0.00000  Uiso   1.00
C535   C     0.84477   0.51563   0.47849   0.00000  Uiso   1.00
C536   C     0.82763   0.50662   0.02554   0.00000  Uiso   1.00
C537   C     0.67177   0.42407   0.49221   0.00000  Uiso   1.00
C538   C     0.67356   0.60922   0.02576   0.00000  Uiso   1.00
C539   C     0.93301   0.37536   0.20808   0.00000  Uiso   1.00
C540   C     0.88307   0.37384   0.22791   0.00000  Uiso   1.00
C541   C     0.85108   0.39526   0.20786   0.00000  Uiso   1.00
C542   C     0.86871   0.41820   0.16788   0.00000  Uiso   1.00
C543   C     0.91834   0.41958   0.14776   0.00000  Uiso   1.00
C544   C     0.81316   0.53549   0.45605   0.00000  Uiso   1.00
C545   C     0.95045   0.39815   0.16764   0.00000  Uiso   1.00
C546   C     0.73337   0.62444   0.29328   0.00000  Uiso   1.00
C547   C     0.71613   0.59901   0.33180   0.00000  Uiso   1.00
C548   C     0.74853   0.57718   0.35099   0.00000  Uiso   1.00
C549   C     0.79822   0.58112   0.33240   0.00000  Uiso   1.00
C550   C     0.81564   0.60717   0.29490   0.00000  Uiso   1.00
C551   C     0.78340   0.62868   0.27525   0.00000  Uiso   1.00
C552   C     0.78129   0.44020   0.35741   0.00000  Uiso   1.00
C553   C     0.88974   0.58175   0.16875   0.00000  Uiso   1.00
C554   C     0.90952   0.48716   0.02781   0.00000  Uiso   1.00
C555   C     0.76578   0.54452   0.47838   0.00000  Uiso   1.00
C556   C     0.96702   0.35455   0.23074   0.00000  Uiso   1.00
C557   C     0.69928   0.64538   0.27070   0.00000  Uiso   1.00
C558   C     0.96642   0.64523   0.23402   0.00000  Uiso   1.00
Cu559  Cu    0.71355   0.50001   0.25000   0.00000  Uiso   1.00
Cu560  Cu    0.95311   0.49999   0.25000   0.00000  Uiso   1.00
H561   H     0.93390   0.47841   0.04819   0.00000  Uiso   1.00
H562   H     0.72515   0.37144   0.28128   0.00000  Uiso   1.00
H563   H     0.86301   0.46341   0.30866   0.00000  Uiso   1.00
H564   H     0.80513   0.53588   0.19011   0.00000  Uiso   1.00
H565   H     0.70975   0.47688   0.46823   0.00000  Uiso   1.00
H566   H     0.68241   0.40679   0.46019   0.00000  Uiso   1.00
H567   H     0.96797   0.41513   0.01104   0.00000  Uiso   1.00
H568   H     0.69668   0.41545   0.01335   0.00000  Uiso   1.00
H569   H     0.96587   0.55651   0.03449   0.00000  Uiso   1.00
H570   H     0.98423   0.62477   0.00579   0.00000  Uiso   1.00
H571   H     0.71168   0.61838   0.01100   0.00000  Uiso   1.00
H572   H     0.74343   0.56006   0.45943   0.00000  Uiso   1.00
H573   H     0.99500   0.61968   0.06126   0.00000  Uiso   1.00
H574   H     0.86911   0.35687   0.25937   0.00000  Uiso   1.00
H575   H     0.81267   0.39445   0.22357   0.00000  Uiso   1.00
H576   H     0.84393   0.43504   0.15263   0.00000  Uiso   1.00
H577   H     0.93200   0.43749   0.11695   0.00000  Uiso   1.00
H578   H     0.98886   0.39982   0.15201   0.00000  Uiso   1.00
H579   H     0.67769   0.59539   0.34624   0.00000  Uiso   1.00
H580   H     0.73511   0.55693   0.37999   0.00000  Uiso   1.00
H581   H     0.82333   0.56386   0.34678   0.00000  Uiso   1.00
H582   H     0.85415   0.61027   0.28081   0.00000  Uiso   1.00
H583   H     0.77803   0.48052   0.11029   0.00000  Uiso   1.00
H584   H     0.79732   0.64788   0.24543   0.00000  Uiso   1.00
H585   H     0.74341   0.43858   0.30837   0.00000  Uiso   1.00
H586   H     0.74971   0.42670   0.38236   0.00000  Uiso   1.00
H587   H     0.79656   0.46458   0.37444   0.00000  Uiso   1.00
H588   H     0.80799   0.41500   0.34623   0.00000  Uiso   1.00
H589   H     0.90668   0.52115   0.15198   0.00000  Uiso   1.00
H590   H     0.86242   0.58260   0.14878   0.00000  Uiso   1.00
H591   H     0.92324   0.59636   0.14802   0.00000  Uiso   1.00
H592   H     0.87618   0.59984   0.19981   0.00000  Uiso   1.00
H593   H     0.88570   0.51476   0.38750   0.00000  Uiso   1.00
H594   H     0.97761   0.53814   0.10863   0.00000  Uiso   1.00
H595   H     0.69458   0.48245   0.39458   0.00000  Uiso   1.00
H596   H     0.85193   0.49012   0.08597   0.00000  Uiso   1.00
H597   H     0.82459   0.54629   0.42149   0.00000  Uiso   1.00
H598   H     0.94142   0.62864   0.22000   0.00000  Uiso   1.00
N599   N     0.78403   0.50001   0.24999   0.00000  Uiso   1.00
N600   N     0.88264   0.49999   0.25001   0.00000  Uiso   1.00
N601   N     0.67464   0.46798   0.48262   0.00000  Uiso   1.00
N602   N     0.66830   0.56503   0.02427   0.00000  Uiso   1.00
N603   N     0.76615   0.45762   0.31918   0.00000  Uiso   1.00
N604   N     0.90022   0.53959   0.17988   0.00000  Uiso   1.00
O605   O     0.70625   0.43989   0.25000   0.00000  Uiso   1.00
O606   O     0.96042   0.56011   0.25000   0.00000  Uiso   1.00
O607   O     0.96039   0.43988   0.25000   0.00000  Uiso   1.00
O608   O     0.70628   0.56012   0.25000   0.00000  Uiso   1.00
O609   O     0.68519   0.50001   0.31492   0.00000  Uiso   1.00
O610   O     0.98148   0.49999   0.18508   0.00000  Uiso   1.00
O611   O     0.93933   0.50000   0.31492   0.00000  Uiso   1.00
O612   O     0.72733   0.50000   0.18508   0.00000  Uiso   1.00
C613   C     0.00041   0.75414   0.24890   0.00000  Uiso   1.00
C614   C     0.03331   0.68812   0.26734   0.00000  Uiso   1.00
C615   C     0.33244   0.95715   0.25313   0.00000  Uiso   1.00
C616   C     0.00066   0.70948   0.24803   0.00000  Uiso   1.00
C617   C     0.18313   0.81314   0.28319   0.00000  Uiso   1.00
C618   C     0.15038   0.85359   0.21690   0.00000  Uiso   1.00
C619   C     0.13320   0.81282   0.28384   0.00000  Uiso   1.00
C620   C     0.19991   0.85399   0.21680   0.00000  Uiso   1.00
C621   C     0.30624   0.83343   0.33632   0.00000  Uiso   1.00
C622   C     0.02718   0.83440   0.16370   0.00000  Uiso   1.00
C623   C     0.29148   0.83283   0.38611   0.00000  Uiso   1.00
C624   C     0.33284   0.91250   0.25149   0.00000  Uiso   1.00
C625   C     0.04282   0.84114   0.11439   0.00000  Uiso   1.00
C626   C     0.30812   0.81635   0.45842   0.00000  Uiso   1.00
C627   C     0.03196   0.87531   0.04621   0.00000  Uiso   1.00
C628   C     0.32396   0.82192   0.41144   0.00000  Uiso   1.00
C629   C     0.01369   0.86247   0.09125   0.00000  Uiso   1.00
C630   C     0.24338   0.84121   0.40824   0.00000  Uiso   1.00
C631   C     0.09065   0.83197   0.09194   0.00000  Uiso   1.00
C632   C     0.22674   0.83900   0.45567   0.00000  Uiso   1.00
C633   C     0.11108   0.84593   0.04732   0.00000  Uiso   1.00
C634   C     0.25937   0.82506   0.48082   0.00000  Uiso   1.00
C635   C     0.19464   0.82702   0.04965   0.00000  Uiso   1.00
C636   C     0.08057   0.86647   0.02379   0.00000  Uiso   1.00
C637   C     0.17810   0.84897   0.47849   0.00000  Uiso   1.00
C638   C     0.16096   0.83995   0.02554   0.00000  Uiso   1.00
C639   C     0.00510   0.75740   0.49221   0.00000  Uiso   1.00
C640   C     0.00689   0.94256   0.02576   0.00000  Uiso   1.00
C641   C     0.26634   0.70869   0.20808   0.00000  Uiso   1.00
C642   C     0.21640   0.70717   0.22791   0.00000  Uiso   1.00
C643   C     0.18441   0.72860   0.20786   0.00000  Uiso   1.00
C644   C     0.20204   0.75153   0.16788   0.00000  Uiso   1.00
C645   C     0.25167   0.75291   0.14776   0.00000  Uiso   1.00
C646   C     0.14650   0.86883   0.45605   0.00000  Uiso   1.00
C647   C     0.28378   0.73148   0.16764   0.00000  Uiso   1.00
C648   C     0.06671   0.95777   0.29328   0.00000  Uiso   1.00
C649   C     0.04947   0.93234   0.33180   0.00000  Uiso   1.00
C650   C     0.08187   0.91051   0.35099   0.00000  Uiso   1.00
C651   C     0.13156   0.91446   0.33240   0.00000  Uiso   1.00
C652   C     0.14897   0.94050   0.29490   0.00000  Uiso   1.00
C653   C     0.11673   0.96201   0.27525   0.00000  Uiso   1.00
C654   C     0.11463   0.77353   0.35741   0.00000  Uiso   1.00
C655   C     0.22307   0.91508   0.16875   0.00000  Uiso   1.00
C656   C     0.24285   0.82049   0.02781   0.00000  Uiso   1.00
C657   C     0.09911   0.87786   0.47838   0.00000  Uiso   1.00
C658   C     0.30036   0.68788   0.23074   0.00000  Uiso   1.00
C659   C     0.03262   0.97871   0.27070   0.00000  Uiso   1.00
C660   C     0.29975   0.97857   0.23402   0.00000  Uiso   1.00
Cu661  Cu    0.04689   0.83334   0.25000   0.00000  Uiso   1.00
Cu662  Cu    0.28645   0.83333   0.25000   0.00000  Uiso   1.00
H663   H     0.26723   0.81174   0.04819   0.00000  Uiso   1.00
H664   H     0.05848   0.70477   0.28128   0.00000  Uiso   1.00
H665   H     0.19634   0.79674   0.30866   0.00000  Uiso   1.00
H666   H     0.13847   0.86921   0.19011   0.00000  Uiso   1.00
H667   H     0.04308   0.81022   0.46823   0.00000  Uiso   1.00
H668   H     0.01574   0.74012   0.46019   0.00000  Uiso   1.00
H669   H     0.30130   0.74846   0.01104   0.00000  Uiso   1.00
H670   H     0.03002   0.74879   0.01335   0.00000  Uiso   1.00
H671   H     0.29921   0.88984   0.03449   0.00000  Uiso   1.00
H672   H     0.31757   0.95810   0.00579   0.00000  Uiso   1.00
H673   H     0.04501   0.95171   0.01100   0.00000  Uiso   1.00
H674   H     0.07677   0.89339   0.45943   0.00000  Uiso   1.00
H675   H     0.32834   0.95301   0.06126   0.00000  Uiso   1.00
H676   H     0.20244   0.69020   0.25937   0.00000  Uiso   1.00
H677   H     0.14600   0.72778   0.22357   0.00000  Uiso   1.00
H678   H     0.17727   0.76838   0.15263   0.00000  Uiso   1.00
H679   H     0.26533   0.77082   0.11695   0.00000  Uiso   1.00
H680   H     0.32220   0.73315   0.15201   0.00000  Uiso   1.00
H681   H     0.01103   0.92872   0.34624   0.00000  Uiso   1.00
H682   H     0.06844   0.89026   0.37999   0.00000  Uiso   1.00
H683   H     0.15666   0.89719   0.34678   0.00000  Uiso   1.00
H684   H     0.18749   0.94360   0.28081   0.00000  Uiso   1.00
H685   H     0.11136   0.81385   0.11029   0.00000  Uiso   1.00
H686   H     0.13065   0.98121   0.24543   0.00000  Uiso   1.00
H687   H     0.07674   0.77191   0.30837   0.00000  Uiso   1.00
H688   H     0.08304   0.76003   0.38236   0.00000  Uiso   1.00
H689   H     0.12989   0.79791   0.37444   0.00000  Uiso   1.00
H690   H     0.14133   0.74834   0.34623   0.00000  Uiso   1.00
H691   H     0.24001   0.85449   0.15198   0.00000  Uiso   1.00
H692   H     0.19575   0.91593   0.14878   0.00000  Uiso   1.00
H693   H     0.25657   0.92970   0.14802   0.00000  Uiso   1.00
H694   H     0.20951   0.93318   0.19981   0.00000  Uiso   1.00
H695   H     0.21903   0.84809   0.38750   0.00000  Uiso   1.00
H696   H     0.31094   0.87147   0.10863   0.00000  Uiso   1.00
H697   H     0.02791   0.81578   0.39458   0.00000  Uiso   1.00
H698   H     0.18527   0.82345   0.08597   0.00000  Uiso   1.00
H699   H     0.15792   0.87963   0.42149   0.00000  Uiso   1.00
H700   H     0.27475   0.96197   0.22000   0.00000  Uiso   1.00
N701   N     0.11736   0.83334   0.24999   0.00000  Uiso   1.00
N702   N     0.21597   0.83332   0.25001   0.00000  Uiso   1.00
N703   N     0.00798   0.80131   0.48262   0.00000  Uiso   1.00
N704   N     0.00164   0.89836   0.02427   0.00000  Uiso   1.00
N705   N     0.09948   0.79095   0.31918   0.00000  Uiso   1.00
N706   N     0.23355   0.87292   0.17988   0.00000  Uiso   1.00
O707   O     0.03958   0.77322   0.25000   0.00000  Uiso   1.00
O708   O     0.29375   0.89345   0.25000   0.00000  Uiso   1.00
O709   O     0.29372   0.77321   0.25000   0.00000  Uiso   1.00
O710   O     0.03961   0.89346   0.25000   0.00000  Uiso   1.00
O711   O     0.01852   0.83334   0.31492   0.00000  Uiso   1.00
O712   O     0.31481   0.83332   0.18508   0.00000  Uiso   1.00
O713   O     0.27267   0.83333   0.31492   0.00000  Uiso   1.00
O714   O     0.06067   0.83333   0.18508   0.00000  Uiso   1.00
C715   C     0.33375   0.75414   0.24890   0.00000  Uiso   1.00
C716   C     0.36664   0.68812   0.26734   0.00000  Uiso   1.00
C717   C     0.66577   0.95715   0.25313   0.00000  Uiso   1.00
C718   C     0.33399   0.70948   0.24803   0.00000  Uiso   1.00
C719   C     0.51647   0.81314   0.28319   0.00000  Uiso   1.00
C720   C     0.48372   0.85359   0.21690   0.00000  Uiso   1.00
C721   C     0.46654   0.81282   0.28384   0.00000  Uiso   1.00
C722   C     0.53324   0.85399   0.21680   0.00000  Uiso   1.00
C723   C     0.63958   0.83343   0.33632   0.00000  Uiso   1.00
C724   C     0.36051   0.83440   0.16370   0.00000  Uiso   1.00
C725   C     0.62481   0.83283   0.38611   0.00000  Uiso   1.00
C726   C     0.66617   0.91250   0.25149   0.00000  Uiso   1.00
C727   C     0.37615   0.84114   0.11439   0.00000  Uiso   1.00
C728   C     0.64145   0.81635   0.45842   0.00000  Uiso   1.00
C729   C     0.36529   0.87531   0.04621   0.00000  Uiso   1.00
C730   C     0.65729   0.82192   0.41144   0.00000  Uiso   1.00
C731   C     0.34702   0.86247   0.09125   0.00000  Uiso   1.00
C732   C     0.57671   0.84121   0.40824   0.00000  Uiso   1.00
C733   C     0.42398   0.83197   0.09194   0.00000  Uiso   1.00
C734   C     0.56008   0.83900   0.45567   0.00000  Uiso   1.00
C735   C     0.44441   0.84593   0.04732   0.00000  Uiso   1.00
C736   C     0.59271   0.82506   0.48082   0.00000  Uiso   1.00
C737   C     0.52797   0.82702   0.04965   0.00000  Uiso   1.00
C738   C     0.41390   0.86647   0.02379   0.00000  Uiso   1.00
C739   C     0.51144   0.84897   0.47849   0.00000  Uiso   1.00
C740   C     0.49430   0.83995   0.02554   0.00000  Uiso   1.00
C741   C     0.33844   0.75740   0.49221   0.00000  Uiso   1.00
C742   C     0.34023   0.94256   0.02576   0.00000  Uiso   1.00
C743   C     0.59967   0.70869   0.20808   0.00000  Uiso   1.00
C744   C     0.54974   0.70717   0.22791   0.00000  Uiso   1.00
C745   C     0.51775   0.72860   0.20786   0.00000  Uiso   1.00
C746   C     0.53538   0.75153   0.16788   0.00000  Uiso   1.00
C747   C     0.58501   0.75291   0.14776   0.00000  Uiso   1.00
C748   C     0.47983   0.86883   0.45605   0.00000  Uiso   1.00
C749   C     0.61711   0.73148   0.16764   0.00000  Uiso   1.00
C750   C     0.40004   0.95777   0.29328   0.00000  Uiso   1.00
C751   C     0.38280   0.93234   0.33180   0.00000  Uiso   1.00
C752   C     0.41520   0.91051   0.35099   0.00000  Uiso   1.00
C753   C     0.46489   0.91446   0.33240   0.00000  Uiso   1.00
C754   C     0.48230   0.94050   0.29490   0.00000  Uiso   1.00
C755   C     0.45007   0.96201   0.27525   0.00000  Uiso   1.00
C756   C     0.44796   0.77353   0.35741   0.00000  Uiso   1.00
C757   C     0.55640   0.91508   0.16875   0.00000  Uiso   1.00
C758   C     0.57619   0.82049   0.02781   0.00000  Uiso   1.00
C759   C     0.43244   0.87786   0.47838   0.00000  Uiso   1.00
C760   C     0.63369   0.68788   0.23074   0.00000  Uiso   1.00
C761   C     0.36595   0.97871   0.27070   0.00000  Uiso   1.00
C762   C     0.63309   0.97857   0.23402   0.00000  Uiso   1.00
Cu763  Cu    0.38022   0.83334   0.25000   0.00000  Uiso   1.00
Cu764  Cu    0.61978   0.83333   0.25000   0.00000  Uiso   1.00
H765   H     0.60056   0.81174   0.04819   0.00000  Uiso   1.00
H766   H     0.39182   0.70477   0.28128   0.00000  Uiso   1.00
H767   H     0.52967   0.79674   0.30866   0.00000  Uiso   1.00
H768   H     0.47180   0.86921   0.19011   0.00000  Uiso   1.00
H769   H     0.37641   0.81022   0.46823   0.00000  Uiso   1.00
H770   H     0.34908   0.74012   0.46019   0.00000  Uiso   1.00
H771   H     0.63464   0.74846   0.01104   0.00000  Uiso   1.00
H772   H     0.36335   0.74879   0.01335   0.00000  Uiso   1.00
H773   H     0.63254   0.88984   0.03449   0.00000  Uiso   1.00
H774   H     0.65090   0.95810   0.00579   0.00000  Uiso   1.00
H775   H     0.37835   0.95171   0.01100   0.00000  Uiso   1.00
H776   H     0.41010   0.89339   0.45943   0.00000  Uiso   1.00
H777   H     0.66167   0.95301   0.06126   0.00000  Uiso   1.00
H778   H     0.53578   0.69020   0.25937   0.00000  Uiso   1.00
H779   H     0.47933   0.72778   0.22357   0.00000  Uiso   1.00
H780   H     0.51060   0.76838   0.15263   0.00000  Uiso   1.00
H781   H     0.59867   0.77082   0.11695   0.00000  Uiso   1.00
H782   H     0.65553   0.73315   0.15201   0.00000  Uiso   1.00
H783   H     0.34436   0.92872   0.34624   0.00000  Uiso   1.00
H784   H     0.40177   0.89026   0.37999   0.00000  Uiso   1.00
H785   H     0.48999   0.89719   0.34678   0.00000  Uiso   1.00
H786   H     0.52082   0.94360   0.28081   0.00000  Uiso   1.00
H787   H     0.44470   0.81385   0.11029   0.00000  Uiso   1.00
H788   H     0.46399   0.98121   0.24543   0.00000  Uiso   1.00
H789   H     0.41008   0.77191   0.30837   0.00000  Uiso   1.00
H790   H     0.41638   0.76003   0.38236   0.00000  Uiso   1.00
H791   H     0.46323   0.79791   0.37444   0.00000  Uiso   1.00
H792   H     0.47466   0.74834   0.34623   0.00000  Uiso   1.00
H793   H     0.57335   0.85449   0.15198   0.00000  Uiso   1.00
H794   H     0.52908   0.91593   0.14878   0.00000  Uiso   1.00
H795   H     0.58991   0.92970   0.14802   0.00000  Uiso   1.00
H796   H     0.54285   0.93318   0.19981   0.00000  Uiso   1.00
H797   H     0.55236   0.84809   0.38750   0.00000  Uiso   1.00
H798   H     0.64427   0.87147   0.10863   0.00000  Uiso   1.00
H799   H     0.36124   0.81578   0.39458   0.00000  Uiso   1.00
H800   H     0.51860   0.82345   0.08597   0.00000  Uiso   1.00
H801   H     0.49125   0.87963   0.42149   0.00000  Uiso   1.00
H802   H     0.60809   0.96197   0.22000   0.00000  Uiso   1.00
N803   N     0.45069   0.83334   0.24999   0.00000  Uiso   1.00
N804   N     0.54931   0.83332   0.25001   0.00000  Uiso   1.00
N805   N     0.34131   0.80131   0.48262   0.00000  Uiso   1.00
N806   N     0.33497   0.89836   0.02427   0.00000  Uiso   1.00
N807   N     0.43282   0.79095   0.31918   0.00000  Uiso   1.00
N808   N     0.56688   0.87292   0.17988   0.00000  Uiso   1.00
O809   O     0.37291   0.77322   0.25000   0.00000  Uiso   1.00
O810   O     0.62709   0.89345   0.25000   0.00000  Uiso   1.00
O811   O     0.62706   0.77321   0.25000   0.00000  Uiso   1.00
O812   O     0.37294   0.89346   0.25000   0.00000  Uiso   1.00
O813   O     0.35186   0.83334   0.31492   0.00000  Uiso   1.00
O814   O     0.64814   0.83332   0.18508   0.00000  Uiso   1.00
O815   O     0.60600   0.83333   0.31492   0.00000  Uiso   1.00
O816   O     0.39400   0.83333   0.18508   0.00000  Uiso   1.00
C817   C     0.66708   0.75414   0.24890   0.00000  Uiso   1.00
C818   C     0.69998   0.68812   0.26734   0.00000  Uiso   1.00
C819   C     0.99911   0.95715   0.25313   0.00000  Uiso   1.00
C820   C     0.66732   0.70948   0.24803   0.00000  Uiso   1.00
C821   C     0.84980   0.81314   0.28319   0.00000  Uiso   1.00
C822   C     0.81705   0.85359   0.21690   0.00000  Uiso   1.00
C823   C     0.79987   0.81282   0.28384   0.00000  Uiso   1.00
C824   C     0.86658   0.85399   0.21680   0.00000  Uiso   1.00
C825   C     0.97291   0.83343   0.33632   0.00000  Uiso   1.00
C826   C     0.69385   0.83440   0.16370   0.00000  Uiso   1.00
C827   C     0.95814   0.83283   0.38611   0.00000  Uiso   1.00
C828   C     0.99951   0.91250   0.25149   0.00000  Uiso   1.00
C829   C     0.70948   0.84114   0.11439   0.00000  Uiso   1.00
C830   C     0.97478   0.81635   0.45842   0.00000  Uiso   1.00
C831   C     0.69862   0.87531   0.04621   0.00000  Uiso   1.00
C832   C     0.99063   0.82192   0.41144   0.00000  Uiso   1.00
C833   C     0.68035   0.86247   0.09125   0.00000  Uiso   1.00
C834   C     0.91004   0.84121   0.40824   0.00000  Uiso   1.00
C835   C     0.75731   0.83197   0.09194   0.00000  Uiso   1.00
C836   C     0.89341   0.83900   0.45567   0.00000  Uiso   1.00
C837   C     0.77774   0.84593   0.04732   0.00000  Uiso   1.00
C838   C     0.92604   0.82506   0.48082   0.00000  Uiso   1.00
C839   C     0.86130   0.82702   0.04965   0.00000  Uiso   1.00
C840   C     0.74723   0.86647   0.02379   0.00000  Uiso   1.00
C841   C     0.84477   0.84897   0.47849   0.00000  Uiso   1.00
C842   C     0.82763   0.83995   0.02554   0.00000  Uiso   1.00
C843   C     0.67177   0.75740   0.49221   0.00000  Uiso   1.00
C844   C     0.67356   0.94256   0.02576   0.00000  Uiso   1.00
C845   C     0.93301   0.70869   0.20808   0.00000  Uiso   1.00
C846   C     0.88307   0.70717   0.22791   0.00000  Uiso   1.00
C847   C     0.85108   0.72860   0.20786   0.00000  Uiso   1.00
C848   C     0.86871   0.75153   0.16788   0.00000  Uiso   1.00
C849   C     0.91834   0.75291   0.14776   0.00000  Uiso   1.00
C850   C     0.81316   0.86883   0.45605   0.00000  Uiso   1.00
C851   C     0.95045   0.73148   0.16764   0.00000  Uiso   1.00
C852   C     0.73337   0.95777   0.29328   0.00000  Uiso   1.00
C853   C     0.71613   0.93234   0.33180   0.00000  Uiso   1.00
C854   C     0.74853   0.91051   0.35099   0.00000  Uiso   1.00
C855   C     0.79822   0.91446   0.33240   0.00000  Uiso   1.00
C856   C     0.81564   0.94050   0.29490   0.00000  Uiso   1.00
C857   C     0.78340   0.96201   0.27525   0.00000  Uiso   1.00
C858   C     0.78129   0.77353   0.35741   0.00000  Uiso   1.00
C859   C     0.88974   0.91508   0.16875   0.00000  Uiso   1.00
C860   C     0.90952   0.82049   0.02781   0.00000  Uiso   1.00
C861   C     0.76578   0.87786   0.47838   0.00000  Uiso   1.00
C862   C     0.96702   0.68788   0.23074   0.00000  Uiso   1.00
C863   C     0.69928   0.97871   0.27070   0.00000  Uiso   1.00
C864   C     0.96642   0.97857   0.23402   0.00000  Uiso   1.00
Cu865  Cu    0.71355   0.83334   0.25000   0.00000  Uiso   1.00
Cu866  Cu    0.95311   0.83333   0.25000   0.00000  Uiso   1.00
H867   H     0.93390   0.81174   0.04819   0.00000  Uiso   1.00
H868   H     0.72515   0.70477   0.28128   0.00000  Uiso   1.00
H869   H     0.86301   0.79674   0.30866   0.00000  Uiso   1.00
H870   H     0.80513   0.86921   0.19011   0.00000  Uiso   1.00
H871   H     0.70975   0.81022   0.46823   0.00000  Uiso   1.00
H872   H     0.68241   0.74012   0.46019   0.00000  Uiso   1.00
H873   H     0.96797   0.74846   0.01104   0.00000  Uiso   1.00
H874   H     0.69668   0.74879   0.01335   0.00000  Uiso   1.00
H875   H     0.96587   0.88984   0.03449   0.00000  Uiso   1.00
H876   H     0.98423   0.95810   0.00579   0.00000  Uiso   1.00
H877   H     0.71168   0.95171   0.01100   0.00000  Uiso   1.00
H878   H     0.74343   0.89339   0.45943   0.00000  Uiso   1.00
H879   H     0.99500   0.95301   0.06126   0.00000  Uiso   1.00
H880   H     0.86911   0.69020   0.25937   0.00000  Uiso   1.00
H881   H     0.81267   0.72778   0.22357   0.00000  Uiso   1.00
H882   H     0.84393   0.76838   0.15263   0.00000  Uiso   1.00
H883   H     0.93200   0.77082   0.11695   0.00000  Uiso   1.00
H884   H     0.98886   0.73315   0.15201   0.00000  Uiso   1.00
H885   H     0.67769   0.92872   0.34624   0.00000  Uiso   1.00
H886   H     0.73511   0.89026   0.37999   0.00000  Uiso   1.00
H887   H     0.82333   0.89719   0.34678   0.00000  Uiso   1.00
H888   H     0.85415   0.94360   0.28081   0.00000  Uiso   1.00
H889   H     0.77803   0.81385   0.11029   0.00000  Uiso   1.00
H890   H     0.79732   0.98121   0.24543   0.00000  Uiso   1.00
H891   H     0.74341   0.77191   0.30837   0.00000  Uiso   1.00
H892   H     0.74971   0.76003   0.38236   0.00000  Uiso   1.00
H893   H     0.79656   0.79791   0.37444   0.00000  Uiso   1.00
H894   H     0.80799   0.74834   0.34623   0.00000  Uiso   1.00
H895   H     0.90668   0.85449   0.15198   0.00000  Uiso   1.00
H896   H     0.86242   0.91593   0.14878   0.00000  Uiso   1.00
H897   H     0.92324   0.92970   0.14802   0.00000  Uiso   1.00
H898   H     0.87618   0.93318   0.19981   0.00000  Uiso   1.00
H899   H     0.88570   0.84809   0.38750   0.00000  Uiso   1.00
H900   H     0.97761   0.87147   0.10863   0.00000  Uiso   1.00
H901   H     0.69458   0.81578   0.39458   0.00000  Uiso   1.00
H902   H     0.85193   0.82345   0.08597   0.00000  Uiso   1.00
H903   H     0.82459   0.87963   0.42149   0.00000  Uiso   1.00
H904   H     0.94142   0.96197   0.22000   0.00000  Uiso   1.00
N905   N     0.78403   0.83334   0.24999   0.00000  Uiso   1.00
N906   N     0.88264   0.83332   0.25001   0.00000  Uiso   1.00
N907   N     0.67464   0.80131   0.48262   0.00000  Uiso   1.00
N908   N     0.66830   0.89836   0.02427   0.00000  Uiso   1.00
N909   N     0.76615   0.79095   0.31918   0.00000  Uiso   1.00
N910   N     0.90022   0.87292   0.17988   0.00000  Uiso   1.00
O911   O     0.70625   0.77322   0.25000   0.00000  Uiso   1.00
O912   O     0.96042   0.89345   0.25000   0.00000  Uiso   1.00
O913   O     0.96039   0.77321   0.25000   0.00000  Uiso   1.00
O914   O     0.70628   0.89346   0.25000   0.00000  Uiso   1.00
O915   O     0.68519   0.83334   0.31492   0.00000  Uiso   1.00
O916   O     0.98148   0.83332   0.18508   0.00000  Uiso   1.00
O917   O     0.93933   0.83333   0.31492   0.00000  Uiso   1.00
O918   O     0.72733   0.83333   0.18508   0.00000  Uiso   1.00
C919   C     0.00041   0.08748   0.74890   0.00000  Uiso   1.00
C920   C     0.03331   0.02145   0.76734   0.00000  Uiso   1.00
C921   C     0.33244   0.29049   0.75313   0.00000  Uiso   1.00
C922   C     0.00066   0.04282   0.74803   0.00000  Uiso   1.00
C923   C     0.18313   0.14648   0.78319   0.00000  Uiso   1.00
C924   C     0.15038   0.18692   0.71690   0.00000  Uiso   1.00
C925   C     0.13320   0.14615   0.78384   0.00000  Uiso   1.00
C926   C     0.19991   0.18732   0.71680   0.00000  Uiso   1.00
C927   C     0.30624   0.16676   0.83632   0.00000  Uiso   1.00
C928   C     0.02718   0.16773   0.66370   0.00000  Uiso   1.00
C929   C     0.29148   0.16616   0.88611   0.00000  Uiso   1.00
C930   C     0.33284   0.24584   0.75149   0.00000  Uiso   1.00
C931   C     0.04282   0.17447   0.61439   0.00000  Uiso   1.00
C932   C     0.30812   0.14968   0.95842   0.00000  Uiso   1.00
C933   C     0.03196   0.20864   0.54621   0.00000  Uiso   1.00
C934   C     0.32396   0.15525   0.91144   0.00000  Uiso   1.00
C935   C     0.01369   0.19581   0.59125   0.00000  Uiso   1.00
C936   C     0.24338   0.17454   0.90824   0.00000  Uiso   1.00
C937   C     0.09065   0.16530   0.59194   0.00000  Uiso   1.00
C938   C     0.22674   0.17233   0.95567   0.00000  Uiso   1.00
C939   C     0.11108   0.17926   0.54732   0.00000  Uiso   1.00
C940   C     0.25937   0.15839   0.98082   0.00000  Uiso   1.00
C941   C     0.19464   0.16035   0.54965   0.00000  Uiso   1.00
C942   C     0.08057   0.19980   0.52379   0.00000  Uiso   1.00
C943   C     0.17810   0.18230   0.97849   0.00000  Uiso   1.00
C944   C     0.16096   0.17328   0.52554   0.00000  Uiso   1.00
C945   C     0.00510   0.09074   0.99221   0.00000  Uiso   1.00
C946   C     0.00689   0.27589   0.52576   0.00000  Uiso   1.00
C947   C     0.26634   0.04203   0.70808   0.00000  Uiso   1.00
C948   C     0.21640   0.04051   0.72791   0.00000  Uiso   1.00
C949   C     0.18441   0.06193   0.70786   0.00000  Uiso   1.00
C950   C     0.20204   0.08487   0.66788   0.00000  Uiso   1.00
C951   C     0.25167   0.08625   0.64776   0.00000  Uiso   1.00
C952   C     0.14650   0.20216   0.95605   0.00000  Uiso   1.00
C953   C     0.28378   0.06481   0.66764   0.00000  Uiso   1.00
C954   C     0.06671   0.29110   0.79328   0.00000  Uiso   1.00
C955   C     0.04947   0.26568   0.83180   0.00000  Uiso   1.00
C956   C     0.08187   0.24385   0.85099   0.00000  Uiso   1.00
C957   C     0.13156   0.24779   0.83240   0.00000  Uiso   1.00
C958   C     0.14897   0.27383   0.79490   0.00000  Uiso   1.00
C959   C     0.11673   0.29535   0.77525   0.00000  Uiso   1.00
C960   C     0.11463   0.10687   0.85741   0.00000  Uiso   1.00
C961   C     0.22307   0.24842   0.66875   0.00000  Uiso   1.00
C962   C     0.24285   0.15383   0.52781   0.00000  Uiso   1.00
C963   C     0.09911   0.21119   0.97838   0.00000  Uiso   1.00
C964   C     0.30036   0.02122   0.73074   0.00000  Uiso   1.00
C965   C     0.03262   0.31204   0.77070   0.00000  Uiso   1.00
C966   C     0.29975   0.31190   0.73402   0.00000  Uiso   1.00
Cu967  Cu    0.04689   0.16667   0.75000   0.00000  Uiso   1.00
Cu968  Cu    0.28645   0.16666   0.75000   0.00000  Uiso   1.00
H969   H     0.26723   0.14507   0.54819   0.00000  Uiso   1.00
H970   H     0.05848   0.03810   0.78128   0.00000  Uiso   1.00
H971   H     0.19634   0.13007   0.80866   0.00000  Uiso   1.00
H972   H     0.13847   0.20255   0.69011   0.00000  Uiso   1.00
H973   H     0.04308   0.14355   0.96823   0.00000  Uiso   1.00
H974   H     0.01574   0.07345   0.96019   0.00000  Uiso   1.00
H975   H     0.30130   0.08180   0.51104   0.00000  Uiso   1.00
H976   H     0.03002   0.08212   0.51335   0.00000  Uiso   1.00
H977   H     0.29921   0.22318   0.53449   0.00000  Uiso   1.00
H978   H     0.31757   0.29144   0.50579   0.00000  Uiso   1.00
H979   H     0.04501   0.28504   0.51100   0.00000  Uiso   1.00
H980   H     0.07677   0.22673   0.95943   0.00000  Uiso   1.00
H981   H     0.32834   0.28635   0.56126   0.00000  Uiso   1.00
H982   H     0.20244   0.02353   0.75937   0.00000  Uiso   1.00
H983   H     0.14600   0.06112   0.72357   0.00000  Uiso   1.00
H984   H     0.17727   0.10171   0.65263   0.00000  Uiso   1.00
H985   H     0.26533   0.10415   0.61695   0.00000  Uiso   1.00
H986   H     0.32220   0.06648   0.65201   0.00000  Uiso   1.00
H987   H     0.01103   0.26206   0.84624   0.00000  Uiso   1.00
H988   H     0.06844   0.22360   0.87999   0.00000  Uiso   1.00
H989   H     0.15666   0.23052   0.84678   0.00000  Uiso   1.00
H990   H     0.18749   0.27693   0.78081   0.00000  Uiso   1.00
H991   H     0.11136   0.14718   0.61029   0.00000  Uiso   1.00
H992   H     0.13065   0.31454   0.74543   0.00000  Uiso   1.00
H993   H     0.07674   0.10525   0.80837   0.00000  Uiso   1.00
H994   H     0.08304   0.09337   0.88236   0.00000  Uiso   1.00
H995   H     0.12989   0.13124   0.87444   0.00000  Uiso   1.00
H996   H     0.14133   0.08167   0.84623   0.00000  Uiso   1.00
H997   H     0.24001   0.18782   0.65198   0.00000  Uiso   1.00
H998   H     0.19575   0.24926   0.64878   0.00000  Uiso   1.00
H999   H     0.25657   0.26303   0.64802   0.00000  Uiso   1.00
H1000  H     0.20951   0.26651   0.69981   0.00000  Uiso   1.00
H1001  H     0.21903   0.18142   0.88750   0.00000  Uiso   1.00
H1002  H     0.31094   0.20481   0.60863   0.00000  Uiso   1.00
H1003  H     0.02791   0.14911   0.89458   0.00000  Uiso   1.00
H1004  H     0.18527   0.15678   0.58597   0.00000  Uiso   1.00
H1005  H     0.15792   0.21296   0.92149   0.00000  Uiso   1.00
H1006  H     0.27475   0.29530   0.72000   0.00000  Uiso   1.00
N1007  N     0.11736   0.16668   0.74999   0.00000  Uiso   1.00
N1008  N     0.21597   0.16666   0.75001   0.00000  Uiso   1.00
N1009  N     0.00798   0.13465   0.98262   0.00000  Uiso   1.00
N1010  N     0.00164   0.23170   0.52427   0.00000  Uiso   1.00
N1011  N     0.09948   0.12429   0.81918   0.00000  Uiso   1.00
N1012  N     0.23355   0.20626   0.67988   0.00000  Uiso   1.00
O1013  O     0.03958   0.10655   0.75000   0.00000  Uiso   1.00
O1014  O     0.29375   0.22678   0.75000   0.00000  Uiso   1.00
O1015  O     0.29372   0.10654   0.75000   0.00000  Uiso   1.00
O1016  O     0.03961   0.22679   0.75000   0.00000  Uiso   1.00
O1017  O     0.01852   0.16668   0.81492   0.00000  Uiso   1.00
O1018  O     0.31481   0.16666   0.68508   0.00000  Uiso   1.00
O1019  O     0.27267   0.16667   0.81492   0.00000  Uiso   1.00
O1020  O     0.06067   0.16667   0.68508   0.00000  Uiso   1.00
C1021  C     0.33375   0.08748   0.74890   0.00000  Uiso   1.00
C1022  C     0.36664   0.02145   0.76734   0.00000  Uiso   1.00
C1023  C     0.66577   0.29049   0.75313   0.00000  Uiso   1.00
C1024  C     0.33399   0.04282   0.74803   0.00000  Uiso   1.00
C1025  C     0.51647   0.14648   0.78319   0.00000  Uiso   1.00
C1026  C     0.48372   0.18692   0.71690   0.00000  Uiso   1.00
C1027  C     0.46654   0.14615   0.78384   0.00000  Uiso   1.00
C1028  C     0.53324   0.18732   0.71680   0.00000  Uiso   1.00
C1029  C     0.63958   0.16676   0.83632   0.00000  Uiso   1.00
C1030  C     0.36051   0.16773   0.66370   0.00000  Uiso   1.00
C1031  C     0.62481   0.16616   0.88611   0.00000  Uiso   1.00
C1032  C     0.66617   0.24584   0.75149   0.00000  Uiso   1.00
C1033  C     0.37615   0.17447   0.61439   0.00000  Uiso   1.00
C1034  C     0.64145   0.14968   0.95842   0.00000  Uiso   1.00
C1035  C     0.36529   0.20864   0.54621   0.00000  Uiso   1.00
C1036  C     0.65729   0.15525   0.91144   0.00000  Uiso   1.00
C1037  C     0.34702   0.19581   0.59125   0.00000  Uiso   1.00
C1038  C     0.57671   0.17454   0.90824   0.00000  Uiso   1.00
C1039  C     0.42398   0.16530   0.59194   0.00000  Uiso   1.00
C1040  C     0.56008   0.17233   0.95567   0.00000  Uiso   1.00
C1041  C     0.44441   0.17926   0.54732   0.00000  Uiso   1.00
C1042  C     0.59271   0.15839   0.98082   0.00000  Uiso   1.00
C1043  C     0.52797   0.16035   0.54965   0.00000  Uiso   1.00
C1044  C     0.41390   0.19980   0.52379   0.00000  Uiso   1.00
C1045  C     0.51144   0.18230   0.97849   0.00000  Uiso   1.00
C1046  C     0.49430   0.17328   0.52554   0.00000  Uiso   1.00
C1047  C     0.33844   0.09074   0.99221   0.00000  Uiso   1.00
C1048  C     0.34023   0.27589   0.52576   0.00000  Uiso   1.00
C1049  C     0.59967   0.04203   0.70808   0.00000  Uiso   1.00
C1050  C     0.54974   0.04051   0.72791   0.00000  Uiso   1.00
C1051  C     0.51775   0.06193   0.70786   0.00000  Uiso   1.00
C1052  C     0.53538   0.08487   0.66788   0.00000  Uiso   1.00
C1053  C     0.58501   0.08625   0.64776   0.00000  Uiso   1.00
C1054  C     0.47983   0.20216   0.95605   0.00000  Uiso   1.00
C1055  C     0.61711   0.06481   0.66764   0.00000  Uiso   1.00
C1056  C     0.40004   0.29110   0.79328   0.00000  Uiso   1.00
C1057  C     0.38280   0.26568   0.83180   0.00000  Uiso   1.00
C1058  C     0.41520   0.24385   0.85099   0.00000  Uiso   1.00
C1059  C     0.46489   0.24779   0.83240   0.00000  Uiso   1.00
C1060  C     0.48230   0.27383   0.79490   0.00000  Uiso   1.00
C1061  C     0.45007   0.29535   0.77525   0.00000  Uiso   1.00
C1062  C     0.44796   0.10687   0.85741   0.00000  Uiso   1.00
C1063  C     0.55640   0.24842   0.66875   0.00000  Uiso   1.00
C1064  C     0.57619   0.15383   0.52781   0.00000  Uiso   1.00
C1065  C     0.43244   0.21119   0.97838   0.00000  Uiso   1.00
C1066  C     0.63369   0.02122   0.73074   0.00000  Uiso   1.00
C1067  C     0.36595   0.31204   0.77070   0.00000  Uiso   1.00
C1068  C     0.63309   0.31190   0.73402   0.00000  Uiso   1.00
Cu1069 Cu    0.38022   0.16667   0.75000   0.00000  Uiso   1.00
Cu1070 Cu    0.61978   0.16666   0.75000   0.00000  Uiso   1.00
H1071  H     0.60056   0.14507   0.54819   0.00000  Uiso   1.00
H1072  H     0.39182   0.03810   0.78128   0.00000  Uiso   1.00
H1073  H     0.52967   0.13007   0.80866   0.00000  Uiso   1.00
H1074  H     0.47180   0.20255   0.69011   0.00000  Uiso   1.00
H1075  H     0.37641   0.14355   0.96823   0.00000  Uiso   1.00
H1076  H     0.34908   0.07345   0.96019   0.00000  Uiso   1.00
H1077  H     0.63464   0.08180   0.51104   0.00000  Uiso   1.00
H1078  H     0.36335   0.08212   0.51335   0.00000  Uiso   1.00
H1079  H     0.63254   0.22318   0.53449   0.00000  Uiso   1.00
H1080  H     0.65090   0.29144   0.50579   0.00000  Uiso   1.00
H1081  H     0.37835   0.28504   0.51100   0.00000  Uiso   1.00
H1082  H     0.41010   0.22673   0.95943   0.00000  Uiso   1.00
H1083  H     0.66167   0.28635   0.56126   0.00000  Uiso   1.00
H1084  H     0.53578   0.02353   0.75937   0.00000  Uiso   1.00
H1085  H     0.47933   0.06112   0.72357   0.00000  Uiso   1.00
H1086  H     0.51060   0.10171   0.65263   0.00000  Uiso   1.00
H1087  H     0.59867   0.10415   0.61695   0.00000  Uiso   1.00
H1088  H     0.65553   0.06648   0.65201   0.00000  Uiso   1.00
H1089  H     0.34436   0.26206   0.84624   0.00000  Uiso   1.00
H1090  H     0.40177   0.22360   0.87999   0.00000  Uiso   1.00
H1091  H     0.48999   0.23052   0.84678   0.00000  Uiso   1.00
H1092  H     0.52082   0.27693   0.78081   0.00000  Uiso   1.00
H1093  H     0.44470   0.14718   0.61029   0.00000  Uiso   1.00
H1094  H     0.46399   0.31454   0.74543   0.00000  Uiso   1.00
H1095  H     0.41008   0.10525   0.80837   0.00000  Uiso   1.00
H1096  H     0.41638   0.09337   0.88236   0.00000  Uiso   1.00
H1097  H     0.46323   0.13124   0.87444   0.00000  Uiso   1.00
H1098  H     0.47466   0.08167   0.84623   0.00000  Uiso   1.00
H1099  H     0.57335   0.18782   0.65198   0.00000  Uiso   1.00
H1100  H     0.52908   0.24926   0.64878   0.00000  Uiso   1.00
H1101  H     0.58991   0.26303   0.64802   0.00000  Uiso   1.00
H1102  H     0.54285   0.26651   0.69981   0.00000  Uiso   1.00
H1103  H     0.55236   0.18142   0.88750   0.00000  Uiso   1.00
H1104  H     0.64427   0.20481   0.60863   0.00000  Uiso   1.00
H1105  H     0.36124   0.14911   0.89458   0.00000  Uiso   1.00
H1106  H     0.51860   0.15678   0.58597   0.00000  Uiso   1.00
H1107  H     0.49125   0.21296   0.92149   0.00000  Uiso   1.00
H1108  H     0.60809   0.29530   0.72000   0.00000  Uiso   1.00
N1109  N     0.45069   0.16668   0.74999   0.00000  Uiso   1.00
N1110  N     0.54931   0.16666   0.75001   0.00000  Uiso   1.00
N1111  N     0.34131   0.13465   0.98262   0.00000  Uiso   1.00
N1112  N     0.33497   0.23170   0.52427   0.00000  Uiso   1.00
N1113  N     0.43282   0.12429   0.81918   0.00000  Uiso   1.00
N1114  N     0.56688   0.20626   0.67988   0.00000  Uiso   1.00
O1115  O     0.37291   0.10655   0.75000   0.00000  Uiso   1.00
O1116  O     0.62709   0.22678   0.75000   0.00000  Uiso   1.00
O1117  O     0.62706   0.10654   0.75000   0.00000  Uiso   1.00
O1118  O     0.37294   0.22679   0.75000   0.00000  Uiso   1.00
O1119  O     0.35186   0.16668   0.81492   0.00000  Uiso   1.00
O1120  O     0.64814   0.16666   0.68508   0.00000  Uiso   1.00
O1121  O     0.60600   0.16667   0.81492   0.00000  Uiso   1.00
O1122  O     0.39400   0.16667   0.68508   0.00000  Uiso   1.00
C1123  C     0.66708   0.08748   0.74890   0.00000  Uiso   1.00
C1124  C     0.69998   0.02145   0.76734   0.00000  Uiso   1.00
C1125  C     0.99911   0.29049   0.75313   0.00000  Uiso   1.00
C1126  C     0.66732   0.04282   0.74803   0.00000  Uiso   1.00
C1127  C     0.84980   0.14648   0.78319   0.00000  Uiso   1.00
C1128  C     0.81705   0.18692   0.71690   0.00000  Uiso   1.00
C1129  C     0.79987   0.14615   0.78384   0.00000  Uiso   1.00
C1130  C     0.86658   0.18732   0.71680   0.00000  Uiso   1.00
C1131  C     0.97291   0.16676   0.83632   0.00000  Uiso   1.00
C1132  C     0.69385   0.16773   0.66370   0.00000  Uiso   1.00
C1133  C     0.95814   0.16616   0.88611   0.00000  Uiso   1.00
C1134  C     0.99951   0.24584   0.75149   0.00000  Uiso   1.00
C1135  C     0.70948   0.17447   0.61439   0.00000  Uiso   1.00
C1136  C     0.97478   0.14968   0.95842   0.00000  Uiso   1.00
C1137  C     0.69862   0.20864   0.54621   0.00000  Uiso   1.00
C1138  C     0.99063   0.15525   0.91144   0.00000  Uiso   1.00
C1139  C     0.68035   0.19581   0.59125   0.00000  Uiso   1.00
C1140  C     0.91004   0.17454   0.90824   0.00000  Uiso   1.00
C1141  C     0.75731   0.16530   0.59194   0.00000  Uiso   1.00
C1142  C     0.89341   0.17233   0.95567   0.00000  Uiso   1.00
C1143  C     0.77774   0.17926   0.54732   0.00000  Uiso   1.00
C1144  C     0.92604   0.15839   0.98082   0.00000  Uiso   1.00
C1145  C     0.86130   0.16035   0.54965   0.00000  Uiso   1.00
C1146  C     0.74723   0.19980   0.52379   0.00000  Uiso   1.00
C1147  C     0.84477   0.18230   0.97849   0.00000  Uiso   1.00
C1148  C     0.82763   0.17328   0.52554   0.00000  Uiso   1.00
C1149  C     0.67177   0.09074   0.99221   0.00000  Uiso   1.00
C1150  C     0.67356   0.27589   0.52576   0.00000  Uiso   1.00
C1151  C     0.93301   0.04203   0.70808   0.00000  Uiso   1.00
C1152  C     0.88307   0.04051   0.72791   0.00000  Uiso   1.00
C1153  C     0.85108   0.06193   0.70786   0.00000  Uiso   1.00
C1154  C     0.86871   0.08487   0.66788   0.00000  Uiso   1.00
C1155  C     0.91834   0.08625   0.64776   0.00000  Uiso   1.00
C1156  C     0.81316   0.20216   0.95605   0.00000  Uiso   1.00
C1157  C     0.95045   0.06481   0.66764   0.00000  Uiso   1.00
C1158  C     0.73337   0.29110   0.79328   0.00000  Uiso   1.00
C1159  C     0.71613   0.26568   0.83180   0.00000  Uiso   1.00
C1160  C     0.74853   0.24385   0.85099   0.00000  Uiso   1.00
C1161  C     0.79822   0.24779   0.83240   0.00000  Uiso   1.00
C1162  C     0.81564   0.27383   0.79490   0.00000  Uiso   1.00
C1163  C     0.78340   0.29535   0.77525   0.00000  Uiso   1.00
C1164  C     0.78129   0.10687   0.85741   0.00000  Uiso   1.00
C1165  C     0.88974   0.24842   0.66875   0.00000  Uiso   1.00
C1166  C     0.90952   0.15383   0.52781   0.00000  Uiso   1.00
C1167  C     0.76578   0.21119   0.97838   0.00000  Uiso   1.00
C1168  C     0.96702   0.02122   0.73074   0.00000  Uiso   1.00
C1169  C     0.69928   0.31204   0.77070   0.00000  Uiso   1.00
C1170  C     0.96642   0.31190   0.73402   0.00000  Uiso   1.00
Cu1171 Cu    0.71355   0.16667   0.75000   0.00000  Uiso   1.00
Cu1172 Cu    0.95311   0.16666   0.75000   0.00000  Uiso   1.00
H1173  H     0.93390   0.14507   0.54819   0.00000  Uiso   1.00
H1174  H     0.72515   0.03810   0.78128   0.00000  Uiso   1.00
H1175  H     0.86301   0.13007   0.80866   0.00000  Uiso   1.00
H1176  H     0.80513   0.20255   0.69011   0.00000  Uiso   1.00
H1177  H     0.70975   0.14355   0.96823   0.00000  Uiso   1.00
H1178  H     0.68241   0.07345   0.96019   0.00000  Uiso   1.00
H1179  H     0.96797   0.08180   0.51104   0.00000  Uiso   1.00
H1180  H     0.69668   0.08212   0.51335   0.00000  Uiso   1.00
H1181  H     0.96587   0.22318   0.53449   0.00000  Uiso   1.00
H1182  H     0.98423   0.29144   0.50579   0.00000  Uiso   1.00
H1183  H     0.71168   0.28504   0.51100   0.00000  Uiso   1.00
H1184  H     0.74343   0.22673   0.95943   0.00000  Uiso   1.00
H1185  H     0.99500   0.28635   0.56126   0.00000  Uiso   1.00
H1186  H     0.86911   0.02353   0.75937   0.00000  Uiso   1.00
H1187  H     0.81267   0.06112   0.72357   0.00000  Uiso   1.00
H1188  H     0.84393   0.10171   0.65263   0.00000  Uiso   1.00
H1189  H     0.93200   0.10415   0.61695   0.00000  Uiso   1.00
H1190  H     0.98886   0.06648   0.65201   0.00000  Uiso   1.00
H1191  H     0.67769   0.26206   0.84624   0.00000  Uiso   1.00
H1192  H     0.73511   0.22360   0.87999   0.00000  Uiso   1.00
H1193  H     0.82333   0.23052   0.84678   0.00000  Uiso   1.00
H1194  H     0.85415   0.27693   0.78081   0.00000  Uiso   1.00
H1195  H     0.77803   0.14718   0.61029   0.00000  Uiso   1.00
H1196  H     0.79732   0.31454   0.74543   0.00000  Uiso   1.00
H1197  H     0.74341   0.10525   0.80837   0.00000  Uiso   1.00
H1198  H     0.74971   0.09337   0.88236   0.00000  Uiso   1.00
H1199  H     0.79656   0.13124   0.87444   0.00000  Uiso   1.00
H1200  H     0.80799   0.08167   0.84623   0.00000  Uiso   1.00
H1201  H     0.90668   0.18782   0.65198   0.00000  Uiso   1.00
H1202  H     0.86242   0.24926   0.64878   0.00000  Uiso   1.00
H1203  H     0.92324   0.26303   0.64802   0.00000  Uiso   1.00
H1204  H     0.87618   0.26651   0.69981   0.00000  Uiso   1.00
H1205  H     0.88570   0.18142   0.88750   0.00000  Uiso   1.00
H1206  H     0.97761   0.20481   0.60863   0.00000  Uiso   1.00
H1207  H     0.69458   0.14911   0.89458   0.00000  Uiso   1.00
H1208  H     0.85193   0.15678   0.58597   0.00000  Uiso   1.00
H1209  H     0.82459   0.21296   0.92149   0.00000  Uiso   1.00
H1210  H     0.94142   0.29530   0.72000   0.00000  Uiso   1.00
N1211  N     0.78403   0.16668   0.74999   0.00000  Uiso   1.00
N1212  N     0.88264   0.16666   0.75001   0.00000  Uiso   1.00
N1213  N     0.67464   0.13465   0.98262   0.00000  Uiso   1.00
N1214  N     0.66830   0.23170   0.52427   0.00000  Uiso   1.00
N1215  N     0.76615   0.12429   0.81918   0.00000  Uiso   1.00
N1216  N     0.90022   0.20626   0.67988   0.00000  Uiso   1.00
O1217  O     0.70625   0.10655   0.75000   0.00000  Uiso   1.00
O1218  O     0.96042   0.22678   0.75000   0.00000  Uiso   1.00
O1219  O     0.96039   0.10654   0.75000   0.00000  Uiso   1.00
O1220  O     0.70628   0.22679   0.75000   0.00000  Uiso   1.00
O1221  O     0.68519   0.16668   0.81492   0.00000  Uiso   1.00
O1222  O     0.98148   0.16666   0.68508   0.00000  Uiso   1.00
O1223  O     0.93933   0.16667   0.81492   0.00000  Uiso   1.00
O1224  O     0.72733   0.16667   0.68508   0.00000  Uiso   1.00
C1225  C     0.00041   0.42081   0.74890   0.00000  Uiso   1.00
C1226  C     0.03331   0.35478   0.76734   0.00000  Uiso   1.00
C1227  C     0.33244   0.62382   0.75313   0.00000  Uiso   1.00
C1228  C     0.00066   0.37615   0.74803   0.00000  Uiso   1.00
C1229  C     0.18313   0.47981   0.78319   0.00000  Uiso   1.00
C1230  C     0.15038   0.52025   0.71690   0.00000  Uiso   1.00
C1231  C     0.13320   0.47949   0.78384   0.00000  Uiso   1.00
C1232  C     0.19991   0.52066   0.71680   0.00000  Uiso   1.00
C1233  C     0.30624   0.50010   0.83632   0.00000  Uiso   1.00
C1234  C     0.02718   0.50107   0.66370   0.00000  Uiso   1.00
C1235  C     0.29148   0.49949   0.88611   0.00000  Uiso   1.00
C1236  C     0.33284   0.57917   0.75149   0.00000  Uiso   1.00
C1237  C     0.04282   0.50780   0.61439   0.00000  Uiso   1.00
C1238  C     0.30812   0.48302   0.95842   0.00000  Uiso   1.00
C1239  C     0.03196   0.54197   0.54621   0.00000  Uiso   1.00
C1240  C     0.32396   0.48858   0.91144   0.00000  Uiso   1.00
C1241  C     0.01369   0.52914   0.59125   0.00000  Uiso   1.00
C1242  C     0.24338   0.50788   0.90824   0.00000  Uiso   1.00
C1243  C     0.09065   0.49864   0.59194   0.00000  Uiso   1.00
C1244  C     0.22674   0.50566   0.95567   0.00000  Uiso   1.00
C1245  C     0.11108   0.51259   0.54732   0.00000  Uiso   1.00
C1246  C     0.25937   0.49172   0.98082   0.00000  Uiso   1.00
C1247  C     0.19464   0.49368   0.54965   0.00000  Uiso   1.00
C1248  C     0.08057   0.53313   0.52379   0.00000  Uiso   1.00
C1249  C     0.17810   0.51563   0.97849   0.00000  Uiso   1.00
C1250  C     0.16096   0.50662   0.52554   0.00000  Uiso   1.00
C1251  C     0.00510   0.42407   0.99221   0.00000  Uiso   1.00
C1252  C     0.00689   0.60922   0.52576   0.00000  Uiso   1.00
C1253  C     0.26634   0.37536   0.70808   0.00000  Uiso   1.00
C1254  C     0.21640   0.37384   0.72791   0.00000  Uiso   1.00
C1255  C     0.18441   0.39526   0.70786   0.00000  Uiso   1.00
C1256  C     0.20204   0.41820   0.66788   0.00000  Uiso   1.00
C1257  C     0.25167   0.41958   0.64776   0.00000  Uiso   1.00
C1258  C     0.14650   0.53549   0.95605   0.00000  Uiso   1.00
C1259  C     0.28378   0.39815   0.66764   0.00000  Uiso   1.00
C1260  C     0.06671   0.62444   0.79328   0.00000  Uiso   1.00
C1261  C     0.04947   0.59901   0.83180   0.00000  Uiso   1.00
C1262  C     0.08187   0.57718   0.85099   0.00000  Uiso   1.00
C1263  C     0.13156   0.58112   0.83240   0.00000  Uiso   1.00
C1264  C     0.14897   0.60717   0.79490   0.00000  Uiso   1.00
C1265  C     0.11673   0.62868   0.77525   0.00000  Uiso   1.00
C1266  C     0.11463   0.44020   0.85741   0.00000  Uiso   1.00
C1267  C     0.22307   0.58175   0.66875   0.00000  Uiso   1.00
C1268  C     0.24285   0.48716   0.52781   0.00000  Uiso   1.00
C1269  C     0.09911   0.54452   0.97838   0.00000  Uiso   1.00
C1270  C     0.30036   0.35455   0.73074   0.00000  Uiso   1.00
C1271  C     0.03262   0.64538   0.77070   0.00000  Uiso   1.00
C1272  C     0.29975   0.64523   0.73402   0.00000  Uiso   1.00
Cu1273 Cu    0.04689   0.50001   0.75000   0.00000  Uiso   1.00
Cu1274 Cu    0.28645   0.49999   0.75000   0.00000  Uiso   1.00
H1275  H     0.26723   0.47841   0.54819   0.00000  Uiso   1.00
H1276  H     0.05848   0.37144   0.78128   0.00000  Uiso   1.00
H1277  H     0.19634   0.46341   0.80866   0.00000  Uiso   1.00
H1278  H     0.13847   0.53588   0.69011   0.00000  Uiso   1.00
H1279  H     0.04308   0.47688   0.96823   0.00000  Uiso   1.00
H1280  H     0.01574   0.40679   0.96019   0.00000  Uiso   1.00
H1281  H     0.30130   0.41513   0.51104   0.00000  Uiso   1.00
H1282  H     0.03002   0.41545   0.51335   0.00000  Uiso   1.00
H1283  H     0.29921   0.55651   0.53449   0.00000  Uiso   1.00
H1284  H     0.31757   0.62477   0.50579   0.00000  Uiso   1.00
H1285  H     0.04501   0.61838   0.51100   0.00000  Uiso   1.00
H1286  H     0.07677   0.56006   0.95943   0.00000  Uiso   1.00
H1287  H     0.32834   0.61968   0.56126   0.00000  Uiso   1.00
H1288  H     0.20244   0.35687   0.75937   0.00000  Uiso   1.00
H1289  H     0.14600   0.39445   0.72357   0.00000  Uiso   1.00
H1290  H     0.17727   0.43504   0.65263   0.00000  Uiso   1.00
H1291  H     0.26533   0.43749   0.61695   0.00000  Uiso   1.00
H1292  H     0.32220   0.39982   0.65201   0.00000  Uiso   1.00
H1293  H     0.01103   0.59539   0.84624   0.00000  Uiso   1.00
H1294  H     0.06844   0.55693   0.87999   0.00000  Uiso   1.00
H1295  H     0.15666   0.56386   0.84678   0.00000  Uiso   1.00
H1296  H     0.18749   0.61027   0.78081   0.00000  Uiso   1.00
H1297  H     0.11136   0.48052   0.61029   0.00000  Uiso   1.00
H1298  H     0.13065   0.64788   0.74543   0.00000  Uiso   1.00
H1299  H     0.07674   0.43858   0.80837   0.00000  Uiso   1.00
H1300  H     0.08304   0.42670   0.88236   0.00000  Uiso   1.00
H1301  H     0.12989   0.46458   0.87444   0.00000  Uiso   1.00
H1302  H     0.14133   0.41500   0.84623   0.00000  Uiso   1.00
H1303  H     0.24001   0.52115   0.65198   0.00000  Uiso   1.00
H1304  H     0.19575   0.58260   0.64878   0.00000  Uiso   1.00
H1305  H     0.25657   0.59636   0.64802   0.00000  Uiso   1.00
H1306  H     0.20951   0.59984   0.69981   0.00000  Uiso   1.00
H1307  H     0.21903   0.51476   0.88750   0.00000  Uiso   1.00
H1308  H     0.31094   0.53814   0.60863   0.00000  Uiso   1.00
H1309  H     0.02791   0.48245   0.89458   0.00000  Uiso   1.00
H1310  H     0.18527   0.49012   0.58597   0.00000  Uiso   1.00
H1311  H     0.15792   0.54629   0.92149   0.00000  Uiso   1.00
H1312  H     0.27475   0.62864   0.72000   0.00000  Uiso   1.00
N1313  N     0.11736   0.50001   0.74999   0.00000  Uiso   1.00
N1314  N     0.21597   0.49999   0.75001   0.00000  Uiso   1.00
N1315  N     0.00798   0.46798   0.98262   0.00000  Uiso   1.00
N1316  N     0.00164   0.56503   0.52427   0.00000  Uiso   1.00
N1317  N     0.09948   0.45762   0.81918   0.00000  Uiso   1.00
N1318  N     0.23355   0.53959   0.67988   0.00000  Uiso   1.00
O1319  O     0.03958   0.43989   0.75000   0.00000  Uiso   1.00
O1320  O     0.29375   0.56011   0.75000   0.00000  Uiso   1.00
O1321  O     0.29372   0.43988   0.75000   0.00000  Uiso   1.00
O1322  O     0.03961   0.56012   0.75000   0.00000  Uiso   1.00
O1323  O     0.01852   0.50001   0.81492   0.00000  Uiso   1.00
O1324  O     0.31481   0.49999   0.68508   0.00000  Uiso   1.00
O1325  O     0.27267   0.50000   0.81492   0.00000  Uiso   1.00
O1326  O     0.06067   0.50000   0.68508   0.00000  Uiso   1.00
C1327  C     0.33375   0.42081   0.74890   0.00000  Uiso   1.00
C1328  C     0.36664   0.35478   0.76734   0.00000  Uiso   1.00
C1329  C     0.66577   0.62382   0.75313   0.00000  Uiso   1.00
C1330  C     0.33399   0.37615   0.74803   0.00000  Uiso   1.00
C1331  C     0.51647   0.47981   0.78319   0.00000  Uiso   1.00
C1332  C     0.48372   0.52025   0.71690   0.00000  Uiso   1.00
C1333  C     0.46654   0.47949   0.78384   0.00000  Uiso   1.00
C1334  C     0.53324   0.52066   0.71680   0.00000  Uiso   1.00
C1335  C     0.63958   0.50010   0.83632   0.00000  Uiso   1.00
C1336  C     0.36051   0.50107   0.66370   0.00000  Uiso   1.00
C1337  C     0.62481   0.49949   0.88611   0.00000  Uiso   1.00
C1338  C     0.66617   0.57917   0.75149   0.00000  Uiso   1.00
C1339  C     0.37615   0.50780   0.61439   0.00000  Uiso   1.00
C1340  C     0.64145   0.48302   0.95842   0.00000  Uiso   1.00
C1341  C     0.36529   0.54197   0.54621   0.00000  Uiso   1.00
C1342  C     0.65729   0.48858   0.91144   0.00000  Uiso   1.00
C1343  C     0.34702   0.52914   0.59125   0.00000  Uiso   1.00
C1344  C     0.57671   0.50788   0.90824   0.00000  Uiso   1.00
C1345  C     0.42398   0.49864   0.59194   0.00000  Uiso   1.00
C1346  C     0.56008   0.50566   0.95567   0.00000  Uiso   1.00
C1347  C     0.44441   0.51259   0.54732   0.00000  Uiso   1.00
C1348  C     0.59271   0.49172   0.98082   0.00000  Uiso   1.00
C1349  C     0.52797   0.49368   0.54965   0.00000  Uiso   1.00
C1350  C     0.41390   0.53313   0.52379   0.00000  Uiso   1.00
C1351  C     0.51144   0.51563   0.97849   0.00000  Uiso   1.00
C1352  C     0.49430   0.50662   0.52554   0.00000  Uiso   1.00
C1353  C     0.33844   0.42407   0.99221   0.00000  Uiso   1.00
C1354  C     0.34023   0.60922   0.52576   0.00000  Uiso   1.00
C1355  C     0.59967   0.37536   0.70808   0.00000  Uiso   1.00
C1356  C     0.54974   0.37384   0.72791   0.00000  Uiso   1.00
C1357  C     0.51775   0.39526   0.70786   0.00000  Uiso   1.00
C1358  C     0.53538   0.41820   0.66788   0.00000  Uiso   1.00
C1359  C     0.58501   0.41958   0.64776   0.00000  Uiso   1.00
C1360  C     0.47983   0.53549   0.95605   0.00000  Uiso   1.00
C1361  C     0.61711   0.39815   0.66764   0.00000  Uiso   1.00
C1362  C     0.40004   0.62444   0.79328   0.00000  Uiso   1.00
C1363  C     0.38280   0.59901   0.83180   0.00000  Uiso   1.00
C1364  C     0.41520   0.57718   0.85099   0.00000  Uiso   1.00
C1365  C     0.46489   0.58112   0.83240   0.00000  Uiso   1.00
C1366  C     0.48230   0.60717   0.79490   0.00000  Uiso   1.00
C1367  C     0.45007   0.62868   0.77525   0.00000  Uiso   1.00
C1368  C     0.44796   0.44020   0.85741   0.00000  Uiso   1.00
C1369  C     0.55640   0.58175   0.66875   0.00000  Uiso   1.00
C1370  C     0.57619   0.48716   0.52781   0.00000  Uiso   1.00
C1371  C     0.43244   0.54452   0.97838   0.00000  Uiso   1.00
C1372  C     0.63369   0.35455   0.73074   0.00000  Uiso   1.00
C1373  C     0.36595   0.64538   0.77070   0.00000  Uiso   1.00
C1374  C     0.63309   0.64523   0.73402   0.00000  Uiso   1.00
Cu1375 Cu    0.38022   0.50001   0.75000   0.00000  Uiso   1.00
Cu1376 Cu    0.61978   0.49999   0.75000   0.00000  Uiso   1.00
H1377  H     0.60056   0.47841   0.54819   0.00000  Uiso   1.00
H1378  H     0.39182   0.37144   0.78128   0.00000  Uiso   1.00
H1379  H     0.52967   0.46341   0.80866   0.00000  Uiso   1.00
H1380  H     0.47180   0.53588   0.69011   0.00000  Uiso   1.00
H1381  H     0.37641   0.47688   0.96823   0.00000  Uiso   1.00
H1382  H     0.34908   0.40679   0.96019   0.00000  Uiso   1.00
H1383  H     0.63464   0.41513   0.51104   0.00000  Uiso   1.00
H1384  H     0.36335   0.41545   0.51335   0.00000  Uiso   1.00
H1385  H     0.63254   0.55651   0.53449   0.00000  Uiso   1.00
H1386  H     0.65090   0.62477   0.50579   0.00000  Uiso   1.00
H1387  H     0.37835   0.61838   0.51100   0.00000  Uiso   1.00
H1388  H     0.41010   0.56006   0.95943   0.00000  Uiso   1.00
H1389  H     0.66167   0.61968   0.56126   0.00000  Uiso   1.00
H1390  H     0.53578   0.35687   0.75937   0.00000  Uiso   1.00
H1391  H     0.47933   0.39445   0.72357   0.00000  Uiso   1.00
H1392  H     0.51060   0.43504   0.65263   0.00000  Uiso   1.00
H1393  H     0.59867   0.43749   0.61695   0.00000  Uiso   1.00
H1394  H     0.65553   0.39982   0.65201   0.00000  Uiso   1.00
H1395  H     0.34436   0.59539   0.84624   0.00000  Uiso   1.00
H1396  H     0.40177   0.55693   0.87999   0.00000  Uiso   1.00
H1397  H     0.48999   0.56386   0.84678   0.00000  Uiso   1.00
H1398  H     0.52082   0.61027   0.78081   0.00000  Uiso   1.00
H1399  H     0.44470   0.48052   0.61029   0.00000  Uiso   1.00
H1400  H     0.46399   0.64788   0.74543   0.00000  Uiso   1.00
H1401  H     0.41008   0.43858   0.80837   0.00000  Uiso   1.00
H1402  H     0.41638   0.42670   0.88236   0.00000  Uiso   1.00
H1403  H     0.46323   0.46458   0.87444   0.00000  Uiso   1.00
H1404  H     0.47466   0.41500   0.84623   0.00000  Uiso   1.00
H1405  H     0.57335   0.52115   0.65198   0.00000  Uiso   1.00
H1406  H     0.52908   0.58260   0.64878   0.00000  Uiso   1.00
H1407  H     0.58991   0.59636   0.64802   0.00000  Uiso   1.00
H1408  H     0.54285   0.59984   0.69981   0.00000  Uiso   1.00
H1409  H     0.55236   0.51476   0.88750   0.00000  Uiso   1.00
H1410  H     0.64427   0.53814   0.60863   0.00000  Uiso   1.00
H1411  H     0.36124   0.48245   0.89458   0.00000  Uiso   1.00
H1412  H     0.51860   0.49012   0.58597   0.00000  Uiso   1.00
H1413  H     0.49125   0.54629   0.92149   0.00000  Uiso   1.00
H1414  H     0.60809   0.62864   0.72000   0.00000  Uiso   1.00
N1415  N     0.45069   0.50001   0.74999   0.00000  Uiso   1.00
N1416  N     0.54931   0.49999   0.75001   0.00000  Uiso   1.00
N1417  N     0.34131   0.46798   0.98262   0.00000  Uiso   1.00
N1418  N     0.33497   0.56503   0.52427   0.00000  Uiso   1.00
N1419  N     0.43282   0.45762   0.81918   0.00000  Uiso   1.00
N1420  N     0.56688   0.53959   0.67988   0.00000  Uiso   1.00
O1421  O     0.37291   0.43989   0.75000   0.00000  Uiso   1.00
O1422  O     0.62709   0.56011   0.75000   0.00000  Uiso   1.00
O1423  O     0.62706   0.43988   0.75000   0.00000  Uiso   1.00
O1424  O     0.37294   0.56012   0.75000   0.00000  Uiso   1.00
O1425  O     0.35186   0.50001   0.81492   0.00000  Uiso   1.00
O1426  O     0.64814   0.49999   0.68508   0.00000  Uiso   1.00
O1427  O     0.60600   0.50000   0.81492   0.00000  Uiso   1.00
O1428  O     0.39400   0.50000   0.68508   0.00000  Uiso   1.00
C1429  C     0.66708   0.42081   0.74890   0.00000  Uiso   1.00
C1430  C     0.69998   0.35478   0.76734   0.00000  Uiso   1.00
C1431  C     0.99911   0.62382   0.75313   0.00000  Uiso   1.00
C1432  C     0.66732   0.37615   0.74803   0.00000  Uiso   1.00
C1433  C     0.84980   0.47981   0.78319   0.00000  Uiso   1.00
C1434  C     0.81705   0.52025   0.71690   0.00000  Uiso   1.00
C1435  C     0.79987   0.47949   0.78384   0.00000  Uiso   1.00
C1436  C     0.86658   0.52066   0.71680   0.00000  Uiso   1.00
C1437  C     0.97291   0.50010   0.83632   0.00000  Uiso   1.00
C1438  C     0.69385   0.50107   0.66370   0.00000  Uiso   1.00
C1439  C     0.95814   0.49949   0.88611   0.00000  Uiso   1.00
C1440  C     0.99951   0.57917   0.75149   0.00000  Uiso   1.00
C1441  C     0.70948   0.50780   0.61439   0.00000  Uiso   1.00
C1442  C     0.97478   0.48302   0.95842   0.00000  Uiso   1.00
C1443  C     0.69862   0.54197   0.54621   0.00000  Uiso   1.00
C1444  C     0.99063   0.48858   0.91144   0.00000  Uiso   1.00
C1445  C     0.68035   0.52914   0.59125   0.00000  Uiso   1.00
C1446  C     0.91004   0.50788   0.90824   0.00000  Uiso   1.00
C1447  C     0.75731   0.49864   0.59194   0.00000  Uiso   1.00
C1448  C     0.89341   0.50566   0.95567   0.00000  Uiso   1.00
C1449  C     0.77774   0.51259   0.54732   0.00000  Uiso   1.00
C1450  C     0.92604   0.49172   0.98082   0.00000  Uiso   1.00
C1451  C     0.86130   0.49368   0.54965   0.00000  Uiso   1.00
C1452  C     0.74723   0.53313   0.52379   0.00000  Uiso   1.00
C1453  C     0.84477   0.51563   0.97849   0.00000  Uiso   1.00
C1454  C     0.82763   0.50662   0.52554   0.00000  Uiso   1.00
C1455  C     0.67177   0.42407   0.99221   0.00000  Uiso   1.00
C1456  C     0.67356   0.60922   0.52576   0.00000  Uiso   1.00
C1457  C     0.93301   0.37536   0.70808   0.00000  Uiso   1.00
C1458  C     0.88307   0.37384   0.72791   0.00000  Uiso   1.00
C1459  C     0.85108   0.39526   0.70786   0.00000  Uiso   1.00
C1460  C     0.86871   0.41820   0.66788   0.00000  Uiso   1.00
C1461  C     0.91834   0.41958   0.64776   0.00000  Uiso   1.00
C1462  C     0.81316   0.53549   0.95605   0.00000  Uiso   1.00
C1463  C     0.95045   0.39815   0.66764   0.00000  Uiso   1.00
C1464  C     0.73337   0.62444   0.79328   0.00000  Uiso   1.00
C1465  C     0.71613   0.59901   0.83180   0.00000  Uiso   1.00
C1466  C     0.74853   0.57718   0.85099   0.00000  Uiso   1.00
C1467  C     0.79822   0.58112   0.83240   0.00000  Uiso   1.00
C1468  C     0.81564   0.60717   0.79490   0.00000  Uiso   1.00
C1469  C     0.78340   0.62868   0.77525   0.00000  Uiso   1.00
C1470  C     0.78129   0.44020   0.85741   0.00000  Uiso   1.00
C1471  C     0.88974   0.58175   0.66875   0.00000  Uiso   1.00
C1472  C     0.90952   0.48716   0.52781   0.00000  Uiso   1.00
C1473  C     0.76578   0.54452   0.97838   0.00000  Uiso   1.00
C1474  C     0.96702   0.35455   0.73074   0.00000  Uiso   1.00
C1475  C     0.69928   0.64538   0.77070   0.00000  Uiso   1.00
C1476  C     0.96642   0.64523   0.73402   0.00000  Uiso   1.00
Cu1477 Cu    0.71355   0.50001   0.75000   0.00000  Uiso   1.00
Cu1478 Cu    0.95311   0.49999   0.75000   0.00000  Uiso   1.00
H1479  H     0.93390   0.47841   0.54819   0.00000  Uiso   1.00
H1480  H     0.72515   0.37144   0.78128   0.00000  Uiso   1.00
H1481  H     0.86301   0.46341   0.80866   0.00000  Uiso   1.00
H1482  H     0.80513   0.53588   0.69011   0.00000  Uiso   1.00
H1483  H     0.70975   0.47688   0.96823   0.00000  Uiso   1.00
H1484  H     0.68241   0.40679   0.96019   0.00000  Uiso   1.00
H1485  H     0.96797   0.41513   0.51104   0.00000  Uiso   1.00
H1486  H     0.69668   0.41545   0.51335   0.00000  Uiso   1.00
H1487  H     0.96587   0.55651   0.53449   0.00000  Uiso   1.00
H1488  H     0.98423   0.62477   0.50579   0.00000  Uiso   1.00
H1489  H     0.71168   0.61838   0.51100   0.00000  Uiso   1.00
H1490  H     0.74343   0.56006   0.95943   0.00000  Uiso   1.00
H1491  H     0.99500   0.61968   0.56126   0.00000  Uiso   1.00
H1492  H     0.86911   0.35687   0.75937   0.00000  Uiso   1.00
H1493  H     0.81267   0.39445   0.72357   0.00000  Uiso   1.00
H1494  H     0.84393   0.43504   0.65263   0.00000  Uiso   1.00
H1495  H     0.93200   0.43749   0.61695   0.00000  Uiso   1.00
H1496  H     0.98886   0.39982   0.65201   0.00000  Uiso   1.00
H1497  H     0.67769   0.59539   0.84624   0.00000  Uiso   1.00
H1498  H     0.73511   0.55693   0.87999   0.00000  Uiso   1.00
H1499  H     0.82333   0.56386   0.84678   0.00000  Uiso   1.00
H1500  H     0.85415   0.61027   0.78081   0.00000  Uiso   1.00
H1501  H     0.77803   0.48052   0.61029   0.00000  Uiso   1.00
H1502  H     0.79732   0.64788   0.74543   0.00000  Uiso   1.00
H1503  H     0.74341   0.43858   0.80837   0.00000  Uiso   1.00
H1504  H     0.74971   0.42670   0.88236   0.00000  Uiso   1.00
H1505  H     0.79656   0.46458   0.87444   0.00000  Uiso   1.00
H1506  H     0.80799   0.41500   0.84623   0.00000  Uiso   1.00
H1507  H     0.90668   0.52115   0.65198   0.00000  Uiso   1.00
H1508  H     0.86242   0.58260   0.64878   0.00000  Uiso   1.00
H1509  H     0.92324   0.59636   0.64802   0.00000  Uiso   1.00
H1510  H     0.87618   0.59984   0.69981   0.00000  Uiso   1.00
H1511  H     0.88570   0.51476   0.88750   0.00000  Uiso   1.00
H1512  H     0.97761   0.53814   0.60863   0.00000  Uiso   1.00
H1513  H     0.69458   0.48245   0.89458   0.00000  Uiso   1.00
H1514  H     0.85193   0.49012   0.58597   0.00000  Uiso   1.00
H1515  H     0.82459   0.54629   0.92149   0.00000  Uiso   1.00
H1516  H     0.94142   0.62864   0.72000   0.00000  Uiso   1.00
N1517  N     0.78403   0.50001   0.74999   0.00000  Uiso   1.00
N1518  N     0.88264   0.49999   0.75001   0.00000  Uiso   1.00
N1519  N     0.67464   0.46798   0.98262   0.00000  Uiso   1.00
N1520  N     0.66830   0.56503   0.52427   0.00000  Uiso   1.00
N1521  N     0.76615   0.45762   0.81918   0.00000  Uiso   1.00
N1522  N     0.90022   0.53959   0.67988   0.00000  Uiso   1.00
O1523  O     0.70625   0.43989   0.75000   0.00000  Uiso   1.00
O1524  O     0.96042   0.56011   0.75000   0.00000  Uiso   1.00
O1525  O     0.96039   0.43988   0.75000   0.00000  Uiso   1.00
O1526  O     0.70628   0.56012   0.75000   0.00000  Uiso   1.00
O1527  O     0.68519   0.50001   0.81492   0.00000  Uiso   1.00
O1528  O     0.98148   0.49999   0.68508   0.00000  Uiso   1.00
O1529  O     0.93933   0.50000   0.81492   0.00000  Uiso   1.00
O1530  O     0.72733   0.50000   0.68508   0.00000  Uiso   1.00
C1531  C     0.00041   0.75414   0.74890   0.00000  Uiso   1.00
C1532  C     0.03331   0.68812   0.76734   0.00000  Uiso   1.00
C1533  C     0.33244   0.95715   0.75313   0.00000  Uiso   1.00
C1534  C     0.00066   0.70948   0.74803   0.00000  Uiso   1.00
C1535  C     0.18313   0.81314   0.78319   0.00000  Uiso   1.00
C1536  C     0.15038   0.85359   0.71690   0.00000  Uiso   1.00
C1537  C     0.13320   0.81282   0.78384   0.00000  Uiso   1.00
C1538  C     0.19991   0.85399   0.71680   0.00000  Uiso   1.00
C1539  C     0.30624   0.83343   0.83632   0.00000  Uiso   1.00
C1540  C     0.02718   0.83440   0.66370   0.00000  Uiso   1.00
C1541  C     0.29148   0.83283   0.88611   0.00000  Uiso   1.00
C1542  C     0.33284   0.91250   0.75149   0.00000  Uiso   1.00
C1543  C     0.04282   0.84114   0.61439   0.00000  Uiso   1.00
C1544  C     0.30812   0.81635   0.95842   0.00000  Uiso   1.00
C1545  C     0.03196   0.87531   0.54621   0.00000  Uiso   1.00
C1546  C     0.32396   0.82192   0.91144   0.00000  Uiso   1.00
C1547  C     0.01369   0.86247   0.59125   0.00000  Uiso   1.00
C1548  C     0.24338   0.84121   0.90824   0.00000  Uiso   1.00
C1549  C     0.09065   0.83197   0.59194   0.00000  Uiso   1.00
C1550  C     0.22674   0.83900   0.95567   0.00000  Uiso   1.00
C1551  C     0.11108   0.84593   0.54732   0.00000  Uiso   1.00
C1552  C     0.25937   0.82506   0.98082   0.00000  Uiso   1.00
C1553  C     0.19464   0.82702   0.54965   0.00000  Uiso   1.00
C1554  C     0.08057   0.86647   0.52379   0.00000  Uiso   1.00
C1555  C     0.17810   0.84897   0.97849   0.00000  Uiso   1.00
C1556  C     0.16096   0.83995   0.52554   0.00000  Uiso   1.00
C1557  C     0.00510   0.75740   0.99221   0.00000  Uiso   1.00
C1558  C     0.00689   0.94256   0.52576   0.00000  Uiso   1.00
C1559  C     0.26634   0.70869   0.70808   0.00000  Uiso   1.00
C1560  C     0.21640   0.70717   0.72791   0.00000  Uiso   1.00
C1561  C     0.18441   0.72860   0.70786   0.00000  Uiso   1.00
C1562  C     0.20204   0.75153   0.66788   0.00000  Uiso   1.00
C1563  C     0.25167   0.75291   0.64776   0.00000  Uiso   1.00
C1564  C     0.14650   0.86883   0.95605   0.00000  Uiso   1.00
C1565  C     0.28378   0.73148   0.66764   0.00000  Uiso   1.00
C1566  C     0.06671   0.95777   0.79328   0.00000  Uiso   1.00
C1567  C     0.04947   0.93234   0.83180   0.00000  Uiso   1.00
C1568  C     0.08187   0.91051   0.85099   0.00000  Uiso   1.00
C1569  C     0.13156   0.91446   0.83240   0.00000  Uiso   1.00
C1570  C     0.14897   0.94050   0.79490   0.00000  Uiso   1.00
C1571  C     0.11673   0.96201   0.77525   0.00000  Uiso   1.00
C1572  C     0.11463   0.77353   0.85741   0.00000  Uiso   1.00
C1573  C     0.22307   0.91508   0.66875   0.00000  Uiso   1.00
C1574  C     0.24285   0.82049   0.52781   0.00000  Uiso   1.00
C1575  C     0.09911   0.87786   0.97838   0.00000  Uiso   1.00
C1576  C     0.30036   0.68788   0.73074   0.00000  Uiso   1.00
C1577  C     0.03262   0.97871   0.77070   0.00000  Uiso   1.00
C1578  C     0.29975   0.97857   0.73402   0.00000  Uiso   1.00
Cu1579 Cu    0.04689   0.83334   0.75000   0.00000  Uiso   1.00
Cu1580 Cu    0.28645   0.83333   0.75000   0.00000  Uiso   1.00
H1581  H     0.26723   0.81174   0.54819   0.00000  Uiso   1.00
H1582  H     0.05848   0.70477   0.78128   0.00000  Uiso   1.00
H1583  H     0.19634   0.79674   0.80866   0.00000  Uiso   1.00
H1584  H     0.13847   0.86921   0.69011   0.00000  Uiso   1.00
H1585  H     0.04308   0.81022   0.96823   0.00000  Uiso   1.00
H1586  H     0.01574   0.74012   0.96019   0.00000  Uiso   1.00
H1587  H     0.30130   0.74846   0.51104   0.00000  Uiso   1.00
H1588  H     0.03002   0.74879   0.51335   0.00000  Uiso   1.00
H1589  H     0.29921   0.88984   0.53449   0.00000  Uiso   1.00
H1590  H     0.31757   0.95810   0.50579   0.00000  Uiso   1.00
H1591  H     0.04501   0.95171   0.51100   0.00000  Uiso   1.00
H1592  H     0.07677   0.89339   0.95943   0.00000  Uiso   1.00
H1593  H     0.32834   0.95301   0.56126   0.00000  Uiso   1.00
H1594  H     0.20244   0.69020   0.75937   0.00000  Uiso   1.00
H1595  H     0.14600   0.72778   0.72357   0.00000  Uiso   1.00
H1596  H     0.17727   0.76838   0.65263   0.00000  Uiso   1.00
H1597  H     0.26533   0.77082   0.61695   0.00000  Uiso   1.00
H1598  H     0.32220   0.73315   0.65201   0.00000  Uiso   1.00
H1599  H     0.01103   0.92872   0.84624   0.00000  Uiso   1.00
H1600  H     0.06844   0.89026   0.87999   0.00000  Uiso   1.00
H1601  H     0.15666   0.89719   0.84678   0.00000  Uiso   1.00
H1602  H     0.18749   0.94360   0.78081   0.00000  Uiso   1.00
H1603  H     0.11136   0.81385   0.61029   0.00000  Uiso   1.00
H1604  H     0.13065   0.98121   0.74543   0.00000  Uiso   1.00
H1605  H     0.07674   0.77191   0.80837   0.00000  Uiso   1.00
H1606  H     0.08304   0.76003   0.88236   0.00000  Uiso   1.00
H1607  H     0.12989   0.79791   0.87444   0.00000  Uiso   1.00
H1608  H     0.14133   0.74834   0.84623   0.00000  Uiso   1.00
H1609  H     0.24001   0.85449   0.65198   0.00000  Uiso   1.00
H1610  H     0.19575   0.91593   0.64878   0.00000  Uiso   1.00
H1611  H     0.25657   0.92970   0.64802   0.00000  Uiso   1.00
H1612  H     0.20951   0.93318   0.69981   0.00000  Uiso   1.00
H1613  H     0.21903   0.84809   0.88750   0.00000  Uiso   1.00
H1614  H     0.31094   0.87147   0.60863   0.00000  Uiso   1.00
H1615  H     0.02791   0.81578   0.89458   0.00000  Uiso   1.00
H1616  H     0.18527   0.82345   0.58597   0.00000  Uiso   1.00
H1617  H     0.15792   0.87963   0.92149   0.00000  Uiso   1.00
H1618  H     0.27475   0.96197   0.72000   0.00000  Uiso   1.00
N1619  N     0.11736   0.83334   0.74999   0.00000  Uiso   1.00
N1620  N     0.21597   0.83332   0.75001   0.00000  Uiso   1.00
N1621  N     0.00798   0.80131   0.98262   0.00000  Uiso   1.00
N1622  N     0.00164   0.89836   0.52427   0.00000  Uiso   1.00
N1623  N     0.09948   0.79095   0.81918   0.00000  Uiso   1.00
N1624  N     0.23355   0.87292   0.67988   0.00000  Uiso   1.00
O1625  O     0.03958   0.77322   0.75000   0.00000  Uiso   1.00
O1626  O     0.29375   0.89345   0.75000   0.00000  Uiso   1.00
O1627  O     0.29372   0.77321   0.75000   0.00000  Uiso   1.00
O1628  O     0.03961   0.89346   0.75000   0.00000  Uiso   1.00
O1629  O     0.01852   0.83334   0.81492   0.00000  Uiso   1.00
O1630  O     0.31481   0.83332   0.68508   0.00000  Uiso   1.00
O1631  O     0.27267   0.83333   0.81492   0.00000  Uiso   1.00
O1632  O     0.06067   0.83333   0.68508   0.00000  Uiso   1.00
C1633  C     0.33375   0.75414   0.74890   0.00000  Uiso   1.00
C1634  C     0.36664   0.68812   0.76734   0.00000  Uiso   1.00
C1635  C     0.66577   0.95715   0.75313   0.00000  Uiso   1.00
C1636  C     0.33399   0.70948   0.74803   0.00000  Uiso   1.00
C1637  C     0.51647   0.81314   0.78319   0.00000  Uiso   1.00
C1638  C     0.48372   0.85359   0.71690   0.00000  Uiso   1.00
C1639  C     0.46654   0.81282   0.78384   0.00000  Uiso   1.00
C1640  C     0.53324   0.85399   0.71680   0.00000  Uiso   1.00
C1641  C     0.63958   0.83343   0.83632   0.00000  Uiso   1.00
C1642  C     0.36051   0.83440   0.66370   0.00000  Uiso   1.00
C1643  C     0.62481   0.83283   0.88611   0.00000  Uiso   1.00
C1644  C     0.66617   0.91250   0.75149   0.00000  Uiso   1.00
C1645  C     0.37615   0.84114   0.61439   0.00000  Uiso   1.00
C1646  C     0.64145   0.81635   0.95842   0.00000  Uiso   1.00
C1647  C     0.36529   0.87531   0.54621   0.00000  Uiso   1.00
C1648  C     0.65729   0.82192   0.91144   0.00000  Uiso   1.00
C1649  C     0.34702   0.86247   0.59125   0.00000  Uiso   1.00
C1650  C     0.57671   0.84121   0.90824   0.00000  Uiso   1.00
C1651  C     0.42398   0.83197   0.59194   0.00000  Uiso   1.00
C1652  C     0.56008   0.83900   0.95567   0.00000  Uiso   1.00
C1653  C     0.44441   0.84593   0.54732   0.00000  Uiso   1.00
C1654  C     0.59271   0.82506   0.98082   0.00000  Uiso   1.00
C1655  C     0.52797   0.82702   0.54965   0.00000  Uiso   1.00
C1656  C     0.41390   0.86647   0.52379   0.00000  Uiso   1.00
C1657  C     0.51144   0.84897   0.97849   0.00000  Uiso   1.00
C1658  C     0.49430   0.83995   0.52554   0.00000  Uiso   1.00
C1659  C     0.33844   0.75740   0.99221   0.00000  Uiso   1.00
C1660  C     0.34023   0.94256   0.52576   0.00000  Uiso   1.00
C1661  C     0.59967   0.70869   0.70808   0.00000  Uiso   1.00
C1662  C     0.54974   0.70717   0.72791   0.00000  Uiso   1.00
C1663  C     0.51775   0.72860   0.70786   0.00000  Uiso   1.00
C1664  C     0.53538   0.75153   0.66788   0.00000  Uiso   1.00
C1665  C     0.58501   0.75291   0.64776   0.00000  Uiso   1.00
C1666  C     0.47983   0.86883   0.95605   0.00000  Uiso   1.00
C1667  C     0.61711   0.73148   0.66764   0.00000  Uiso   1.00
C1668  C     0.40004   0.95777   0.79328   0.00000  Uiso   1.00
C1669  C     0.38280   0.93234   0.83180   0.00000  Uiso   1.00
C1670  C     0.41520   0.91051   0.85099   0.00000  Uiso   1.00
C1671  C     0.46489   0.91446   0.83240   0.00000  Uiso   1.00
C1672  C     0.48230   0.94050   0.79490   0.00000  Uiso   1.00
C1673  C     0.45007   0.96201   0.77525   0.00000  Uiso   1.00
C1674  C     0.44796   0.77353   0.85741   0.00000  Uiso   1.00
C1675  C     0.55640   0.91508   0.66875   0.00000  Uiso   1.00
C1676  C     0.57619   0.82049   0.52781   0.00000  Uiso   1.00
C1677  C     0.43244   0.87786   0.97838   0.00000  Uiso   1.00
C1678  C     0.63369   0.68788   0.73074   0.00000  Uiso   1.00
C1679  C     0.36595   0.97871   0.77070   0.00000  Uiso   1.00
C1680  C     0.63309   0.97857   0.73402   0.00000  Uiso   1.00
Cu1681 Cu    0.38022   0.83334   0.75000   0.00000  Uiso   1.00
Cu1682 Cu    0.61978   0.83333   0.75000   0.00000  Uiso   1.00
H1683  H     0.60056   0.81174   0.54819   0.00000  Uiso   1.00
H1684  H     0.39182   0.70477   0.78128   0.00000  Uiso   1.00
H1685  H     0.52967   0.79674   0.80866   0.00000  Uiso   1.00
H1686  H     0.47180   0.86921   0.69011   0.00000  Uiso   1.00
H1687  H     0.37641   0.81022   0.96823   0.00000  Uiso   1.00
H1688  H     0.34908   0.74012   0.96019   0.00000  Uiso   1.00
H1689  H     0.63464   0.74846   0.51104   0.00000  Uiso   1.00
H1690  H     0.36335   0.74879   0.51335   0.00000  Uiso   1.00
H1691  H     0.63254   0.88984   0.53449   0.00000  Uiso   1.00
H1692  H     0.65090   0.95810   0.50579   0.00000  Uiso   1.00
H1693  H     0.37835   0.95171   0.51100   0.00000  Uiso   1.00
H1694  H     0.41010   0.89339   0.95943   0.00000  Uiso   1.00
H1695  H     0.66167   0.95301   0.56126   0.00000  Uiso   1.00
H1696  H     0.53578   0.69020   0.75937   0.00000  Uiso   1.00
H1697  H     0.47933   0.72778   0.72357   0.00000  Uiso   1.00
H1698  H     0.51060   0.76838   0.65263   0.00000  Uiso   1.00
H1699  H     0.59867   0.77082   0.61695   0.00000  Uiso   1.00
H1700  H     0.65553   0.73315   0.65201   0.00000  Uiso   1.00
H1701  H     0.34436   0.92872   0.84624   0.00000  Uiso   1.00
H1702  H     0.40177   0.89026   0.87999   0.00000  Uiso   1.00
H1703  H     0.48999   0.89719   0.84678   0.00000  Uiso   1.00
H1704  H     0.52082   0.94360   0.78081   0.00000  Uiso   1.00
H1705  H     0.44470   0.81385   0.61029   0.00000  Uiso   1.00
H1706  H     0.46399   0.98121   0.74543   0.00000  Uiso   1.00
H1707  H     0.41008   0.77191   0.80837   0.00000  Uiso   1.00
H1708  H     0.41638   0.76003   0.88236   0.00000  Uiso   1.00
H1709  H     0.46323   0.79791   0.87444   0.00000  Uiso   1.00
H1710  H     0.47466   0.74834   0.84623   0.00000  Uiso   1.00
H1711  H     0.57335   0.85449   0.65198   0.00000  Uiso   1.00
H1712  H     0.52908   0.91593   0.64878   0.00000  Uiso   1.00
H1713  H     0.58991   0.92970   0.64802   0.00000  Uiso   1.00
H1714  H     0.54285   0.93318   0.69981   0.00000  Uiso   1.00
H1715  H     0.55236   0.84809   0.88750   0.00000  Uiso   1.00
H1716  H     0.64427   0.87147   0.60863   0.00000  Uiso   1.00
H1717  H     0.36124   0.81578   0.89458   0.00000  Uiso   1.00
H1718  H     0.51860   0.82345   0.58597   0.00000  Uiso   1.00
H1719  H     0.49125   0.87963   0.92149   0.00000  Uiso   1.00
H1720  H     0.60809   0.96197   0.72000   0.00000  Uiso   1.00
N1721  N     0.45069   0.83334   0.74999   0.00000  Uiso   1.00
N1722  N     0.54931   0.83332   0.75001   0.00000  Uiso   1.00
N1723  N     0.34131   0.80131   0.98262   0.00000  Uiso   1.00
N1724  N     0.33497   0.89836   0.52427   0.00000  Uiso   1.00
N1725  N     0.43282   0.79095   0.81918   0.00000  Uiso   1.00
N1726  N     0.56688   0.87292   0.67988   0.00000  Uiso   1.00
O1727  O     0.37291   0.77322   0.75000   0.00000  Uiso   1.00
O1728  O     0.62709   0.89345   0.75000   0.00000  Uiso   1.00
O1729  O     0.62706   0.77321   0.75000   0.00000  Uiso   1.00
O1730  O     0.37294   0.89346   0.75000   0.00000  Uiso   1.00
O1731  O     0.35186   0.83334   0.81492   0.00000  Uiso   1.00
O1732  O     0.64814   0.83332   0.68508   0.00000  Uiso   1.00
O1733  O     0.60600   0.83333   0.81492   0.00000  Uiso   1.00
O1734  O     0.39400   0.83333   0.68508   0.00000  Uiso   1.00
C1735  C     0.66708   0.75414   0.74890   0.00000  Uiso   1.00
C1736  C     0.69998   0.68812   0.76734   0.00000  Uiso   1.00
C1737  C     0.99911   0.95715   0.75313   0.00000  Uiso   1.00
C1738  C     0.66732   0.70948   0.74803   0.00000  Uiso   1.00
C1739  C     0.84980   0.81314   0.78319   0.00000  Uiso   1.00
C1740  C     0.81705   0.85359   0.71690   0.00000  Uiso   1.00
C1741  C     0.79987   0.81282   0.78384   0.00000  Uiso   1.00
C1742  C     0.86658   0.85399   0.71680   0.00000  Uiso   1.00
C1743  C     0.97291   0.83343   0.83632   0.00000  Uiso   1.00
C1744  C     0.69385   0.83440   0.66370   0.00000  Uiso   1.00
C1745  C     0.95814   0.83283   0.88611   0.00000  Uiso   1.00
C1746  C     0.99951   0.91250   0.75149   0.00000  Uiso   1.00
C1747  C     0.70948   0.84114   0.61439   0.00000  Uiso   1.00
C1748  C     0.97478   0.81635   0.95842   0.00000  Uiso   1.00
C1749  C     0.69862   0.87531   0.54621   0.00000  Uiso   1.00
C1750  C     0.99063   0.82192   0.91144   0.00000  Uiso   1.00
C1751  C     0.68035   0.86247   0.59125   0.00000  Uiso   1.00
C1752  C     0.91004   0.84121   0.90824   0.00000  Uiso   1.00
C1753  C     0.75731   0.83197   0.59194   0.00000  Uiso   1.00
C1754  C     0.89341   0.83900   0.95567   0.00000  Uiso   1.00
C1755  C     0.77774   0.84593   0.54732   0.00000  Uiso   1.00
C1756  C     0.92604   0.82506   0.98082   0.00000  Uiso   1.00
C1757  C     0.86130   0.82702   0.54965   0.00000  Uiso   1.00
C1758  C     0.74723   0.86647   0.52379   0.00000  Uiso   1.00
C1759  C     0.84477   0.84897   0.97849   0.00000  Uiso   1.00
C1760  C     0.82763   0.83995   0.52554   0.00000  Uiso   1.00
C1761  C     0.67177   0.75740   0.99221   0.00000  Uiso   1.00
C1762  C     0.67356   0.94256   0.52576   0.00000  Uiso   1.00
C1763  C     0.93301   0.70869   0.70808   0.00000  Uiso   1.00
C1764  C     0.88307   0.70717   0.72791   0.00000  Uiso   1.00
C1765  C     0.85108   0.72860   0.70786   0.00000  Uiso   1.00
C1766  C     0.86871   0.75153   0.66788   0.00000  Uiso   1.00
C1767  C     0.91834   0.75291   0.64776   0.00000  Uiso   1.00
C1768  C     0.81316   0.86883   0.95605   0.00000  Uiso   1.00
C1769  C     0.95045   0.73148   0.66764   0.00000  Uiso   1.00
C1770  C     0.73337   0.95777   0.79328   0.00000  Uiso   1.00
C1771  C     0.71613   0.93234   0.83180   0.00000  Uiso   1.00
C1772  C     0.74853   0.91051   0.85099   0.00000  Uiso   1.00
C1773  C     0.79822   0.91446   0.83240   0.00000  Uiso   1.00
C1774  C     0.81564   0.94050   0.79490   0.00000  Uiso   1.00
C1775  C     0.78340   0.96201   0.77525   0.00000  Uiso   1.00
C1776  C     0.78129   0.77353   0.85741   0.00000  Uiso   1.00
C1777  C     0.88974   0.91508   0.66875   0.00000  Uiso   1.00
C1778  C     0.90952   0.82049   0.52781   0.00000  Uiso   1.00
C1779  C     0.76578   0.87786   0.97838   0.00000  Uiso   1.00
C1780  C     0.96702   0.68788   0.73074   0.00000  Uiso   1.00
C1781  C     0.69928   0.97871   0.77070   0.00000  Uiso   1.00
C1782  C     0.96642   0.97857   0.73402   0.00000  Uiso   1.00
Cu1783 Cu    0.71355   0.83334   0.75000   0.00000  Uiso   1.00
Cu1784 Cu    0.95311   0.83333   0.75000   0.00000  Uiso   1.00
H1785  H     0.93390   0.81174   0.54819   0.00000  Uiso   1.00
H1786  H     0.72515   0.70477   0.78128   0.00000  Uiso   1.00
H1787  H     0.86301   0.79674   0.80866   0.00000  Uiso   1.00
H1788  H     0.80513   0.86921   0.69011   0.00000  Uiso   1.00
H1789  H     0.70975   0.81022   0.96823   0.00000  Uiso   1.00
H1790  H     0.68241   0.74012   0.96019   0.00000  Uiso   1.00
H1791  H     0.96797   0.74846   0.51104   0.00000  Uiso   1.00
H1792  H     0.69668   0.74879   0.51335   0.00000  Uiso   1.00
H1793  H     0.96587   0.88984   0.53449   0.00000  Uiso   1.00
H1794  H     0.98423   0.95810   0.50579   0.00000  Uiso   1.00
H1795  H     0.71168   0.95171   0.51100   0.00000  Uiso   1.00
H1796  H     0.74343   0.89339   0.95943   0.00000  Uiso   1.00
H1797  H     0.99500   0.95301   0.56126   0.00000  Uiso   1.00
H1798  H     0.86911   0.69020   0.75937   0.00000  Uiso   1.00
H1799  H     0.81267   0.72778   0.72357   0.00000  Uiso   1.00
H1800  H     0.84393   0.76838   0.65263   0.00000  Uiso   1.00
H1801  H     0.93200   0.77082   0.61695   0.00000  Uiso   1.00
H1802  H     0.98886   0.73315   0.65201   0.00000  Uiso   1.00
H1803  H     0.67769   0.92872   0.84624   0.00000  Uiso   1.00
H1804  H     0.73511   0.89026   0.87999   0.00000  Uiso   1.00
H1805  H     0.82333   0.89719   0.84678   0.00000  Uiso   1.00
H1806  H     0.85415   0.94360   0.78081   0.00000  Uiso   1.00
H1807  H     0.77803   0.81385   0.61029   0.00000  Uiso   1.00
H1808  H     0.79732   0.98121   0.74543   0.00000  Uiso   1.00
H1809  H     0.74341   0.77191   0.80837   0.00000  Uiso   1.00
H1810  H     0.74971   0.76003   0.88236   0.00000  Uiso   1.00
H1811  H     0.79656   0.79791   0.87444   0.00000  Uiso   1.00
H1812  H     0.80799   0.74834   0.84623   0.00000  Uiso   1.00
H1813  H     0.90668   0.85449   0.65198   0.00000  Uiso   1.00
H1814  H     0.86242   0.91593   0.64878   0.00000  Uiso   1.00
H1815  H     0.92324   0.92970   0.64802   0.00000  Uiso   1.00
H1816  H     0.87618   0.93318   0.69981   0.00000  Uiso   1.00
H1817  H     0.88570   0.84809   0.88750   0.00000  Uiso   1.00
H1818  H     0.97761   0.87147   0.60863   0.00000  Uiso   1.00
H1819  H     0.69458   0.81578   0.89458   0.00000  Uiso   1.00
H1820  H     0.85193   0.82345   0.58597   0.00000  Uiso   1.00
H1821  H     0.82459   0.87963   0.92149   0.00000  Uiso   1.00
H1822  H     0.94142   0.96197   0.72000   0.00000  Uiso   1.00
N1823  N     0.78403   0.83334   0.74999   0.00000  Uiso   1.00
N1824  N     0.88264   0.83332   0.75001   0.00000  Uiso   1.00
N1825  N     0.67464   0.80131   0.98262   0.00000  Uiso   1.00
N1826  N     0.66830   0.89836   0.52427   0.00000  Uiso   1.00
N1827  N     0.76615   0.79095   0.81918   0.00000  Uiso   1.00
N1828  N     0.90022   0.87292   0.67988   0.00000  Uiso   1.00
O1829  O     0.70625   0.77322   0.75000   0.00000  Uiso   1.00
O1830  O     0.96042   0.89345   0.75000   0.00000  Uiso   1.00
O1831  O     0.96039   0.77321   0.75000   0.00000  Uiso   1.00
O1832  O     0.70628   0.89346   0.75000   0.00000  Uiso   1.00
O1833  O     0.68519   0.83334   0.81492   0.00000  Uiso   1.00
O1834  O     0.98148   0.83332   0.68508   0.00000  Uiso   1.00
O1835  O     0.93933   0.83333   0.81492   0.00000  Uiso   1.00
O1836  O     0.72733   0.83333   0.68508   0.00000  Uiso   1.00
loop_
_geom_bond_atom_site_label_1
_geom_bond_atom_site_label_2
_geom_bond_distance
_geom_bond_site_symmetry_2
_ccdc_geom_bond_type
C1     O95     1.297   .     A
C1     C4      1.450   .     S
C1     O301    1.290   1_455 S
C2     C4      1.399   .     A
C2     H52     1.084   .     S
C2     C659    1.388   1_545 S
C3     C48     1.397   .     A
C3     C12     1.451   .     S
C3     C149    1.416   .     S
C4     C250    1.414   1_455 S
C5     H53     1.078   .     S
C5     N90     1.355   .     A
C5     C7      1.427   .     A
C6     H54     1.080   .     S
C6     C8      1.420   .     A
C6     N89     1.357   .     A
C7     N89     1.388   .     A
C7     N93     1.431   .     S
C8     N94     1.416   .     S
C8     N90     1.378   .     A
C9     C11     1.473   .     S
C9     O101    1.297   .     A
C9     O201    1.303   .     S
C10    O102    1.294   .     A
C10    C13     1.472   .     S
C10    O304    1.306   1_455 S
C11    C18     1.397   .     A
C11    C16     1.395   .     A
C12    O96     1.298   .     A
C12    O200    1.290   .     S
C13    C19     1.398   .     A
C13    C17     1.395   .     A
C14    C16     1.400   .     A
C14    C22     1.417   .     A
C14    N193    1.425   .     S
C15    N92     1.425   .     S
C15    C17     1.398   .     A
C15    C24     1.415   .     A
C16    H187    1.079   .     S
C17    H288    1.074   1_455 S
C18    H83     1.077   .     S
C18    C20     1.407   .     A
C19    C21     1.407   .     A
C19    H73     1.078   .     S
C20    C25     1.426   .     A
C20    C22     1.421   .     A
C21    C26     1.427   .     A
C21    C24     1.420   .     A
C22    C962    1.398   .     S
C23    C26     1.413   .     A
C23    H86     1.078   .     S
C23    C44     1.388   .     A
C24    C963    1.397   1_554 S
C25    C34     1.413   .     A
C25    C944    1.421   .     S
C26    C943    1.421   1_554 S
C27    N91     1.447   .     S
C27    H56     1.112   .     S
C27    H1179   1.110   1_455 S
C27    H976    1.110   .     S
C28    H61     1.111   .     S
C28    N92     1.447   .     S
C28    H264    1.110   1_455 S
C28    H267    1.112   1_455 S
C29    C30     1.405   .     A
C29    C35     1.405   .     A
C29    C46     1.483   .     S
C30    H64     1.083   .     S
C30    C31     1.399   .     A
C31    H65     1.083   .     S
C31    C32     1.398   .     A
C32    H66     1.082   .     S
C32    C33     1.398   .     A
C33    H67     1.081   .     S
C33    C35     1.398   .     A
C34    H87     1.075   .     S
C34    C45     1.386   .     A
C35    H68     1.083   .     S
C36    C37     1.407   .     A
C36    C47     1.485   .     S
C36    C41     1.405   .     A
C37    H69     1.083   .     S
C37    C38     1.399   .     A
C38    H70     1.082   .     S
C38    C39     1.398   .     A
C39    C40     1.396   .     A
C39    H71     1.081   .     S
C40    C41     1.398   .     A
C40    H72     1.082   .     S
C41    H74     1.082   .     S
C42    N93     1.450   .     S
C42    H77     1.111   .     S
C42    H78     1.111   .     S
C42    H76     1.110   .     S
C43    N94     1.449   .     S
C43    H81     1.110   .     S
C43    H80     1.111   .     S
C43    H82     1.109   .     S
C44    H51     1.082   .     S
C44    C940    1.398   1_554 S
C45    H62     1.083   .     S
C45    C942    1.397   .     S
C46    C106    1.414   .     S
C46    C660    1.385   1_545 S
C47    C308    1.388   .     S
C47    C207    1.416   1_455 S
C48    H88     1.081   .     S
C48    C352    1.385   .     S
Cu49   O98     1.959   .     S
Cu49   O99     1.943   .     S
Cu49   O95     1.965   .     S
Cu49   O102    1.924   .     S
Cu49   N89     2.021   .     S
Cu49   Cu254   2.689   1_455 S
Cu50   O96     1.965   .     S
Cu50   N90     2.021   .     S
Cu50   O97     1.959   .     S
Cu50   O100    1.943   .     S
Cu50   O101    1.924   .     S
Cu50   Cu151   2.689   .     S
H55    N91     1.031   .     S
H57    C1047   1.110   1_554 S
H58    C945    1.110   1_554 S
H59    N194    1.031   .     S
H60    C130    1.110   .     S
H63    C130    1.112   .     S
H75    N93     1.024   .     S
H79    N94     1.030   .     S
H84    C119    1.074   .     S
H85    C220    1.079   1_455 S
N91    C218    1.425   1_455 S
N92    H263    1.031   1_455 S
O97    C103    1.290   .     S
O98    C216    1.290   1_455 S
O99    C213    1.303   1_455 S
O100   C112    1.306   .     S
C103   O197    1.297   .     A
C103   C106    1.450   .     S
C104   C106    1.399   .     A
C104   H154    1.084   .     S
C104   C761    1.388   1_545 S
C105   C150    1.397   .     A
C105   C114    1.451   .     S
C105   C251    1.416   .     S
C107   H155    1.078   .     S
C107   N192    1.355   .     A
C107   C109    1.427   .     A
C108   H156    1.080   .     S
C108   C110    1.420   .     A
C108   N191    1.357   .     A
C109   N191    1.388   .     A
C109   N195    1.431   .     S
C110   N196    1.416   .     S
C110   N192    1.378   .     A
C111   C113    1.473   .     S
C111   O203    1.297   .     A
C111   O303    1.303   .     S
C112   O204    1.294   .     A
C112   C115    1.472   .     S
C113   C120    1.397   .     A
C113   C118    1.395   .     A
C114   O198    1.298   .     A
C114   O302    1.290   .     S
C115   C121    1.398   .     A
C115   C119    1.395   .     A
C116   C118    1.400   .     A
C116   C124    1.417   .     A
C116   N295    1.425   .     S
C117   N194    1.425   .     S
C117   C119    1.398   .     A
C117   C126    1.415   .     A
C118   H289    1.079   .     S
C120   H185    1.077   .     S
C120   C122    1.407   .     A
C121   C123    1.407   .     A
C121   H175    1.078   .     S
C122   C127    1.426   .     A
C122   C124    1.421   .     A
C123   C128    1.427   .     A
C123   C126    1.420   .     A
C124   C1064   1.398   .     S
C125   C128    1.413   .     A
C125   H188    1.078   .     S
C125   C146    1.388   .     A
C126   C1065   1.397   1_554 S
C127   C136    1.413   .     A
C127   C1046   1.421   .     S
C128   C1045   1.421   1_554 S
C129   N193    1.447   .     S
C129   H158    1.112   .     S
C129   H975    1.110   .     S
C129   H1078   1.110   .     S
C130   H163    1.111   .     S
C130   N194    1.447   .     S
C131   C132    1.405   .     A
C131   C137    1.405   .     A
C131   C148    1.483   .     S
C132   H166    1.083   .     S
C132   C133    1.399   .     A
C133   H167    1.083   .     S
C133   C134    1.398   .     A
C134   H168    1.082   .     S
C134   C135    1.398   .     A
C135   H169    1.081   .     S
C135   C137    1.398   .     A
C136   H189    1.075   .     S
C136   C147    1.386   .     A
C137   H170    1.083   .     S
C138   C139    1.407   .     A
C138   C149    1.485   .     S
C138   C143    1.405   .     A
C139   H171    1.083   .     S
C139   C140    1.399   .     A
C140   H172    1.082   .     S
C140   C141    1.398   .     A
C141   C142    1.396   .     A
C141   H173    1.081   .     S
C142   C143    1.398   .     A
C142   H174    1.082   .     S
C143   H176    1.082   .     S
C144   N195    1.450   .     S
C144   H179    1.111   .     S
C144   H180    1.111   .     S
C144   H178    1.110   .     S
C145   N196    1.449   .     S
C145   H183    1.110   .     S
C145   H182    1.111   .     S
C145   H184    1.109   .     S
C146   H153    1.082   .     S
C146   C1042   1.398   1_554 S
C147   H164    1.083   .     S
C147   C1044   1.397   .     S
C148   C208    1.414   .     S
C148   C762    1.385   1_545 S
C149   C410    1.388   .     S
C150   H190    1.081   .     S
C150   C454    1.385   .     S
Cu151  O200    1.959   .     S
Cu151  O201    1.943   .     S
Cu151  O197    1.965   .     S
Cu151  O204    1.924   .     S
Cu151  N191    2.021   .     S
Cu152  O198    1.965   .     S
Cu152  N192    2.021   .     S
Cu152  O199    1.959   .     S
Cu152  O202    1.943   .     S
Cu152  O203    1.924   .     S
Cu152  Cu253   2.689   .     S
H157   N193    1.031   .     S
H159   C1149   1.110   1_554 S
H160   C1047   1.110   1_554 S
H161   N296    1.031   .     S
H162   C232    1.110   .     S
H165   C232    1.112   .     S
H177   N195    1.024   .     S
H181   N196    1.030   .     S
H186   C221    1.074   .     S
O199   C205    1.290   .     S
O202   C214    1.306   .     S
C205   O299    1.297   .     A
C205   C208    1.450   .     S
C206   C208    1.399   .     A
C206   H256    1.084   .     S
C206   C863    1.388   1_545 S
C207   C252    1.397   .     A
C207   C216    1.451   .     S
C207   C47     1.416   1_655 S
C209   H257    1.078   .     S
C209   N294    1.355   .     A
C209   C211    1.427   .     A
C210   H258    1.080   .     S
C210   C212    1.420   .     A
C210   N293    1.357   .     A
C211   N293    1.388   .     A
C211   N297    1.431   .     S
C212   N298    1.416   .     S
C212   N294    1.378   .     A
C213   C215    1.473   .     S
C213   O305    1.297   .     A
C213   O99     1.303   1_655 S
C214   O306    1.294   .     A
C214   C217    1.472   .     S
C215   C222    1.397   .     A
C215   C220    1.395   .     A
C216   O300    1.298   .     A
C216   O98     1.290   1_655 S
C217   C223    1.398   .     A
C217   C221    1.395   .     A
C218   C220    1.400   .     A
C218   C226    1.417   .     A
C218   N91     1.425   1_655 S
C219   N296    1.425   .     S
C219   C221    1.398   .     A
C219   C228    1.415   .     A
C220   H85     1.079   1_655 S
C222   H287    1.077   .     S
C222   C224    1.407   .     A
C223   C225    1.407   .     A
C223   H277    1.078   .     S
C224   C229    1.426   .     A
C224   C226    1.421   .     A
C225   C230    1.427   .     A
C225   C228    1.420   .     A
C226   C1166   1.398   .     S
C227   C230    1.413   .     A
C227   H290    1.078   .     S
C227   C248    1.388   .     A
C228   C1167   1.397   1_554 S
C229   C238    1.413   .     A
C229   C1148   1.421   .     S
C230   C1147   1.421   1_554 S
C231   N295    1.447   .     S
C231   H260    1.112   .     S
C231   H1077   1.110   .     S
C231   H1180   1.110   .     S
C232   H265    1.111   .     S
C232   N296    1.447   .     S
C233   C234    1.405   .     A
C233   C239    1.405   .     A
C233   C250    1.483   .     S
C234   H268    1.083   .     S
C234   C235    1.399   .     A
C235   H269    1.083   .     S
C235   C236    1.398   .     A
C236   H270    1.082   .     S
C236   C237    1.398   .     A
C237   H271    1.081   .     S
C237   C239    1.398   .     A
C238   H291    1.075   .     S
C238   C249    1.386   .     A
C239   H272    1.083   .     S
C240   C241    1.407   .     A
C240   C251    1.485   .     S
C240   C245    1.405   .     A
C241   H273    1.083   .     S
C241   C242    1.399   .     A
C242   H274    1.082   .     S
C242   C243    1.398   .     A
C243   C244    1.396   .     A
C243   H275    1.081   .     S
C244   C245    1.398   .     A
C244   H276    1.082   .     S
C245   H278    1.082   .     S
C246   N297    1.450   .     S
C246   H281    1.111   .     S
C246   H282    1.111   .     S
C246   H280    1.110   .     S
C247   N298    1.449   .     S
C247   H285    1.110   .     S
C247   H284    1.111   .     S
C247   H286    1.109   .     S
C248   H255    1.082   .     S
C248   C1144   1.398   1_554 S
C249   H266    1.083   .     S
C249   C1146   1.397   .     S
C250   C4      1.414   1_655 S
C250   C864    1.385   1_545 S
C251   C512    1.388   .     S
C252   H292    1.081   .     S
C252   C556    1.385   .     S
Cu253  O302    1.959   .     S
Cu253  O303    1.943   .     S
Cu253  O299    1.965   .     S
Cu253  O306    1.924   .     S
Cu253  N293    2.021   .     S
Cu254  O300    1.965   .     S
Cu254  N294    2.021   .     S
Cu254  O301    1.959   .     S
Cu254  O304    1.943   .     S
Cu254  O305    1.924   .     S
Cu254  Cu49    2.689   1_655 S
H259   N295    1.031   .     S
H261   C945    1.110   1_654 S
H262   C1149   1.110   1_554 S
H263   N92     1.031   1_655 S
H264   C28     1.110   1_655 S
H267   C28     1.112   1_655 S
H279   N297    1.024   .     S
H283   N298    1.030   .     S
H288   C17     1.074   1_655 S
O301   C1      1.290   1_655 S
O304   C10     1.306   1_655 S
C307   O401    1.297   .     A
C307   C310    1.450   .     S
C307   O607    1.290   1_455 S
C308   C310    1.399   .     A
C308   H358    1.084   .     S
C309   C354    1.397   .     A
C309   C318    1.451   .     S
C309   C455    1.416   .     S
C310   C556    1.414   1_455 S
C311   H359    1.078   .     S
C311   N396    1.355   .     A
C311   C313    1.427   .     A
C312   H360    1.080   .     S
C312   C314    1.420   .     A
C312   N395    1.357   .     A
C313   N395    1.388   .     A
C313   N399    1.431   .     S
C314   N400    1.416   .     S
C314   N396    1.378   .     A
C315   C317    1.473   .     S
C315   O407    1.297   .     A
C315   O507    1.303   .     S
C316   O408    1.294   .     A
C316   C319    1.472   .     S
C316   O610    1.306   1_455 S
C317   C324    1.397   .     A
C317   C322    1.395   .     A
C318   O402    1.298   .     A
C318   O506    1.290   .     S
C319   C325    1.398   .     A
C319   C323    1.395   .     A
C320   C322    1.400   .     A
C320   C328    1.417   .     A
C320   N499    1.425   .     S
C321   N398    1.425   .     S
C321   C323    1.398   .     A
C321   C330    1.415   .     A
C322   H493    1.079   .     S
C323   H594    1.074   1_455 S
C324   H389    1.077   .     S
C324   C326    1.407   .     A
C325   C327    1.407   .     A
C325   H379    1.078   .     S
C326   C331    1.426   .     A
C326   C328    1.421   .     A
C327   C332    1.427   .     A
C327   C330    1.420   .     A
C328   C1268   1.398   .     S
C329   C332    1.413   .     A
C329   H392    1.078   .     S
C329   C350    1.388   .     A
C330   C1269   1.397   1_554 S
C331   C340    1.413   .     A
C331   C1250   1.421   .     S
C332   C1249   1.421   1_554 S
C333   N397    1.447   .     S
C333   H362    1.112   .     S
C333   H1485   1.110   1_455 S
C333   H1282   1.110   .     S
C334   H367    1.111   .     S
C334   N398    1.447   .     S
C334   H570    1.110   1_455 S
C334   H573    1.112   1_455 S
C335   C336    1.405   .     A
C335   C341    1.405   .     A
C335   C352    1.483   .     S
C336   H370    1.083   .     S
C336   C337    1.399   .     A
C337   H371    1.083   .     S
C337   C338    1.398   .     A
C338   H372    1.082   .     S
C338   C339    1.398   .     A
C339   H373    1.081   .     S
C339   C341    1.398   .     A
C340   H393    1.075   .     S
C340   C351    1.386   .     A
C341   H374    1.083   .     S
C342   C343    1.407   .     A
C342   C353    1.485   .     S
C342   C347    1.405   .     A
C343   H375    1.083   .     S
C343   C344    1.399   .     A
C344   H376    1.082   .     S
C344   C345    1.398   .     A
C345   C346    1.396   .     A
C345   H377    1.081   .     S
C346   C347    1.398   .     A
C346   H378    1.082   .     S
C347   H380    1.082   .     S
C348   N399    1.450   .     S
C348   H383    1.111   .     S
C348   H384    1.111   .     S
C348   H382    1.110   .     S
C349   N400    1.449   .     S
C349   H387    1.110   .     S
C349   H386    1.111   .     S
C349   H388    1.109   .     S
C350   H357    1.082   .     S
C350   C1246   1.398   1_554 S
C351   H368    1.083   .     S
C351   C1248   1.397   .     S
C352   C412    1.414   .     S
C353   C614    1.388   .     S
C353   C513    1.416   1_455 S
C354   H394    1.081   .     S
C354   C658    1.385   .     S
Cu355  O404    1.959   .     S
Cu355  O405    1.943   .     S
Cu355  O401    1.965   .     S
Cu355  O408    1.924   .     S
Cu355  N395    2.021   .     S
Cu355  Cu560   2.689   1_455 S
Cu356  O402    1.965   .     S
Cu356  N396    2.021   .     S
Cu356  O403    1.959   .     S
Cu356  O406    1.943   .     S
Cu356  O407    1.924   .     S
Cu356  Cu457   2.689   .     S
H361   N397    1.031   .     S
H363   C1353   1.110   1_554 S
H364   C1251   1.110   1_554 S
H365   N500    1.031   .     S
H366   C436    1.110   .     S
H369   C436    1.112   .     S
H381   N399    1.024   .     S
H385   N400    1.030   .     S
H390   C425    1.074   .     S
H391   C526    1.079   1_455 S
N397   C524    1.425   1_455 S
N398   H569    1.031   1_455 S
O403   C409    1.290   .     S
O404   C522    1.290   1_455 S
O405   C519    1.303   1_455 S
O406   C418    1.306   .     S
C409   O503    1.297   .     A
C409   C412    1.450   .     S
C410   C412    1.399   .     A
C410   H460    1.084   .     S
C411   C456    1.397   .     A
C411   C420    1.451   .     S
C411   C557    1.416   .     S
C413   H461    1.078   .     S
C413   N498    1.355   .     A
C413   C415    1.427   .     A
C414   H462    1.080   .     S
C414   C416    1.420   .     A
C414   N497    1.357   .     A
C415   N497    1.388   .     A
C415   N501    1.431   .     S
C416   N502    1.416   .     S
C416   N498    1.378   .     A
C417   C419    1.473   .     S
C417   O509    1.297   .     A
C417   O609    1.303   .     S
C418   O510    1.294   .     A
C418   C421    1.472   .     S
C419   C426    1.397   .     A
C419   C424    1.395   .     A
C420   O504    1.298   .     A
C420   O608    1.290   .     S
C421   C427    1.398   .     A
C421   C425    1.395   .     A
C422   C424    1.400   .     A
C422   C430    1.417   .     A
C422   N601    1.425   .     S
C423   N500    1.425   .     S
C423   C425    1.398   .     A
C423   C432    1.415   .     A
C424   H595    1.079   .     S
C426   H491    1.077   .     S
C426   C428    1.407   .     A
C427   C429    1.407   .     A
C427   H481    1.078   .     S
C428   C433    1.426   .     A
C428   C430    1.421   .     A
C429   C434    1.427   .     A
C429   C432    1.420   .     A
C430   C1370   1.398   .     S
C431   C434    1.413   .     A
C431   H494    1.078   .     S
C431   C452    1.388   .     A
C432   C1371   1.397   1_554 S
C433   C442    1.413   .     A
C433   C1352   1.421   .     S
C434   C1351   1.421   1_554 S
C435   N499    1.447   .     S
C435   H464    1.112   .     S
C435   H1281   1.110   .     S
C435   H1384   1.110   .     S
C436   H469    1.111   .     S
C436   N500    1.447   .     S
C437   C438    1.405   .     A
C437   C443    1.405   .     A
C437   C454    1.483   .     S
C438   H472    1.083   .     S
C438   C439    1.399   .     A
C439   H473    1.083   .     S
C439   C440    1.398   .     A
C440   H474    1.082   .     S
C440   C441    1.398   .     A
C441   H475    1.081   .     S
C441   C443    1.398   .     A
C442   H495    1.075   .     S
C442   C453    1.386   .     A
C443   H476    1.083   .     S
C444   C445    1.407   .     A
C444   C455    1.485   .     S
C444   C449    1.405   .     A
C445   H477    1.083   .     S
C445   C446    1.399   .     A
C446   H478    1.082   .     S
C446   C447    1.398   .     A
C447   C448    1.396   .     A
C447   H479    1.081   .     S
C448   C449    1.398   .     A
C448   H480    1.082   .     S
C449   H482    1.082   .     S
C450   N501    1.450   .     S
C450   H485    1.111   .     S
C450   H486    1.111   .     S
C450   H484    1.110   .     S
C451   N502    1.449   .     S
C451   H489    1.110   .     S
C451   H488    1.111   .     S
C451   H490    1.109   .     S
C452   H459    1.082   .     S
C452   C1348   1.398   1_554 S
C453   H470    1.083   .     S
C453   C1350   1.397   .     S
C454   C514    1.414   .     S
C455   C716    1.388   .     S
C456   H496    1.081   .     S
C456   C760    1.385   .     S
Cu457  O506    1.959   .     S
Cu457  O507    1.943   .     S
Cu457  O503    1.965   .     S
Cu457  O510    1.924   .     S
Cu457  N497    2.021   .     S
Cu458  O504    1.965   .     S
Cu458  N498    2.021   .     S
Cu458  O505    1.959   .     S
Cu458  O508    1.943   .     S
Cu458  O509    1.924   .     S
Cu458  Cu559   2.689   .     S
H463   N499    1.031   .     S
H465   C1455   1.110   1_554 S
H466   C1353   1.110   1_554 S
H467   N602    1.031   .     S
H468   C538    1.110   .     S
H471   C538    1.112   .     S
H483   N501    1.024   .     S
H487   N502    1.030   .     S
H492   C527    1.074   .     S
O505   C511    1.290   .     S
O508   C520    1.306   .     S
C511   O605    1.297   .     A
C511   C514    1.450   .     S
C512   C514    1.399   .     A
C512   H562    1.084   .     S
C513   C558    1.397   .     A
C513   C522    1.451   .     S
C513   C353    1.416   1_655 S
C515   H563    1.078   .     S
C515   N600    1.355   .     A
C515   C517    1.427   .     A
C516   H564    1.080   .     S
C516   C518    1.420   .     A
C516   N599    1.357   .     A
C517   N599    1.388   .     A
C517   N603    1.431   .     S
C518   N604    1.416   .     S
C518   N600    1.378   .     A
C519   C521    1.473   .     S
C519   O611    1.297   .     A
C519   O405    1.303   1_655 S
C520   O612    1.294   .     A
C520   C523    1.472   .     S
C521   C528    1.397   .     A
C521   C526    1.395   .     A
C522   O606    1.298   .     A
C522   O404    1.290   1_655 S
C523   C529    1.398   .     A
C523   C527    1.395   .     A
C524   C526    1.400   .     A
C524   C532    1.417   .     A
C524   N397    1.425   1_655 S
C525   N602    1.425   .     S
C525   C527    1.398   .     A
C525   C534    1.415   .     A
C526   H391    1.079   1_655 S
C528   H593    1.077   .     S
C528   C530    1.407   .     A
C529   C531    1.407   .     A
C529   H583    1.078   .     S
C530   C535    1.426   .     A
C530   C532    1.421   .     A
C531   C536    1.427   .     A
C531   C534    1.420   .     A
C532   C1472   1.398   .     S
C533   C536    1.413   .     A
C533   H596    1.078   .     S
C533   C554    1.388   .     A
C534   C1473   1.397   1_554 S
C535   C544    1.413   .     A
C535   C1454   1.421   .     S
C536   C1453   1.421   1_554 S
C537   N601    1.447   .     S
C537   H566    1.112   .     S
C537   H1383   1.110   .     S
C537   H1486   1.110   .     S
C538   H571    1.111   .     S
C538   N602    1.447   .     S
C539   C540    1.405   .     A
C539   C545    1.405   .     A
C539   C556    1.483   .     S
C540   H574    1.083   .     S
C540   C541    1.399   .     A
C541   H575    1.083   .     S
C541   C542    1.398   .     A
C542   H576    1.082   .     S
C542   C543    1.398   .     A
C543   H577    1.081   .     S
C543   C545    1.398   .     A
C544   H597    1.075   .     S
C544   C555    1.386   .     A
C545   H578    1.083   .     S
C546   C547    1.407   .     A
C546   C557    1.485   .     S
C546   C551    1.405   .     A
C547   H579    1.083   .     S
C547   C548    1.399   .     A
C548   H580    1.082   .     S
C548   C549    1.398   .     A
C549   C550    1.396   .     A
C549   H581    1.081   .     S
C550   C551    1.398   .     A
C550   H582    1.082   .     S
C551   H584    1.082   .     S
C552   N603    1.450   .     S
C552   H587    1.111   .     S
C552   H588    1.111   .     S
C552   H586    1.110   .     S
C553   N604    1.449   .     S
C553   H591    1.110   .     S
C553   H590    1.111   .     S
C553   H592    1.109   .     S
C554   H561    1.082   .     S
C554   C1450   1.398   1_554 S
C555   H572    1.083   .     S
C555   C1452   1.397   .     S
C556   C310    1.414   1_655 S
C557   C818    1.388   .     S
C558   H598    1.081   .     S
C558   C862    1.385   .     S
Cu559  O608    1.959   .     S
Cu559  O609    1.943   .     S
Cu559  O605    1.965   .     S
Cu559  O612    1.924   .     S
Cu559  N599    2.021   .     S
Cu560  O606    1.965   .     S
Cu560  N600    2.021   .     S
Cu560  O607    1.959   .     S
Cu560  O610    1.943   .     S
Cu560  O611    1.924   .     S
Cu560  Cu355   2.689   1_655 S
H565   N601    1.031   .     S
H567   C1251   1.110   1_654 S
H568   C1455   1.110   1_554 S
H569   N398    1.031   1_655 S
H570   C334    1.110   1_655 S
H573   C334    1.112   1_655 S
H585   N603    1.024   .     S
H589   N604    1.030   .     S
H594   C323    1.074   1_655 S
O607   C307    1.290   1_655 S
O610   C316    1.306   1_655 S
C613   O707    1.297   .     A
C613   C616    1.450   .     S
C613   O913    1.290   1_455 S
C614   C616    1.399   .     A
C614   H664    1.084   .     S
C615   C660    1.397   .     A
C615   C624    1.451   .     S
C615   C761    1.416   .     S
C616   C862    1.414   1_455 S
C617   H665    1.078   .     S
C617   N702    1.355   .     A
C617   C619    1.427   .     A
C618   H666    1.080   .     S
C618   C620    1.420   .     A
C618   N701    1.357   .     A
C619   N701    1.388   .     A
C619   N705    1.431   .     S
C620   N706    1.416   .     S
C620   N702    1.378   .     A
C621   C623    1.473   .     S
C621   O713    1.297   .     A
C621   O813    1.303   .     S
C622   O714    1.294   .     A
C622   C625    1.472   .     S
C622   O916    1.306   1_455 S
C623   C630    1.397   .     A
C623   C628    1.395   .     A
C624   O708    1.298   .     A
C624   O812    1.290   .     S
C625   C631    1.398   .     A
C625   C629    1.395   .     A
C626   C628    1.400   .     A
C626   C634    1.417   .     A
C626   N805    1.425   .     S
C627   N704    1.425   .     S
C627   C629    1.398   .     A
C627   C636    1.415   .     A
C628   H799    1.079   .     S
C629   H900    1.074   1_455 S
C630   H695    1.077   .     S
C630   C632    1.407   .     A
C631   C633    1.407   .     A
C631   H685    1.078   .     S
C632   C637    1.426   .     A
C632   C634    1.421   .     A
C633   C638    1.427   .     A
C633   C636    1.420   .     A
C634   C1574   1.398   .     S
C635   C638    1.413   .     A
C635   H698    1.078   .     S
C635   C656    1.388   .     A
C636   C1575   1.397   1_554 S
C637   C646    1.413   .     A
C637   C1556   1.421   .     S
C638   C1555   1.421   1_554 S
C639   N703    1.447   .     S
C639   H668    1.112   .     S
C639   H1791   1.110   1_455 S
C639   H1588   1.110   .     S
C640   H673    1.111   .     S
C640   N704    1.447   .     S
C640   H876    1.110   1_455 S
C640   H879    1.112   1_455 S
C641   C642    1.405   .     A
C641   C647    1.405   .     A
C641   C658    1.483   .     S
C642   H676    1.083   .     S
C642   C643    1.399   .     A
C643   H677    1.083   .     S
C643   C644    1.398   .     A
C644   H678    1.082   .     S
C644   C645    1.398   .     A
C645   H679    1.081   .     S
C645   C647    1.398   .     A
C646   H699    1.075   .     S
C646   C657    1.386   .     A
C647   H680    1.083   .     S
C648   C649    1.407   .     A
C648   C659    1.485   .     S
C648   C653    1.405   .     A
C649   H681    1.083   .     S
C649   C650    1.399   .     A
C650   H682    1.082   .     S
C650   C651    1.398   .     A
C651   C652    1.396   .     A
C651   H683    1.081   .     S
C652   C653    1.398   .     A
C652   H684    1.082   .     S
C653   H686    1.082   .     S
C654   N705    1.450   .     S
C654   H689    1.111   .     S
C654   H690    1.111   .     S
C654   H688    1.110   .     S
C655   N706    1.449   .     S
C655   H693    1.110   .     S
C655   H692    1.111   .     S
C655   H694    1.109   .     S
C656   H663    1.082   .     S
C656   C1552   1.398   1_554 S
C657   H674    1.083   .     S
C657   C1554   1.397   .     S
C658   C718    1.414   .     S
C659   C2      1.388   1_565 S
C659   C819    1.416   1_455 S
C660   H700    1.081   .     S
C660   C46     1.385   1_565 S
Cu661  O710    1.959   .     S
Cu661  O711    1.943   .     S
Cu661  O707    1.965   .     S
Cu661  O714    1.924   .     S
Cu661  N701    2.021   .     S
Cu661  Cu866   2.689   1_455 S
Cu662  O708    1.965   .     S
Cu662  N702    2.021   .     S
Cu662  O709    1.959   .     S
Cu662  O712    1.943   .     S
Cu662  O713    1.924   .     S
Cu662  Cu763   2.689   .     S
H667   N703    1.031   .     S
H669   C1659   1.110   1_554 S
H670   C1557   1.110   1_554 S
H671   N806    1.031   .     S
H672   C742    1.110   .     S
H675   C742    1.112   .     S
H687   N705    1.024   .     S
H691   N706    1.030   .     S
H696   C731    1.074   .     S
H697   C832    1.079   1_455 S
N703   C830    1.425   1_455 S
N704   H875    1.031   1_455 S
O709   C715    1.290   .     S
O710   C828    1.290   1_455 S
O711   C825    1.303   1_455 S
O712   C724    1.306   .     S
C715   O809    1.297   .     A
C715   C718    1.450   .     S
C716   C718    1.399   .     A
C716   H766    1.084   .     S
C717   C762    1.397   .     A
C717   C726    1.451   .     S
C717   C863    1.416   .     S
C719   H767    1.078   .     S
C719   N804    1.355   .     A
C719   C721    1.427   .     A
C720   H768    1.080   .     S
C720   C722    1.420   .     A
C720   N803    1.357   .     A
C721   N803    1.388   .     A
C721   N807    1.431   .     S
C722   N808    1.416   .     S
C722   N804    1.378   .     A
C723   C725    1.473   .     S
C723   O815    1.297   .     A
C723   O915    1.303   .     S
C724   O816    1.294   .     A
C724   C727    1.472   .     S
C725   C732    1.397   .     A
C725   C730    1.395   .     A
C726   O810    1.298   .     A
C726   O914    1.290   .     S
C727   C733    1.398   .     A
C727   C731    1.395   .     A
C728   C730    1.400   .     A
C728   C736    1.417   .     A
C728   N907    1.425   .     S
C729   N806    1.425   .     S
C729   C731    1.398   .     A
C729   C738    1.415   .     A
C730   H901    1.079   .     S
C732   H797    1.077   .     S
C732   C734    1.407   .     A
C733   C735    1.407   .     A
C733   H787    1.078   .     S
C734   C739    1.426   .     A
C734   C736    1.421   .     A
C735   C740    1.427   .     A
C735   C738    1.420   .     A
C736   C1676   1.398   .     S
C737   C740    1.413   .     A
C737   H800    1.078   .     S
C737   C758    1.388   .     A
C738   C1677   1.397   1_554 S
C739   C748    1.413   .     A
C739   C1658   1.421   .     S
C740   C1657   1.421   1_554 S
C741   N805    1.447   .     S
C741   H770    1.112   .     S
C741   H1587   1.110   .     S
C741   H1690   1.110   .     S
C742   H775    1.111   .     S
C742   N806    1.447   .     S
C743   C744    1.405   .     A
C743   C749    1.405   .     A
C743   C760    1.483   .     S
C744   H778    1.083   .     S
C744   C745    1.399   .     A
C745   H779    1.083   .     S
C745   C746    1.398   .     A
C746   H780    1.082   .     S
C746   C747    1.398   .     A
C747   H781    1.081   .     S
C747   C749    1.398   .     A
C748   H801    1.075   .     S
C748   C759    1.386   .     A
C749   H782    1.083   .     S
C750   C751    1.407   .     A
C750   C761    1.485   .     S
C750   C755    1.405   .     A
C751   H783    1.083   .     S
C751   C752    1.399   .     A
C752   H784    1.082   .     S
C752   C753    1.398   .     A
C753   C754    1.396   .     A
C753   H785    1.081   .     S
C754   C755    1.398   .     A
C754   H786    1.082   .     S
C755   H788    1.082   .     S
C756   N807    1.450   .     S
C756   H791    1.111   .     S
C756   H792    1.111   .     S
C756   H790    1.110   .     S
C757   N808    1.449   .     S
C757   H795    1.110   .     S
C757   H794    1.111   .     S
C757   H796    1.109   .     S
C758   H765    1.082   .     S
C758   C1654   1.398   1_554 S
C759   H776    1.083   .     S
C759   C1656   1.397   .     S
C760   C820    1.414   .     S
C761   C104    1.388   1_565 S
C762   H802    1.081   .     S
C762   C148    1.385   1_565 S
Cu763  O812    1.959   .     S
Cu763  O813    1.943   .     S
Cu763  O809    1.965   .     S
Cu763  O816    1.924   .     S
Cu763  N803    2.021   .     S
Cu764  O810    1.965   .     S
Cu764  N804    2.021   .     S
Cu764  O811    1.959   .     S
Cu764  O814    1.943   .     S
Cu764  O815    1.924   .     S
Cu764  Cu865   2.689   .     S
H769   N805    1.031   .     S
H771   C1761   1.110   1_554 S
H772   C1659   1.110   1_554 S
H773   N908    1.031   .     S
H774   C844    1.110   .     S
H777   C844    1.112   .     S
H789   N807    1.024   .     S
H793   N808    1.030   .     S
H798   C833    1.074   .     S
O811   C817    1.290   .     S
O814   C826    1.306   .     S
C817   O911    1.297   .     A
C817   C820    1.450   .     S
C818   C820    1.399   .     A
C818   H868    1.084   .     S
C819   C864    1.397   .     A
C819   C828    1.451   .     S
C819   C659    1.416   1_655 S
C821   H869    1.078   .     S
C821   N906    1.355   .     A
C821   C823    1.427   .     A
C822   H870    1.080   .     S
C822   C824    1.420   .     A
C822   N905    1.357   .     A
C823   N905    1.388   .     A
C823   N909    1.431   .     S
C824   N910    1.416   .     S
C824   N906    1.378   .     A
C825   C827    1.473   .     S
C825   O917    1.297   .     A
C825   O711    1.303   1_655 S
C826   O918    1.294   .     A
C826   C829    1.472   .     S
C827   C834    1.397   .     A
C827   C832    1.395   .     A
C828   O912    1.298   .     A
C828   O710    1.290   1_655 S
C829   C835    1.398   .     A
C829   C833    1.395   .     A
C830   C832    1.400   .     A
C830   C838    1.417   .     A
C830   N703    1.425   1_655 S
C831   N908    1.425   .     S
C831   C833    1.398   .     A
C831   C840    1.415   .     A
C832   H697    1.079   1_655 S
C834   H899    1.077   .     S
C834   C836    1.407   .     A
C835   C837    1.407   .     A
C835   H889    1.078   .     S
C836   C841    1.426   .     A
C836   C838    1.421   .     A
C837   C842    1.427   .     A
C837   C840    1.420   .     A
C838   C1778   1.398   .     S
C839   C842    1.413   .     A
C839   H902    1.078   .     S
C839   C860    1.388   .     A
C840   C1779   1.397   1_554 S
C841   C850    1.413   .     A
C841   C1760   1.421   .     S
C842   C1759   1.421   1_554 S
C843   N907    1.447   .     S
C843   H872    1.112   .     S
C843   H1689   1.110   .     S
C843   H1792   1.110   .     S
C844   H877    1.111   .     S
C844   N908    1.447   .     S
C845   C846    1.405   .     A
C845   C851    1.405   .     A
C845   C862    1.483   .     S
C846   H880    1.083   .     S
C846   C847    1.399   .     A
C847   H881    1.083   .     S
C847   C848    1.398   .     A
C848   H882    1.082   .     S
C848   C849    1.398   .     A
C849   H883    1.081   .     S
C849   C851    1.398   .     A
C850   H903    1.075   .     S
C850   C861    1.386   .     A
C851   H884    1.083   .     S
C852   C853    1.407   .     A
C852   C863    1.485   .     S
C852   C857    1.405   .     A
C853   H885    1.083   .     S
C853   C854    1.399   .     A
C854   H886    1.082   .     S
C854   C855    1.398   .     A
C855   C856    1.396   .     A
C855   H887    1.081   .     S
C856   C857    1.398   .     A
C856   H888    1.082   .     S
C857   H890    1.082   .     S
C858   N909    1.450   .     S
C858   H893    1.111   .     S
C858   H894    1.111   .     S
C858   H892    1.110   .     S
C859   N910    1.449   .     S
C859   H897    1.110   .     S
C859   H896    1.111   .     S
C859   H898    1.109   .     S
C860   H867    1.082   .     S
C860   C1756   1.398   1_554 S
C861   H878    1.083   .     S
C861   C1758   1.397   .     S
C862   C616    1.414   1_655 S
C863   C206    1.388   1_565 S
C864   H904    1.081   .     S
C864   C250    1.385   1_565 S
Cu865  O914    1.959   .     S
Cu865  O915    1.943   .     S
Cu865  O911    1.965   .     S
Cu865  O918    1.924   .     S
Cu865  N905    2.021   .     S
Cu866  O912    1.965   .     S
Cu866  N906    2.021   .     S
Cu866  O913    1.959   .     S
Cu866  O916    1.943   .     S
Cu866  O917    1.924   .     S
Cu866  Cu661   2.689   1_655 S
H871   N907    1.031   .     S
H873   C1557   1.110   1_654 S
H874   C1761   1.110   1_554 S
H875   N704    1.031   1_655 S
H876   C640    1.110   1_655 S
H879   C640    1.112   1_655 S
H891   N909    1.024   .     S
H895   N910    1.030   .     S
H900   C629    1.074   1_655 S
O913   C613    1.290   1_655 S
O916   C622    1.306   1_655 S
C919   O1013   1.297   .     A
C919   C922    1.450   .     S
C919   O1219   1.290   1_455 S
C920   C922    1.399   .     A
C920   H970    1.084   .     S
C920   C1577   1.388   1_545 S
C921   C966    1.397   .     A
C921   C930    1.451   .     S
C921   C1067   1.416   .     S
C922   C1168   1.414   1_455 S
C923   H971    1.078   .     S
C923   N1008   1.355   .     A
C923   C925    1.427   .     A
C924   H972    1.080   .     S
C924   C926    1.420   .     A
C924   N1007   1.357   .     A
C925   N1007   1.388   .     A
C925   N1011   1.431   .     S
C926   N1012   1.416   .     S
C926   N1008   1.378   .     A
C927   C929    1.473   .     S
C927   O1019   1.297   .     A
C927   O1119   1.303   .     S
C928   O1020   1.294   .     A
C928   C931    1.472   .     S
C928   O1222   1.306   1_455 S
C929   C936    1.397   .     A
C929   C934    1.395   .     A
C930   O1014   1.298   .     A
C930   O1118   1.290   .     S
C931   C937    1.398   .     A
C931   C935    1.395   .     A
C932   C934    1.400   .     A
C932   C940    1.417   .     A
C932   N1111   1.425   .     S
C933   N1010   1.425   .     S
C933   C935    1.398   .     A
C933   C942    1.415   .     A
C934   H1105   1.079   .     S
C935   H1206   1.074   1_455 S
C936   H1001   1.077   .     S
C936   C938    1.407   .     A
C937   C939    1.407   .     A
C937   H991    1.078   .     S
C938   C943    1.426   .     A
C938   C940    1.421   .     A
C939   C944    1.427   .     A
C939   C942    1.420   .     A
C940   C44     1.398   1_556 S
C941   C944    1.413   .     A
C941   H1004   1.078   .     S
C941   C962    1.388   .     A
C943   C952    1.413   .     A
C943   C26     1.421   1_556 S
C945   N1009   1.447   .     S
C945   H974    1.112   .     S
C945   H261    1.110   1_456 S
C945   H58     1.110   1_556 S
C946   H979    1.111   .     S
C946   N1010   1.447   .     S
C946   H1182   1.110   1_455 S
C946   H1185   1.112   1_455 S
C947   C948    1.405   .     A
C947   C953    1.405   .     A
C947   C964    1.483   .     S
C948   H982    1.083   .     S
C948   C949    1.399   .     A
C949   H983    1.083   .     S
C949   C950    1.398   .     A
C950   H984    1.082   .     S
C950   C951    1.398   .     A
C951   H985    1.081   .     S
C951   C953    1.398   .     A
C952   H1005   1.075   .     S
C952   C963    1.386   .     A
C953   H986    1.083   .     S
C954   C955    1.407   .     A
C954   C965    1.485   .     S
C954   C959    1.405   .     A
C955   H987    1.083   .     S
C955   C956    1.399   .     A
C956   H988    1.082   .     S
C956   C957    1.398   .     A
C957   C958    1.396   .     A
C957   H989    1.081   .     S
C958   C959    1.398   .     A
C958   H990    1.082   .     S
C959   H992    1.082   .     S
C960   N1011   1.450   .     S
C960   H995    1.111   .     S
C960   H996    1.111   .     S
C960   H994    1.110   .     S
C961   N1012   1.449   .     S
C961   H999    1.110   .     S
C961   H998    1.111   .     S
C961   H1000   1.109   .     S
C962   H969    1.082   .     S
C963   H980    1.083   .     S
C963   C24     1.397   1_556 S
C964   C1024   1.414   .     S
C964   C1578   1.385   1_545 S
C965   C1226   1.388   .     S
C965   C1125   1.416   1_455 S
C966   H1006   1.081   .     S
C966   C1270   1.385   .     S
Cu967  O1016   1.959   .     S
Cu967  O1017   1.943   .     S
Cu967  O1013   1.965   .     S
Cu967  O1020   1.924   .     S
Cu967  N1007   2.021   .     S
Cu967  Cu1172  2.689   1_455 S
Cu968  O1014   1.965   .     S
Cu968  N1008   2.021   .     S
Cu968  O1015   1.959   .     S
Cu968  O1018   1.943   .     S
Cu968  O1019   1.924   .     S
Cu968  Cu1069  2.689   .     S
H973   N1009   1.031   .     S
H977   N1112   1.031   .     S
H978   C1048   1.110   .     S
H981   C1048   1.112   .     S
H993   N1011   1.024   .     S
H997   N1012   1.030   .     S
H1002  C1037   1.074   .     S
H1003  C1138   1.079   1_455 S
N1009  C1136   1.425   1_455 S
N1010  H1181   1.031   1_455 S
O1015  C1021   1.290   .     S
O1016  C1134   1.290   1_455 S
O1017  C1131   1.303   1_455 S
O1018  C1030   1.306   .     S
C1021  O1115   1.297   .     A
C1021  C1024   1.450   .     S
C1022  C1024   1.399   .     A
C1022  H1072   1.084   .     S
C1022  C1679   1.388   1_545 S
C1023  C1068   1.397   .     A
C1023  C1032   1.451   .     S
C1023  C1169   1.416   .     S
C1025  H1073   1.078   .     S
C1025  N1110   1.355   .     A
C1025  C1027   1.427   .     A
C1026  H1074   1.080   .     S
C1026  C1028   1.420   .     A
C1026  N1109   1.357   .     A
C1027  N1109   1.388   .     A
C1027  N1113   1.431   .     S
C1028  N1114   1.416   .     S
C1028  N1110   1.378   .     A
C1029  C1031   1.473   .     S
C1029  O1121   1.297   .     A
C1029  O1221   1.303   .     S
C1030  O1122   1.294   .     A
C1030  C1033   1.472   .     S
C1031  C1038   1.397   .     A
C1031  C1036   1.395   .     A
C1032  O1116   1.298   .     A
C1032  O1220   1.290   .     S
C1033  C1039   1.398   .     A
C1033  C1037   1.395   .     A
C1034  C1036   1.400   .     A
C1034  C1042   1.417   .     A
C1034  N1213   1.425   .     S
C1035  N1112   1.425   .     S
C1035  C1037   1.398   .     A
C1035  C1044   1.415   .     A
C1036  H1207   1.079   .     S
C1038  H1103   1.077   .     S
C1038  C1040   1.407   .     A
C1039  C1041   1.407   .     A
C1039  H1093   1.078   .     S
C1040  C1045   1.426   .     A
C1040  C1042   1.421   .     A
C1041  C1046   1.427   .     A
C1041  C1044   1.420   .     A
C1042  C146    1.398   1_556 S
C1043  C1046   1.413   .     A
C1043  H1106   1.078   .     S
C1043  C1064   1.388   .     A
C1045  C1054   1.413   .     A
C1045  C128    1.421   1_556 S
C1047  N1111   1.447   .     S
C1047  H1076   1.112   .     S
C1047  H57     1.110   1_556 S
C1047  H160    1.110   1_556 S
C1048  H1081   1.111   .     S
C1048  N1112   1.447   .     S
C1049  C1050   1.405   .     A
C1049  C1055   1.405   .     A
C1049  C1066   1.483   .     S
C1050  H1084   1.083   .     S
C1050  C1051   1.399   .     A
C1051  H1085   1.083   .     S
C1051  C1052   1.398   .     A
C1052  H1086   1.082   .     S
C1052  C1053   1.398   .     A
C1053  H1087   1.081   .     S
C1053  C1055   1.398   .     A
C1054  H1107   1.075   .     S
C1054  C1065   1.386   .     A
C1055  H1088   1.083   .     S
C1056  C1057   1.407   .     A
C1056  C1067   1.485   .     S
C1056  C1061   1.405   .     A
C1057  H1089   1.083   .     S
C1057  C1058   1.399   .     A
C1058  H1090   1.082   .     S
C1058  C1059   1.398   .     A
C1059  C1060   1.396   .     A
C1059  H1091   1.081   .     S
C1060  C1061   1.398   .     A
C1060  H1092   1.082   .     S
C1061  H1094   1.082   .     S
C1062  N1113   1.450   .     S
C1062  H1097   1.111   .     S
C1062  H1098   1.111   .     S
C1062  H1096   1.110   .     S
C1063  N1114   1.449   .     S
C1063  H1101   1.110   .     S
C1063  H1100   1.111   .     S
C1063  H1102   1.109   .     S
C1064  H1071   1.082   .     S
C1065  H1082   1.083   .     S
C1065  C126    1.397   1_556 S
C1066  C1126   1.414   .     S
C1066  C1680   1.385   1_545 S
C1067  C1328   1.388   .     S
C1068  H1108   1.081   .     S
C1068  C1372   1.385   .     S
Cu1069 O1118   1.959   .     S
Cu1069 O1119   1.943   .     S
Cu1069 O1115   1.965   .     S
Cu1069 O1122   1.924   .     S
Cu1069 N1109   2.021   .     S
Cu1070 O1116   1.965   .     S
Cu1070 N1110   2.021   .     S
Cu1070 O1117   1.959   .     S
Cu1070 O1120   1.943   .     S
Cu1070 O1121   1.924   .     S
Cu1070 Cu1171  2.689   .     S
H1075  N1111   1.031   .     S
H1079  N1214   1.031   .     S
H1080  C1150   1.110   .     S
H1083  C1150   1.112   .     S
H1095  N1113   1.024   .     S
H1099  N1114   1.030   .     S
H1104  C1139   1.074   .     S
O1117  C1123   1.290   .     S
O1120  C1132   1.306   .     S
C1123  O1217   1.297   .     A
C1123  C1126   1.450   .     S
C1124  C1126   1.399   .     A
C1124  H1174   1.084   .     S
C1124  C1781   1.388   1_545 S
C1125  C1170   1.397   .     A
C1125  C1134   1.451   .     S
C1125  C965    1.416   1_655 S
C1127  H1175   1.078   .     S
C1127  N1212   1.355   .     A
C1127  C1129   1.427   .     A
C1128  H1176   1.080   .     S
C1128  C1130   1.420   .     A
C1128  N1211   1.357   .     A
C1129  N1211   1.388   .     A
C1129  N1215   1.431   .     S
C1130  N1216   1.416   .     S
C1130  N1212   1.378   .     A
C1131  C1133   1.473   .     S
C1131  O1223   1.297   .     A
C1131  O1017   1.303   1_655 S
C1132  O1224   1.294   .     A
C1132  C1135   1.472   .     S
C1133  C1140   1.397   .     A
C1133  C1138   1.395   .     A
C1134  O1218   1.298   .     A
C1134  O1016   1.290   1_655 S
C1135  C1141   1.398   .     A
C1135  C1139   1.395   .     A
C1136  C1138   1.400   .     A
C1136  C1144   1.417   .     A
C1136  N1009   1.425   1_655 S
C1137  N1214   1.425   .     S
C1137  C1139   1.398   .     A
C1137  C1146   1.415   .     A
C1138  H1003   1.079   1_655 S
C1140  H1205   1.077   .     S
C1140  C1142   1.407   .     A
C1141  C1143   1.407   .     A
C1141  H1195   1.078   .     S
C1142  C1147   1.426   .     A
C1142  C1144   1.421   .     A
C1143  C1148   1.427   .     A
C1143  C1146   1.420   .     A
C1144  C248    1.398   1_556 S
C1145  C1148   1.413   .     A
C1145  H1208   1.078   .     S
C1145  C1166   1.388   .     A
C1147  C1156   1.413   .     A
C1147  C230    1.421   1_556 S
C1149  N1213   1.447   .     S
C1149  H1178   1.112   .     S
C1149  H159    1.110   1_556 S
C1149  H262    1.110   1_556 S
C1150  H1183   1.111   .     S
C1150  N1214   1.447   .     S
C1151  C1152   1.405   .     A
C1151  C1157   1.405   .     A
C1151  C1168   1.483   .     S
C1152  H1186   1.083   .     S
C1152  C1153   1.399   .     A
C1153  H1187   1.083   .     S
C1153  C1154   1.398   .     A
C1154  H1188   1.082   .     S
C1154  C1155   1.398   .     A
C1155  H1189   1.081   .     S
C1155  C1157   1.398   .     A
C1156  H1209   1.075   .     S
C1156  C1167   1.386   .     A
C1157  H1190   1.083   .     S
C1158  C1159   1.407   .     A
C1158  C1169   1.485   .     S
C1158  C1163   1.405   .     A
C1159  H1191   1.083   .     S
C1159  C1160   1.399   .     A
C1160  H1192   1.082   .     S
C1160  C1161   1.398   .     A
C1161  C1162   1.396   .     A
C1161  H1193   1.081   .     S
C1162  C1163   1.398   .     A
C1162  H1194   1.082   .     S
C1163  H1196   1.082   .     S
C1164  N1215   1.450   .     S
C1164  H1199   1.111   .     S
C1164  H1200   1.111   .     S
C1164  H1198   1.110   .     S
C1165  N1216   1.449   .     S
C1165  H1203   1.110   .     S
C1165  H1202   1.111   .     S
C1165  H1204   1.109   .     S
C1166  H1173   1.082   .     S
C1167  H1184   1.083   .     S
C1167  C228    1.397   1_556 S
C1168  C922    1.414   1_655 S
C1168  C1782   1.385   1_545 S
C1169  C1430   1.388   .     S
C1170  H1210   1.081   .     S
C1170  C1474   1.385   .     S
Cu1171 O1220   1.959   .     S
Cu1171 O1221   1.943   .     S
Cu1171 O1217   1.965   .     S
Cu1171 O1224   1.924   .     S
Cu1171 N1211   2.021   .     S
Cu1172 O1218   1.965   .     S
Cu1172 N1212   2.021   .     S
Cu1172 O1219   1.959   .     S
Cu1172 O1222   1.943   .     S
Cu1172 O1223   1.924   .     S
Cu1172 Cu967   2.689   1_655 S
H1177  N1213   1.031   .     S
H1179  C27     1.110   1_655 S
H1181  N1010   1.031   1_655 S
H1182  C946    1.110   1_655 S
H1185  C946    1.112   1_655 S
H1197  N1215   1.024   .     S
H1201  N1216   1.030   .     S
H1206  C935    1.074   1_655 S
O1219  C919    1.290   1_655 S
O1222  C928    1.306   1_655 S
C1225  O1319   1.297   .     A
C1225  C1228   1.450   .     S
C1225  O1525   1.290   1_455 S
C1226  C1228   1.399   .     A
C1226  H1276   1.084   .     S
C1227  C1272   1.397   .     A
C1227  C1236   1.451   .     S
C1227  C1373   1.416   .     S
C1228  C1474   1.414   1_455 S
C1229  H1277   1.078   .     S
C1229  N1314   1.355   .     A
C1229  C1231   1.427   .     A
C1230  H1278   1.080   .     S
C1230  C1232   1.420   .     A
C1230  N1313   1.357   .     A
C1231  N1313   1.388   .     A
C1231  N1317   1.431   .     S
C1232  N1318   1.416   .     S
C1232  N1314   1.378   .     A
C1233  C1235   1.473   .     S
C1233  O1325   1.297   .     A
C1233  O1425   1.303   .     S
C1234  O1326   1.294   .     A
C1234  C1237   1.472   .     S
C1234  O1528   1.306   1_455 S
C1235  C1242   1.397   .     A
C1235  C1240   1.395   .     A
C1236  O1320   1.298   .     A
C1236  O1424   1.290   .     S
C1237  C1243   1.398   .     A
C1237  C1241   1.395   .     A
C1238  C1240   1.400   .     A
C1238  C1246   1.417   .     A
C1238  N1417   1.425   .     S
C1239  N1316   1.425   .     S
C1239  C1241   1.398   .     A
C1239  C1248   1.415   .     A
C1240  H1411   1.079   .     S
C1241  H1512   1.074   1_455 S
C1242  H1307   1.077   .     S
C1242  C1244   1.407   .     A
C1243  C1245   1.407   .     A
C1243  H1297   1.078   .     S
C1244  C1249   1.426   .     A
C1244  C1246   1.421   .     A
C1245  C1250   1.427   .     A
C1245  C1248   1.420   .     A
C1246  C350    1.398   1_556 S
C1247  C1250   1.413   .     A
C1247  H1310   1.078   .     S
C1247  C1268   1.388   .     A
C1249  C1258   1.413   .     A
C1249  C332    1.421   1_556 S
C1251  N1315   1.447   .     S
C1251  H1280   1.112   .     S
C1251  H567    1.110   1_456 S
C1251  H364    1.110   1_556 S
C1252  H1285   1.111   .     S
C1252  N1316   1.447   .     S
C1252  H1488   1.110   1_455 S
C1252  H1491   1.112   1_455 S
C1253  C1254   1.405   .     A
C1253  C1259   1.405   .     A
C1253  C1270   1.483   .     S
C1254  H1288   1.083   .     S
C1254  C1255   1.399   .     A
C1255  H1289   1.083   .     S
C1255  C1256   1.398   .     A
C1256  H1290   1.082   .     S
C1256  C1257   1.398   .     A
C1257  H1291   1.081   .     S
C1257  C1259   1.398   .     A
C1258  H1311   1.075   .     S
C1258  C1269   1.386   .     A
C1259  H1292   1.083   .     S
C1260  C1261   1.407   .     A
C1260  C1271   1.485   .     S
C1260  C1265   1.405   .     A
C1261  H1293   1.083   .     S
C1261  C1262   1.399   .     A
C1262  H1294   1.082   .     S
C1262  C1263   1.398   .     A
C1263  C1264   1.396   .     A
C1263  H1295   1.081   .     S
C1264  C1265   1.398   .     A
C1264  H1296   1.082   .     S
C1265  H1298   1.082   .     S
C1266  N1317   1.450   .     S
C1266  H1301   1.111   .     S
C1266  H1302   1.111   .     S
C1266  H1300   1.110   .     S
C1267  N1318   1.449   .     S
C1267  H1305   1.110   .     S
C1267  H1304   1.111   .     S
C1267  H1306   1.109   .     S
C1268  H1275   1.082   .     S
C1269  H1286   1.083   .     S
C1269  C330    1.397   1_556 S
C1270  C1330   1.414   .     S
C1271  C1532   1.388   .     S
C1271  C1431   1.416   1_455 S
C1272  H1312   1.081   .     S
C1272  C1576   1.385   .     S
Cu1273 O1322   1.959   .     S
Cu1273 O1323   1.943   .     S
Cu1273 O1319   1.965   .     S
Cu1273 O1326   1.924   .     S
Cu1273 N1313   2.021   .     S
Cu1273 Cu1478  2.689   1_455 S
Cu1274 O1320   1.965   .     S
Cu1274 N1314   2.021   .     S
Cu1274 O1321   1.959   .     S
Cu1274 O1324   1.943   .     S
Cu1274 O1325   1.924   .     S
Cu1274 Cu1375  2.689   .     S
H1279  N1315   1.031   .     S
H1283  N1418   1.031   .     S
H1284  C1354   1.110   .     S
H1287  C1354   1.112   .     S
H1299  N1317   1.024   .     S
H1303  N1318   1.030   .     S
H1308  C1343   1.074   .     S
H1309  C1444   1.079   1_455 S
N1315  C1442   1.425   1_455 S
N1316  H1487   1.031   1_455 S
O1321  C1327   1.290   .     S
O1322  C1440   1.290   1_455 S
O1323  C1437   1.303   1_455 S
O1324  C1336   1.306   .     S
C1327  O1421   1.297   .     A
C1327  C1330   1.450   .     S
C1328  C1330   1.399   .     A
C1328  H1378   1.084   .     S
C1329  C1374   1.397   .     A
C1329  C1338   1.451   .     S
C1329  C1475   1.416   .     S
C1331  H1379   1.078   .     S
C1331  N1416   1.355   .     A
C1331  C1333   1.427   .     A
C1332  H1380   1.080   .     S
C1332  C1334   1.420   .     A
C1332  N1415   1.357   .     A
C1333  N1415   1.388   .     A
C1333  N1419   1.431   .     S
C1334  N1420   1.416   .     S
C1334  N1416   1.378   .     A
C1335  C1337   1.473   .     S
C1335  O1427   1.297   .     A
C1335  O1527   1.303   .     S
C1336  O1428   1.294   .     A
C1336  C1339   1.472   .     S
C1337  C1344   1.397   .     A
C1337  C1342   1.395   .     A
C1338  O1422   1.298   .     A
C1338  O1526   1.290   .     S
C1339  C1345   1.398   .     A
C1339  C1343   1.395   .     A
C1340  C1342   1.400   .     A
C1340  C1348   1.417   .     A
C1340  N1519   1.425   .     S
C1341  N1418   1.425   .     S
C1341  C1343   1.398   .     A
C1341  C1350   1.415   .     A
C1342  H1513   1.079   .     S
C1344  H1409   1.077   .     S
C1344  C1346   1.407   .     A
C1345  C1347   1.407   .     A
C1345  H1399   1.078   .     S
C1346  C1351   1.426   .     A
C1346  C1348   1.421   .     A
C1347  C1352   1.427   .     A
C1347  C1350   1.420   .     A
C1348  C452    1.398   1_556 S
C1349  C1352   1.413   .     A
C1349  H1412   1.078   .     S
C1349  C1370   1.388   .     A
C1351  C1360   1.413   .     A
C1351  C434    1.421   1_556 S
C1353  N1417   1.447   .     S
C1353  H1382   1.112   .     S
C1353  H363    1.110   1_556 S
C1353  H466    1.110   1_556 S
C1354  H1387   1.111   .     S
C1354  N1418   1.447   .     S
C1355  C1356   1.405   .     A
C1355  C1361   1.405   .     A
C1355  C1372   1.483   .     S
C1356  H1390   1.083   .     S
C1356  C1357   1.399   .     A
C1357  H1391   1.083   .     S
C1357  C1358   1.398   .     A
C1358  H1392   1.082   .     S
C1358  C1359   1.398   .     A
C1359  H1393   1.081   .     S
C1359  C1361   1.398   .     A
C1360  H1413   1.075   .     S
C1360  C1371   1.386   .     A
C1361  H1394   1.083   .     S
C1362  C1363   1.407   .     A
C1362  C1373   1.485   .     S
C1362  C1367   1.405   .     A
C1363  H1395   1.083   .     S
C1363  C1364   1.399   .     A
C1364  H1396   1.082   .     S
C1364  C1365   1.398   .     A
C1365  C1366   1.396   .     A
C1365  H1397   1.081   .     S
C1366  C1367   1.398   .     A
C1366  H1398   1.082   .     S
C1367  H1400   1.082   .     S
C1368  N1419   1.450   .     S
C1368  H1403   1.111   .     S
C1368  H1404   1.111   .     S
C1368  H1402   1.110   .     S
C1369  N1420   1.449   .     S
C1369  H1407   1.110   .     S
C1369  H1406   1.111   .     S
C1369  H1408   1.109   .     S
C1370  H1377   1.082   .     S
C1371  H1388   1.083   .     S
C1371  C432    1.397   1_556 S
C1372  C1432   1.414   .     S
C1373  C1634   1.388   .     S
C1374  H1414   1.081   .     S
C1374  C1678   1.385   .     S
Cu1375 O1424   1.959   .     S
Cu1375 O1425   1.943   .     S
Cu1375 O1421   1.965   .     S
Cu1375 O1428   1.924   .     S
Cu1375 N1415   2.021   .     S
Cu1376 O1422   1.965   .     S
Cu1376 N1416   2.021   .     S
Cu1376 O1423   1.959   .     S
Cu1376 O1426   1.943   .     S
Cu1376 O1427   1.924   .     S
Cu1376 Cu1477  2.689   .     S
H1381  N1417   1.031   .     S
H1385  N1520   1.031   .     S
H1386  C1456   1.110   .     S
H1389  C1456   1.112   .     S
H1401  N1419   1.024   .     S
H1405  N1420   1.030   .     S
H1410  C1445   1.074   .     S
O1423  C1429   1.290   .     S
O1426  C1438   1.306   .     S
C1429  O1523   1.297   .     A
C1429  C1432   1.450   .     S
C1430  C1432   1.399   .     A
C1430  H1480   1.084   .     S
C1431  C1476   1.397   .     A
C1431  C1440   1.451   .     S
C1431  C1271   1.416   1_655 S
C1433  H1481   1.078   .     S
C1433  N1518   1.355   .     A
C1433  C1435   1.427   .     A
C1434  H1482   1.080   .     S
C1434  C1436   1.420   .     A
C1434  N1517   1.357   .     A
C1435  N1517   1.388   .     A
C1435  N1521   1.431   .     S
C1436  N1522   1.416   .     S
C1436  N1518   1.378   .     A
C1437  C1439   1.473   .     S
C1437  O1529   1.297   .     A
C1437  O1323   1.303   1_655 S
C1438  O1530   1.294   .     A
C1438  C1441   1.472   .     S
C1439  C1446   1.397   .     A
C1439  C1444   1.395   .     A
C1440  O1524   1.298   .     A
C1440  O1322   1.290   1_655 S
C1441  C1447   1.398   .     A
C1441  C1445   1.395   .     A
C1442  C1444   1.400   .     A
C1442  C1450   1.417   .     A
C1442  N1315   1.425   1_655 S
C1443  N1520   1.425   .     S
C1443  C1445   1.398   .     A
C1443  C1452   1.415   .     A
C1444  H1309   1.079   1_655 S
C1446  H1511   1.077   .     S
C1446  C1448   1.407   .     A
C1447  C1449   1.407   .     A
C1447  H1501   1.078   .     S
C1448  C1453   1.426   .     A
C1448  C1450   1.421   .     A
C1449  C1454   1.427   .     A
C1449  C1452   1.420   .     A
C1450  C554    1.398   1_556 S
C1451  C1454   1.413   .     A
C1451  H1514   1.078   .     S
C1451  C1472   1.388   .     A
C1453  C1462   1.413   .     A
C1453  C536    1.421   1_556 S
C1455  N1519   1.447   .     S
C1455  H1484   1.112   .     S
C1455  H465    1.110   1_556 S
C1455  H568    1.110   1_556 S
C1456  H1489   1.111   .     S
C1456  N1520   1.447   .     S
C1457  C1458   1.405   .     A
C1457  C1463   1.405   .     A
C1457  C1474   1.483   .     S
C1458  H1492   1.083   .     S
C1458  C1459   1.399   .     A
C1459  H1493   1.083   .     S
C1459  C1460   1.398   .     A
C1460  H1494   1.082   .     S
C1460  C1461   1.398   .     A
C1461  H1495   1.081   .     S
C1461  C1463   1.398   .     A
C1462  H1515   1.075   .     S
C1462  C1473   1.386   .     A
C1463  H1496   1.083   .     S
C1464  C1465   1.407   .     A
C1464  C1475   1.485   .     S
C1464  C1469   1.405   .     A
C1465  H1497   1.083   .     S
C1465  C1466   1.399   .     A
C1466  H1498   1.082   .     S
C1466  C1467   1.398   .     A
C1467  C1468   1.396   .     A
C1467  H1499   1.081   .     S
C1468  C1469   1.398   .     A
C1468  H1500   1.082   .     S
C1469  H1502   1.082   .     S
C1470  N1521   1.450   .     S
C1470  H1505   1.111   .     S
C1470  H1506   1.111   .     S
C1470  H1504   1.110   .     S
C1471  N1522   1.449   .     S
C1471  H1509   1.110   .     S
C1471  H1508   1.111   .     S
C1471  H1510   1.109   .     S
C1472  H1479   1.082   .     S
C1473  H1490   1.083   .     S
C1473  C534    1.397   1_556 S
C1474  C1228   1.414   1_655 S
C1475  C1736   1.388   .     S
C1476  H1516   1.081   .     S
C1476  C1780   1.385   .     S
Cu1477 O1526   1.959   .     S
Cu1477 O1527   1.943   .     S
Cu1477 O1523   1.965   .     S
Cu1477 O1530   1.924   .     S
Cu1477 N1517   2.021   .     S
Cu1478 O1524   1.965   .     S
Cu1478 N1518   2.021   .     S
Cu1478 O1525   1.959   .     S
Cu1478 O1528   1.943   .     S
Cu1478 O1529   1.924   .     S
Cu1478 Cu1273  2.689   1_655 S
H1483  N1519   1.031   .     S
H1485  C333    1.110   1_655 S
H1487  N1316   1.031   1_655 S
H1488  C1252   1.110   1_655 S
H1491  C1252   1.112   1_655 S
H1503  N1521   1.024   .     S
H1507  N1522   1.030   .     S
H1512  C1241   1.074   1_655 S
O1525  C1225   1.290   1_655 S
O1528  C1234   1.306   1_655 S
C1531  O1625   1.297   .     A
C1531  C1534   1.450   .     S
C1531  O1831   1.290   1_455 S
C1532  C1534   1.399   .     A
C1532  H1582   1.084   .     S
C1533  C1578   1.397   .     A
C1533  C1542   1.451   .     S
C1533  C1679   1.416   .     S
C1534  C1780   1.414   1_455 S
C1535  H1583   1.078   .     S
C1535  N1620   1.355   .     A
C1535  C1537   1.427   .     A
C1536  H1584   1.080   .     S
C1536  C1538   1.420   .     A
C1536  N1619   1.357   .     A
C1537  N1619   1.388   .     A
C1537  N1623   1.431   .     S
C1538  N1624   1.416   .     S
C1538  N1620   1.378   .     A
C1539  C1541   1.473   .     S
C1539  O1631   1.297   .     A
C1539  O1731   1.303   .     S
C1540  O1632   1.294   .     A
C1540  C1543   1.472   .     S
C1540  O1834   1.306   1_455 S
C1541  C1548   1.397   .     A
C1541  C1546   1.395   .     A
C1542  O1626   1.298   .     A
C1542  O1730   1.290   .     S
C1543  C1549   1.398   .     A
C1543  C1547   1.395   .     A
C1544  C1546   1.400   .     A
C1544  C1552   1.417   .     A
C1544  N1723   1.425   .     S
C1545  N1622   1.425   .     S
C1545  C1547   1.398   .     A
C1545  C1554   1.415   .     A
C1546  H1717   1.079   .     S
C1547  H1818   1.074   1_455 S
C1548  H1613   1.077   .     S
C1548  C1550   1.407   .     A
C1549  C1551   1.407   .     A
C1549  H1603   1.078   .     S
C1550  C1555   1.426   .     A
C1550  C1552   1.421   .     A
C1551  C1556   1.427   .     A
C1551  C1554   1.420   .     A
C1552  C656    1.398   1_556 S
C1553  C1556   1.413   .     A
C1553  H1616   1.078   .     S
C1553  C1574   1.388   .     A
C1555  C1564   1.413   .     A
C1555  C638    1.421   1_556 S
C1557  N1621   1.447   .     S
C1557  H1586   1.112   .     S
C1557  H873    1.110   1_456 S
C1557  H670    1.110   1_556 S
C1558  H1591   1.111   .     S
C1558  N1622   1.447   .     S
C1558  H1794   1.110   1_455 S
C1558  H1797   1.112   1_455 S
C1559  C1560   1.405   .     A
C1559  C1565   1.405   .     A
C1559  C1576   1.483   .     S
C1560  H1594   1.083   .     S
C1560  C1561   1.399   .     A
C1561  H1595   1.083   .     S
C1561  C1562   1.398   .     A
C1562  H1596   1.082   .     S
C1562  C1563   1.398   .     A
C1563  H1597   1.081   .     S
C1563  C1565   1.398   .     A
C1564  H1617   1.075   .     S
C1564  C1575   1.386   .     A
C1565  H1598   1.083   .     S
C1566  C1567   1.407   .     A
C1566  C1577   1.485   .     S
C1566  C1571   1.405   .     A
C1567  H1599   1.083   .     S
C1567  C1568   1.399   .     A
C1568  H1600   1.082   .     S
C1568  C1569   1.398   .     A
C1569  C1570   1.396   .     A
C1569  H1601   1.081   .     S
C1570  C1571   1.398   .     A
C1570  H1602   1.082   .     S
C1571  H1604   1.082   .     S
C1572  N1623   1.450   .     S
C1572  H1607   1.111   .     S
C1572  H1608   1.111   .     S
C1572  H1606   1.110   .     S
C1573  N1624   1.449   .     S
C1573  H1611   1.110   .     S
C1573  H1610   1.111   .     S
C1573  H1612   1.109   .     S
C1574  H1581   1.082   .     S
C1575  H1592   1.083   .     S
C1575  C636    1.397   1_556 S
C1576  C1636   1.414   .     S
C1577  C920    1.388   1_565 S
C1577  C1737   1.416   1_455 S
C1578  H1618   1.081   .     S
C1578  C964    1.385   1_565 S
Cu1579 O1628   1.959   .     S
Cu1579 O1629   1.943   .     S
Cu1579 O1625   1.965   .     S
Cu1579 O1632   1.924   .     S
Cu1579 N1619   2.021   .     S
Cu1579 Cu1784  2.689   1_455 S
Cu1580 O1626   1.965   .     S
Cu1580 N1620   2.021   .     S
Cu1580 O1627   1.959   .     S
Cu1580 O1630   1.943   .     S
Cu1580 O1631   1.924   .     S
Cu1580 Cu1681  2.689   .     S
H1585  N1621   1.031   .     S
H1589  N1724   1.031   .     S
H1590  C1660   1.110   .     S
H1593  C1660   1.112   .     S
H1605  N1623   1.024   .     S
H1609  N1624   1.030   .     S
H1614  C1649   1.074   .     S
H1615  C1750   1.079   1_455 S
N1621  C1748   1.425   1_455 S
N1622  H1793   1.031   1_455 S
O1627  C1633   1.290   .     S
O1628  C1746   1.290   1_455 S
O1629  C1743   1.303   1_455 S
O1630  C1642   1.306   .     S
C1633  O1727   1.297   .     A
C1633  C1636   1.450   .     S
C1634  C1636   1.399   .     A
C1634  H1684   1.084   .     S
C1635  C1680   1.397   .     A
C1635  C1644   1.451   .     S
C1635  C1781   1.416   .     S
C1637  H1685   1.078   .     S
C1637  N1722   1.355   .     A
C1637  C1639   1.427   .     A
C1638  H1686   1.080   .     S
C1638  C1640   1.420   .     A
C1638  N1721   1.357   .     A
C1639  N1721   1.388   .     A
C1639  N1725   1.431   .     S
C1640  N1726   1.416   .     S
C1640  N1722   1.378   .     A
C1641  C1643   1.473   .     S
C1641  O1733   1.297   .     A
C1641  O1833   1.303   .     S
C1642  O1734   1.294   .     A
C1642  C1645   1.472   .     S
C1643  C1650   1.397   .     A
C1643  C1648   1.395   .     A
C1644  O1728   1.298   .     A
C1644  O1832   1.290   .     S
C1645  C1651   1.398   .     A
C1645  C1649   1.395   .     A
C1646  C1648   1.400   .     A
C1646  C1654   1.417   .     A
C1646  N1825   1.425   .     S
C1647  N1724   1.425   .     S
C1647  C1649   1.398   .     A
C1647  C1656   1.415   .     A
C1648  H1819   1.079   .     S
C1650  H1715   1.077   .     S
C1650  C1652   1.407   .     A
C1651  C1653   1.407   .     A
C1651  H1705   1.078   .     S
C1652  C1657   1.426   .     A
C1652  C1654   1.421   .     A
C1653  C1658   1.427   .     A
C1653  C1656   1.420   .     A
C1654  C758    1.398   1_556 S
C1655  C1658   1.413   .     A
C1655  H1718   1.078   .     S
C1655  C1676   1.388   .     A
C1657  C1666   1.413   .     A
C1657  C740    1.421   1_556 S
C1659  N1723   1.447   .     S
C1659  H1688   1.112   .     S
C1659  H669    1.110   1_556 S
C1659  H772    1.110   1_556 S
C1660  H1693   1.111   .     S
C1660  N1724   1.447   .     S
C1661  C1662   1.405   .     A
C1661  C1667   1.405   .     A
C1661  C1678   1.483   .     S
C1662  H1696   1.083   .     S
C1662  C1663   1.399   .     A
C1663  H1697   1.083   .     S
C1663  C1664   1.398   .     A
C1664  H1698   1.082   .     S
C1664  C1665   1.398   .     A
C1665  H1699   1.081   .     S
C1665  C1667   1.398   .     A
C1666  H1719   1.075   .     S
C1666  C1677   1.386   .     A
C1667  H1700   1.083   .     S
C1668  C1669   1.407   .     A
C1668  C1679   1.485   .     S
C1668  C1673   1.405   .     A
C1669  H1701   1.083   .     S
C1669  C1670   1.399   .     A
C1670  H1702   1.082   .     S
C1670  C1671   1.398   .     A
C1671  C1672   1.396   .     A
C1671  H1703   1.081   .     S
C1672  C1673   1.398   .     A
C1672  H1704   1.082   .     S
C1673  H1706   1.082   .     S
C1674  N1725   1.450   .     S
C1674  H1709   1.111   .     S
C1674  H1710   1.111   .     S
C1674  H1708   1.110   .     S
C1675  N1726   1.449   .     S
C1675  H1713   1.110   .     S
C1675  H1712   1.111   .     S
C1675  H1714   1.109   .     S
C1676  H1683   1.082   .     S
C1677  H1694   1.083   .     S
C1677  C738    1.397   1_556 S
C1678  C1738   1.414   .     S
C1679  C1022   1.388   1_565 S
C1680  H1720   1.081   .     S
C1680  C1066   1.385   1_565 S
Cu1681 O1730   1.959   .     S
Cu1681 O1731   1.943   .     S
Cu1681 O1727   1.965   .     S
Cu1681 O1734   1.924   .     S
Cu1681 N1721   2.021   .     S
Cu1682 O1728   1.965   .     S
Cu1682 N1722   2.021   .     S
Cu1682 O1729   1.959   .     S
Cu1682 O1732   1.943   .     S
Cu1682 O1733   1.924   .     S
Cu1682 Cu1783  2.689   .     S
H1687  N1723   1.031   .     S
H1691  N1826   1.031   .     S
H1692  C1762   1.110   .     S
H1695  C1762   1.112   .     S
H1707  N1725   1.024   .     S
H1711  N1726   1.030   .     S
H1716  C1751   1.074   .     S
O1729  C1735   1.290   .     S
O1732  C1744   1.306   .     S
C1735  O1829   1.297   .     A
C1735  C1738   1.450   .     S
C1736  C1738   1.399   .     A
C1736  H1786   1.084   .     S
C1737  C1782   1.397   .     A
C1737  C1746   1.451   .     S
C1737  C1577   1.416   1_655 S
C1739  H1787   1.078   .     S
C1739  N1824   1.355   .     A
C1739  C1741   1.427   .     A
C1740  H1788   1.080   .     S
C1740  C1742   1.420   .     A
C1740  N1823   1.357   .     A
C1741  N1823   1.388   .     A
C1741  N1827   1.431   .     S
C1742  N1828   1.416   .     S
C1742  N1824   1.378   .     A
C1743  C1745   1.473   .     S
C1743  O1835   1.297   .     A
C1743  O1629   1.303   1_655 S
C1744  O1836   1.294   .     A
C1744  C1747   1.472   .     S
C1745  C1752   1.397   .     A
C1745  C1750   1.395   .     A
C1746  O1830   1.298   .     A
C1746  O1628   1.290   1_655 S
C1747  C1753   1.398   .     A
C1747  C1751   1.395   .     A
C1748  C1750   1.400   .     A
C1748  C1756   1.417   .     A
C1748  N1621   1.425   1_655 S
C1749  N1826   1.425   .     S
C1749  C1751   1.398   .     A
C1749  C1758   1.415   .     A
C1750  H1615   1.079   1_655 S
C1752  H1817   1.077   .     S
C1752  C1754   1.407   .     A
C1753  C1755   1.407   .     A
C1753  H1807   1.078   .     S
C1754  C1759   1.426   .     A
C1754  C1756   1.421   .     A
C1755  C1760   1.427   .     A
C1755  C1758   1.420   .     A
C1756  C860    1.398   1_556 S
C1757  C1760   1.413   .     A
C1757  H1820   1.078   .     S
C1757  C1778   1.388   .     A
C1759  C1768   1.413   .     A
C1759  C842    1.421   1_556 S
C1761  N1825   1.447   .     S
C1761  H1790   1.112   .     S
C1761  H771    1.110   1_556 S
C1761  H874    1.110   1_556 S
C1762  H1795   1.111   .     S
C1762  N1826   1.447   .     S
C1763  C1764   1.405   .     A
C1763  C1769   1.405   .     A
C1763  C1780   1.483   .     S
C1764  H1798   1.083   .     S
C1764  C1765   1.399   .     A
C1765  H1799   1.083   .     S
C1765  C1766   1.398   .     A
C1766  H1800   1.082   .     S
C1766  C1767   1.398   .     A
C1767  H1801   1.081   .     S
C1767  C1769   1.398   .     A
C1768  H1821   1.075   .     S
C1768  C1779   1.386   .     A
C1769  H1802   1.083   .     S
C1770  C1771   1.407   .     A
C1770  C1781   1.485   .     S
C1770  C1775   1.405   .     A
C1771  H1803   1.083   .     S
C1771  C1772   1.399   .     A
C1772  H1804   1.082   .     S
C1772  C1773   1.398   .     A
C1773  C1774   1.396   .     A
C1773  H1805   1.081   .     S
C1774  C1775   1.398   .     A
C1774  H1806   1.082   .     S
C1775  H1808   1.082   .     S
C1776  N1827   1.450   .     S
C1776  H1811   1.111   .     S
C1776  H1812   1.111   .     S
C1776  H1810   1.110   .     S
C1777  N1828   1.449   .     S
C1777  H1815   1.110   .     S
C1777  H1814   1.111   .     S
C1777  H1816   1.109   .     S
C1778  H1785   1.082   .     S
C1779  H1796   1.083   .     S
C1779  C840    1.397   1_556 S
C1780  C1534   1.414   1_655 S
C1781  C1124   1.388   1_565 S
C1782  H1822   1.081   .     S
C1782  C1168   1.385   1_565 S
Cu1783 O1832   1.959   .     S
Cu1783 O1833   1.943   .     S
Cu1783 O1829   1.965   .     S
Cu1783 O1836   1.924   .     S
Cu1783 N1823   2.021   .     S
Cu1784 O1830   1.965   .     S
Cu1784 N1824   2.021   .     S
Cu1784 O1831   1.959   .     S
Cu1784 O1834   1.943   .     S
Cu1784 O1835   1.924   .     S
Cu1784 Cu1579  2.689   1_655 S
H1789  N1825   1.031   .     S
H1791  C639    1.110   1_655 S
H1793  N1622   1.031   1_655 S
H1794  C1558   1.110   1_655 S
H1797  C1558   1.112   1_655 S
H1809  N1827   1.024   .     S
H1813  N1828   1.030   .     S
H1818  C1547   1.074   1_655 S
O1831  C1531   1.290   1_655 S
O1834  C1540   1.306   1_655 S
