data_str_m1_o10_o16_pcu_sym.195
_audit_creation_date              2020-01-03
_audit_creation_method            'Materials Studio'
_symmetry_space_group_name_H-M    'P1'
_symmetry_Int_Tables_number       1
_symmetry_cell_setting            triclinic
loop_
_symmetry_equiv_pos_as_xyz
  x,y,z
_cell_length_a                    32.6668
_cell_length_b                    32.6048
_cell_length_c                    30.7139
_cell_angle_alpha                 96.5344
_cell_angle_beta                  74.7744
_cell_angle_gamma                 97.9816
loop_
_atom_site_label
_atom_site_type_symbol
_atom_site_fract_x
_atom_site_fract_y
_atom_site_fract_z
_atom_site_U_iso_or_equiv
_atom_site_adp_type
_atom_site_occupancy
Zn1    Zn    0.19338   0.13994   0.28734   0.00000  Uiso   1.00
Zn2    Zn    0.13379   0.12458   0.21876   0.00000  Uiso   1.00
Zn3    Zn    0.21056   0.19775   0.20657   0.00000  Uiso   1.00
Zn4    Zn    0.12893   0.20439   0.28734   0.00000  Uiso   1.00
O5     O     0.16667   0.16667   0.25000   0.00000  Uiso   1.00
O6     O     0.07071   0.18878   0.28213   0.00000  Uiso   1.00
O7     O     0.25491   0.15226   0.27013   0.00000  Uiso   1.00
O8     O     0.13760   0.06944   0.23413   0.00000  Uiso   1.00
O9     O     0.20345   0.25620   0.21361   0.00000  Uiso   1.00
O10    O     0.15451   0.12637   0.15458   0.00000  Uiso   1.00
O11    O     0.12940   0.20391   0.34968   0.00000  Uiso   1.00
O12    O     0.20824   0.17759   0.14606   0.00000  Uiso   1.00
O13    O     0.17451   0.15880   0.34968   0.00000  Uiso   1.00
O14    O     0.17930   0.08019   0.28213   0.00000  Uiso   1.00
O15    O     0.14632   0.26085   0.27014   0.00000  Uiso   1.00
O16    O     0.07412   0.13291   0.23413   0.00000  Uiso   1.00
O17    O     0.26693   0.19272   0.21360   0.00000  Uiso   1.00
C18    C     0.05304   0.16016   0.25962   0.00000  Uiso   1.00
C19    C     0.28065   0.17361   0.24036   0.00000  Uiso   1.00
C20    C     0.15662   0.05601   0.25977   0.00000  Uiso   1.00
C21    C     0.17633   0.27790   0.24055   0.00000  Uiso   1.00
C22    C     0.18513   0.14824   0.12918   0.00000  Uiso   1.00
C23    C     0.14797   0.18452   0.37157   0.00000  Uiso   1.00
C24    C     0.21458   0.09679   0.01024   0.00000  Uiso   1.00
C25    C     0.19193   0.13990   0.08021   0.00000  Uiso   1.00
C26    C     0.11859   0.22656   0.44510   0.00000  Uiso   1.00
C27    C     0.10473   0.23007   0.49262   0.00000  Uiso   1.00
C28    C     0.11425   0.20079   0.01780   0.00000  Uiso   1.00
C29    C     0.14066   0.16975   0.49482   0.00000  Uiso   1.00
C30    C     0.14320   0.15958   0.44842   0.00000  Uiso   1.00
C31    C     0.16462   0.14833   0.01576   0.00000  Uiso   1.00
C32    C     0.18510   0.11367   0.49176   0.00000  Uiso   1.00
C33    C     0.17337   0.09583   0.45155   0.00000  Uiso   1.00
C34    C     0.15001   0.11821   0.43109   0.00000  Uiso   1.00
C35    C     0.17089   0.16215   0.05877   0.00000  Uiso   1.00
C36    C     0.21579   0.10827   0.05583   0.00000  Uiso   1.00
C37    C     0.13616   0.19005   0.42216   0.00000  Uiso   1.00
H38    H     0.15926   0.19018   0.07700   0.00000  Uiso   1.00
C39    C     0.32608   0.17490   0.23667   0.00000  Uiso   1.00
H40    H     0.01485   0.19068   0.20896   0.00000  Uiso   1.00
C41    C     0.00788   0.15711   0.26583   0.00000  Uiso   1.00
C42    C     0.18020   0.32257   0.23908   0.00000  Uiso   1.00
H43    H     0.20849   0.00393   0.21637   0.00000  Uiso   1.00
C44    C     0.15048   0.01248   0.26471   0.00000  Uiso   1.00
C45    C     0.24374   0.08946   0.07738   0.00000  Uiso   1.00
O46    O     0.22873   0.07410   0.11352   0.00000  Uiso   1.00
O47    O     0.28734   0.08991   0.05658   0.00000  Uiso   1.00
H48    H     0.30301   0.07638   0.07455   0.00000  Uiso   1.00
Br49   Br    0.30862   0.13008   0.31904   0.00000  Uiso   1.00
Br50   Br    0.09603   0.32629   0.30346   0.00000  Uiso   1.00
C51    C     0.18021   0.05209   0.43520   0.00000  Uiso   1.00
O52    O     0.20087   0.04366   0.39654   0.00000  Uiso   1.00
O53    O     0.16498   0.02096   0.46515   0.00000  Uiso   1.00
H54    H     0.17473   0.32641   0.45155   0.00000  Uiso   1.00
C55    C     0.24607   0.06980   0.48147   0.00000  Uiso   1.00
O56    O     0.24966   0.03637   0.49377   0.00000  Uiso   1.00
O57    O     0.27139   0.08281   0.44002   0.00000  Uiso   1.00
H58    H     0.29149   0.06189   0.42328   0.00000  Uiso   1.00
Br59   Br    0.11129   0.27206   0.41328   0.00000  Uiso   1.00
C60    C     0.09020   0.19800   0.06593   0.00000  Uiso   1.00
O61    O     0.07248   0.16439   0.07888   0.00000  Uiso   1.00
O62    O     0.08893   0.23316   0.09671   0.00000  Uiso   1.00
H63    H     0.07202   0.22688   0.12844   0.00000  Uiso   1.00
Br64   Br    0.07104   0.27427   0.02269   0.00000  Uiso   1.00
C65    C     0.12376   0.09648   0.40015   0.00000  Uiso   1.00
O66    O     0.13578   0.06704   0.37386   0.00000  Uiso   1.00
O67    O     0.08455   0.11000   0.40160   0.00000  Uiso   1.00
H68    H     0.06968   0.09324   0.37911   0.00000  Uiso   1.00
Zn69   Zn    0.52672   0.13994   0.28734   0.00000  Uiso   1.00
Zn70   Zn    0.46713   0.12458   0.21876   0.00000  Uiso   1.00
Zn71   Zn    0.54389   0.19775   0.20657   0.00000  Uiso   1.00
Zn72   Zn    0.46226   0.20439   0.28734   0.00000  Uiso   1.00
O73    O     0.50000   0.16667   0.25000   0.00000  Uiso   1.00
O74    O     0.40405   0.18878   0.28213   0.00000  Uiso   1.00
O75    O     0.58824   0.15226   0.27013   0.00000  Uiso   1.00
O76    O     0.47093   0.06944   0.23413   0.00000  Uiso   1.00
O77    O     0.53678   0.25620   0.21361   0.00000  Uiso   1.00
O78    O     0.48784   0.12637   0.15458   0.00000  Uiso   1.00
O79    O     0.46274   0.20391   0.34968   0.00000  Uiso   1.00
O80    O     0.54157   0.17759   0.14606   0.00000  Uiso   1.00
O81    O     0.50785   0.15880   0.34968   0.00000  Uiso   1.00
O82    O     0.51264   0.08019   0.28213   0.00000  Uiso   1.00
O83    O     0.47965   0.26085   0.27014   0.00000  Uiso   1.00
O84    O     0.40745   0.13291   0.23413   0.00000  Uiso   1.00
O85    O     0.60026   0.19272   0.21360   0.00000  Uiso   1.00
C86    C     0.38638   0.16016   0.25962   0.00000  Uiso   1.00
C87    C     0.61399   0.17361   0.24036   0.00000  Uiso   1.00
C88    C     0.48995   0.05601   0.25977   0.00000  Uiso   1.00
C89    C     0.50966   0.27790   0.24055   0.00000  Uiso   1.00
C90    C     0.51847   0.14824   0.12918   0.00000  Uiso   1.00
C91    C     0.48130   0.18452   0.37157   0.00000  Uiso   1.00
C92    C     0.54791   0.09679   0.01024   0.00000  Uiso   1.00
C93    C     0.52526   0.13990   0.08021   0.00000  Uiso   1.00
C94    C     0.45192   0.22656   0.44510   0.00000  Uiso   1.00
C95    C     0.43807   0.23007   0.49262   0.00000  Uiso   1.00
C96    C     0.44758   0.20079   0.01780   0.00000  Uiso   1.00
C97    C     0.47400   0.16975   0.49482   0.00000  Uiso   1.00
C98    C     0.47653   0.15958   0.44842   0.00000  Uiso   1.00
C99    C     0.49795   0.14833   0.01576   0.00000  Uiso   1.00
C100   C     0.51843   0.11367   0.49176   0.00000  Uiso   1.00
C101   C     0.50670   0.09583   0.45155   0.00000  Uiso   1.00
C102   C     0.48335   0.11821   0.43109   0.00000  Uiso   1.00
C103   C     0.50422   0.16215   0.05877   0.00000  Uiso   1.00
C104   C     0.54912   0.10827   0.05583   0.00000  Uiso   1.00
C105   C     0.46949   0.19005   0.42216   0.00000  Uiso   1.00
H106   H     0.49260   0.19018   0.07700   0.00000  Uiso   1.00
C107   C     0.65941   0.17490   0.23667   0.00000  Uiso   1.00
H108   H     0.34819   0.19068   0.20896   0.00000  Uiso   1.00
C109   C     0.34121   0.15711   0.26583   0.00000  Uiso   1.00
C110   C     0.51354   0.32257   0.23908   0.00000  Uiso   1.00
H111   H     0.54182   0.00393   0.21637   0.00000  Uiso   1.00
C112   C     0.48382   0.01248   0.26471   0.00000  Uiso   1.00
C113   C     0.57707   0.08946   0.07738   0.00000  Uiso   1.00
O114   O     0.56207   0.07410   0.11352   0.00000  Uiso   1.00
O115   O     0.62067   0.08991   0.05658   0.00000  Uiso   1.00
H116   H     0.63634   0.07638   0.07455   0.00000  Uiso   1.00
Br117  Br    0.64196   0.13008   0.31904   0.00000  Uiso   1.00
Br118  Br    0.42937   0.32629   0.30346   0.00000  Uiso   1.00
C119   C     0.51354   0.05209   0.43520   0.00000  Uiso   1.00
O120   O     0.53421   0.04366   0.39654   0.00000  Uiso   1.00
O121   O     0.49831   0.02096   0.46515   0.00000  Uiso   1.00
H122   H     0.50807   0.32641   0.45155   0.00000  Uiso   1.00
C123   C     0.57940   0.06980   0.48147   0.00000  Uiso   1.00
O124   O     0.58300   0.03637   0.49377   0.00000  Uiso   1.00
O125   O     0.60473   0.08281   0.44002   0.00000  Uiso   1.00
H126   H     0.62483   0.06189   0.42328   0.00000  Uiso   1.00
Br127  Br    0.44462   0.27206   0.41328   0.00000  Uiso   1.00
C128   C     0.42353   0.19800   0.06593   0.00000  Uiso   1.00
O129   O     0.40582   0.16439   0.07888   0.00000  Uiso   1.00
O130   O     0.42226   0.23316   0.09671   0.00000  Uiso   1.00
H131   H     0.40535   0.22688   0.12844   0.00000  Uiso   1.00
Br132  Br    0.40438   0.27427   0.02269   0.00000  Uiso   1.00
C133   C     0.45709   0.09648   0.40015   0.00000  Uiso   1.00
O134   O     0.46911   0.06704   0.37386   0.00000  Uiso   1.00
O135   O     0.41788   0.11000   0.40160   0.00000  Uiso   1.00
H136   H     0.40302   0.09324   0.37911   0.00000  Uiso   1.00
Zn137  Zn    0.86005   0.13994   0.28734   0.00000  Uiso   1.00
Zn138  Zn    0.80046   0.12458   0.21876   0.00000  Uiso   1.00
Zn139  Zn    0.87723   0.19775   0.20657   0.00000  Uiso   1.00
Zn140  Zn    0.79560   0.20439   0.28734   0.00000  Uiso   1.00
O141   O     0.83333   0.16667   0.25000   0.00000  Uiso   1.00
O142   O     0.73738   0.18878   0.28213   0.00000  Uiso   1.00
O143   O     0.92158   0.15226   0.27013   0.00000  Uiso   1.00
O144   O     0.80426   0.06944   0.23413   0.00000  Uiso   1.00
O145   O     0.87012   0.25620   0.21361   0.00000  Uiso   1.00
O146   O     0.82118   0.12637   0.15458   0.00000  Uiso   1.00
O147   O     0.79607   0.20391   0.34968   0.00000  Uiso   1.00
O148   O     0.87491   0.17759   0.14606   0.00000  Uiso   1.00
O149   O     0.84118   0.15880   0.34968   0.00000  Uiso   1.00
O150   O     0.84597   0.08019   0.28213   0.00000  Uiso   1.00
O151   O     0.81298   0.26085   0.27014   0.00000  Uiso   1.00
O152   O     0.74078   0.13291   0.23413   0.00000  Uiso   1.00
O153   O     0.93360   0.19272   0.21360   0.00000  Uiso   1.00
C154   C     0.71971   0.16016   0.25962   0.00000  Uiso   1.00
C155   C     0.94732   0.17361   0.24036   0.00000  Uiso   1.00
C156   C     0.82329   0.05601   0.25977   0.00000  Uiso   1.00
C157   C     0.84300   0.27790   0.24055   0.00000  Uiso   1.00
C158   C     0.85180   0.14824   0.12918   0.00000  Uiso   1.00
C159   C     0.81464   0.18452   0.37157   0.00000  Uiso   1.00
C160   C     0.88125   0.09679   0.01024   0.00000  Uiso   1.00
C161   C     0.85860   0.13990   0.08021   0.00000  Uiso   1.00
C162   C     0.78526   0.22656   0.44510   0.00000  Uiso   1.00
C163   C     0.77140   0.23007   0.49262   0.00000  Uiso   1.00
C164   C     0.78092   0.20079   0.01780   0.00000  Uiso   1.00
C165   C     0.80733   0.16975   0.49482   0.00000  Uiso   1.00
C166   C     0.80986   0.15958   0.44842   0.00000  Uiso   1.00
C167   C     0.83128   0.14833   0.01576   0.00000  Uiso   1.00
C168   C     0.85177   0.11367   0.49176   0.00000  Uiso   1.00
C169   C     0.84004   0.09583   0.45155   0.00000  Uiso   1.00
C170   C     0.81668   0.11821   0.43109   0.00000  Uiso   1.00
C171   C     0.83756   0.16215   0.05877   0.00000  Uiso   1.00
C172   C     0.88246   0.10827   0.05583   0.00000  Uiso   1.00
C173   C     0.80283   0.19005   0.42216   0.00000  Uiso   1.00
H174   H     0.82593   0.19018   0.07700   0.00000  Uiso   1.00
C175   C     0.99274   0.17490   0.23667   0.00000  Uiso   1.00
H176   H     0.68152   0.19068   0.20896   0.00000  Uiso   1.00
C177   C     0.67455   0.15711   0.26583   0.00000  Uiso   1.00
C178   C     0.84687   0.32257   0.23908   0.00000  Uiso   1.00
H179   H     0.87516   0.00393   0.21637   0.00000  Uiso   1.00
C180   C     0.81715   0.01248   0.26471   0.00000  Uiso   1.00
C181   C     0.91040   0.08946   0.07738   0.00000  Uiso   1.00
O182   O     0.89540   0.07410   0.11352   0.00000  Uiso   1.00
O183   O     0.95401   0.08991   0.05658   0.00000  Uiso   1.00
H184   H     0.96967   0.07638   0.07455   0.00000  Uiso   1.00
Br185  Br    0.97529   0.13008   0.31904   0.00000  Uiso   1.00
Br186  Br    0.76270   0.32629   0.30346   0.00000  Uiso   1.00
C187   C     0.84688   0.05209   0.43520   0.00000  Uiso   1.00
O188   O     0.86754   0.04366   0.39654   0.00000  Uiso   1.00
O189   O     0.83165   0.02096   0.46515   0.00000  Uiso   1.00
H190   H     0.84140   0.32641   0.45155   0.00000  Uiso   1.00
C191   C     0.91274   0.06980   0.48147   0.00000  Uiso   1.00
O192   O     0.91633   0.03637   0.49377   0.00000  Uiso   1.00
O193   O     0.93806   0.08281   0.44002   0.00000  Uiso   1.00
H194   H     0.95816   0.06189   0.42328   0.00000  Uiso   1.00
Br195  Br    0.77795   0.27206   0.41328   0.00000  Uiso   1.00
C196   C     0.75687   0.19800   0.06593   0.00000  Uiso   1.00
O197   O     0.73915   0.16439   0.07888   0.00000  Uiso   1.00
O198   O     0.75560   0.23316   0.09671   0.00000  Uiso   1.00
H199   H     0.73869   0.22688   0.12844   0.00000  Uiso   1.00
Br200  Br    0.73771   0.27427   0.02269   0.00000  Uiso   1.00
C201   C     0.79043   0.09648   0.40015   0.00000  Uiso   1.00
O202   O     0.80245   0.06704   0.37386   0.00000  Uiso   1.00
O203   O     0.75122   0.11000   0.40160   0.00000  Uiso   1.00
H204   H     0.73635   0.09324   0.37911   0.00000  Uiso   1.00
Zn205  Zn    0.19338   0.47327   0.28734   0.00000  Uiso   1.00
Zn206  Zn    0.13379   0.45791   0.21876   0.00000  Uiso   1.00
Zn207  Zn    0.21056   0.53109   0.20657   0.00000  Uiso   1.00
Zn208  Zn    0.12893   0.53773   0.28734   0.00000  Uiso   1.00
O209   O     0.16667   0.50000   0.25000   0.00000  Uiso   1.00
O210   O     0.07071   0.52211   0.28213   0.00000  Uiso   1.00
O211   O     0.25491   0.48559   0.27013   0.00000  Uiso   1.00
O212   O     0.13760   0.40277   0.23413   0.00000  Uiso   1.00
O213   O     0.20345   0.58953   0.21361   0.00000  Uiso   1.00
O214   O     0.15451   0.45970   0.15458   0.00000  Uiso   1.00
O215   O     0.12940   0.53724   0.34968   0.00000  Uiso   1.00
O216   O     0.20824   0.51092   0.14606   0.00000  Uiso   1.00
O217   O     0.17451   0.49213   0.34968   0.00000  Uiso   1.00
O218   O     0.17930   0.41352   0.28213   0.00000  Uiso   1.00
O219   O     0.14632   0.59418   0.27014   0.00000  Uiso   1.00
O220   O     0.07412   0.46625   0.23413   0.00000  Uiso   1.00
O221   O     0.26693   0.52605   0.21360   0.00000  Uiso   1.00
C222   C     0.05304   0.49349   0.25962   0.00000  Uiso   1.00
C223   C     0.28065   0.50694   0.24036   0.00000  Uiso   1.00
C224   C     0.15662   0.38935   0.25977   0.00000  Uiso   1.00
C225   C     0.17633   0.61124   0.24055   0.00000  Uiso   1.00
C226   C     0.18513   0.48158   0.12918   0.00000  Uiso   1.00
C227   C     0.14797   0.51785   0.37157   0.00000  Uiso   1.00
C228   C     0.21458   0.43012   0.01024   0.00000  Uiso   1.00
C229   C     0.19193   0.47323   0.08021   0.00000  Uiso   1.00
C230   C     0.11859   0.55990   0.44510   0.00000  Uiso   1.00
C231   C     0.10473   0.56340   0.49262   0.00000  Uiso   1.00
C232   C     0.11425   0.53413   0.01780   0.00000  Uiso   1.00
C233   C     0.14066   0.50308   0.49482   0.00000  Uiso   1.00
C234   C     0.14320   0.49291   0.44842   0.00000  Uiso   1.00
C235   C     0.16462   0.48167   0.01576   0.00000  Uiso   1.00
C236   C     0.18510   0.44700   0.49176   0.00000  Uiso   1.00
C237   C     0.17337   0.42917   0.45155   0.00000  Uiso   1.00
C238   C     0.15001   0.45154   0.43109   0.00000  Uiso   1.00
C239   C     0.17089   0.49549   0.05877   0.00000  Uiso   1.00
C240   C     0.21579   0.44161   0.05583   0.00000  Uiso   1.00
C241   C     0.13616   0.52338   0.42216   0.00000  Uiso   1.00
H242   H     0.15926   0.52351   0.07700   0.00000  Uiso   1.00
C243   C     0.32608   0.50824   0.23667   0.00000  Uiso   1.00
H244   H     0.01485   0.52401   0.20896   0.00000  Uiso   1.00
C245   C     0.00788   0.49044   0.26583   0.00000  Uiso   1.00
C246   C     0.18020   0.65591   0.23908   0.00000  Uiso   1.00
H247   H     0.20849   0.33727   0.21637   0.00000  Uiso   1.00
C248   C     0.15048   0.34581   0.26471   0.00000  Uiso   1.00
C249   C     0.24374   0.42279   0.07738   0.00000  Uiso   1.00
O250   O     0.22873   0.40743   0.11352   0.00000  Uiso   1.00
O251   O     0.28734   0.42324   0.05658   0.00000  Uiso   1.00
H252   H     0.30301   0.40971   0.07455   0.00000  Uiso   1.00
Br253  Br    0.30862   0.46341   0.31904   0.00000  Uiso   1.00
Br254  Br    0.09603   0.65962   0.30346   0.00000  Uiso   1.00
C255   C     0.18021   0.38542   0.43520   0.00000  Uiso   1.00
O256   O     0.20087   0.37699   0.39654   0.00000  Uiso   1.00
O257   O     0.16498   0.35430   0.46515   0.00000  Uiso   1.00
H258   H     0.17473   0.65975   0.45155   0.00000  Uiso   1.00
C259   C     0.24607   0.40314   0.48147   0.00000  Uiso   1.00
O260   O     0.24966   0.36970   0.49377   0.00000  Uiso   1.00
O261   O     0.27139   0.41614   0.44002   0.00000  Uiso   1.00
H262   H     0.29149   0.39522   0.42328   0.00000  Uiso   1.00
Br263  Br    0.11129   0.60539   0.41328   0.00000  Uiso   1.00
C264   C     0.09020   0.53134   0.06593   0.00000  Uiso   1.00
O265   O     0.07248   0.49772   0.07888   0.00000  Uiso   1.00
O266   O     0.08893   0.56649   0.09671   0.00000  Uiso   1.00
H267   H     0.07202   0.56021   0.12844   0.00000  Uiso   1.00
Br268  Br    0.07104   0.60761   0.02269   0.00000  Uiso   1.00
C269   C     0.12376   0.42981   0.40015   0.00000  Uiso   1.00
O270   O     0.13578   0.40037   0.37386   0.00000  Uiso   1.00
O271   O     0.08455   0.44333   0.40160   0.00000  Uiso   1.00
H272   H     0.06968   0.42657   0.37911   0.00000  Uiso   1.00
Zn273  Zn    0.52672   0.47327   0.28734   0.00000  Uiso   1.00
Zn274  Zn    0.46713   0.45791   0.21876   0.00000  Uiso   1.00
Zn275  Zn    0.54389   0.53109   0.20657   0.00000  Uiso   1.00
Zn276  Zn    0.46226   0.53773   0.28734   0.00000  Uiso   1.00
O277   O     0.50000   0.50000   0.25000   0.00000  Uiso   1.00
O278   O     0.40405   0.52211   0.28213   0.00000  Uiso   1.00
O279   O     0.58824   0.48559   0.27013   0.00000  Uiso   1.00
O280   O     0.47093   0.40277   0.23413   0.00000  Uiso   1.00
O281   O     0.53678   0.58953   0.21361   0.00000  Uiso   1.00
O282   O     0.48784   0.45970   0.15458   0.00000  Uiso   1.00
O283   O     0.46274   0.53724   0.34968   0.00000  Uiso   1.00
O284   O     0.54157   0.51092   0.14606   0.00000  Uiso   1.00
O285   O     0.50785   0.49213   0.34968   0.00000  Uiso   1.00
O286   O     0.51264   0.41352   0.28213   0.00000  Uiso   1.00
O287   O     0.47965   0.59418   0.27014   0.00000  Uiso   1.00
O288   O     0.40745   0.46625   0.23413   0.00000  Uiso   1.00
O289   O     0.60026   0.52605   0.21360   0.00000  Uiso   1.00
C290   C     0.38638   0.49349   0.25962   0.00000  Uiso   1.00
C291   C     0.61399   0.50694   0.24036   0.00000  Uiso   1.00
C292   C     0.48995   0.38935   0.25977   0.00000  Uiso   1.00
C293   C     0.50966   0.61124   0.24055   0.00000  Uiso   1.00
C294   C     0.51847   0.48158   0.12918   0.00000  Uiso   1.00
C295   C     0.48130   0.51785   0.37157   0.00000  Uiso   1.00
C296   C     0.54791   0.43012   0.01024   0.00000  Uiso   1.00
C297   C     0.52526   0.47323   0.08021   0.00000  Uiso   1.00
C298   C     0.45192   0.55990   0.44510   0.00000  Uiso   1.00
C299   C     0.43807   0.56340   0.49262   0.00000  Uiso   1.00
C300   C     0.44758   0.53413   0.01780   0.00000  Uiso   1.00
C301   C     0.47400   0.50308   0.49482   0.00000  Uiso   1.00
C302   C     0.47653   0.49291   0.44842   0.00000  Uiso   1.00
C303   C     0.49795   0.48167   0.01576   0.00000  Uiso   1.00
C304   C     0.51843   0.44700   0.49176   0.00000  Uiso   1.00
C305   C     0.50670   0.42917   0.45155   0.00000  Uiso   1.00
C306   C     0.48335   0.45154   0.43109   0.00000  Uiso   1.00
C307   C     0.50422   0.49549   0.05877   0.00000  Uiso   1.00
C308   C     0.54912   0.44161   0.05583   0.00000  Uiso   1.00
C309   C     0.46949   0.52338   0.42216   0.00000  Uiso   1.00
H310   H     0.49260   0.52351   0.07700   0.00000  Uiso   1.00
C311   C     0.65941   0.50824   0.23667   0.00000  Uiso   1.00
H312   H     0.34819   0.52401   0.20896   0.00000  Uiso   1.00
C313   C     0.34121   0.49044   0.26583   0.00000  Uiso   1.00
C314   C     0.51354   0.65591   0.23908   0.00000  Uiso   1.00
H315   H     0.54182   0.33727   0.21637   0.00000  Uiso   1.00
C316   C     0.48382   0.34581   0.26471   0.00000  Uiso   1.00
C317   C     0.57707   0.42279   0.07738   0.00000  Uiso   1.00
O318   O     0.56207   0.40743   0.11352   0.00000  Uiso   1.00
O319   O     0.62067   0.42324   0.05658   0.00000  Uiso   1.00
H320   H     0.63634   0.40971   0.07455   0.00000  Uiso   1.00
Br321  Br    0.64196   0.46341   0.31904   0.00000  Uiso   1.00
Br322  Br    0.42937   0.65962   0.30346   0.00000  Uiso   1.00
C323   C     0.51354   0.38542   0.43520   0.00000  Uiso   1.00
O324   O     0.53421   0.37699   0.39654   0.00000  Uiso   1.00
O325   O     0.49831   0.35430   0.46515   0.00000  Uiso   1.00
H326   H     0.50807   0.65975   0.45155   0.00000  Uiso   1.00
C327   C     0.57940   0.40314   0.48147   0.00000  Uiso   1.00
O328   O     0.58300   0.36970   0.49377   0.00000  Uiso   1.00
O329   O     0.60473   0.41614   0.44002   0.00000  Uiso   1.00
H330   H     0.62483   0.39522   0.42328   0.00000  Uiso   1.00
Br331  Br    0.44462   0.60539   0.41328   0.00000  Uiso   1.00
C332   C     0.42353   0.53134   0.06593   0.00000  Uiso   1.00
O333   O     0.40582   0.49772   0.07888   0.00000  Uiso   1.00
O334   O     0.42226   0.56649   0.09671   0.00000  Uiso   1.00
H335   H     0.40535   0.56021   0.12844   0.00000  Uiso   1.00
Br336  Br    0.40438   0.60761   0.02269   0.00000  Uiso   1.00
C337   C     0.45709   0.42981   0.40015   0.00000  Uiso   1.00
O338   O     0.46911   0.40037   0.37386   0.00000  Uiso   1.00
O339   O     0.41788   0.44333   0.40160   0.00000  Uiso   1.00
H340   H     0.40302   0.42657   0.37911   0.00000  Uiso   1.00
Zn341  Zn    0.86005   0.47327   0.28734   0.00000  Uiso   1.00
Zn342  Zn    0.80046   0.45791   0.21876   0.00000  Uiso   1.00
Zn343  Zn    0.87723   0.53109   0.20657   0.00000  Uiso   1.00
Zn344  Zn    0.79560   0.53773   0.28734   0.00000  Uiso   1.00
O345   O     0.83333   0.50000   0.25000   0.00000  Uiso   1.00
O346   O     0.73738   0.52211   0.28213   0.00000  Uiso   1.00
O347   O     0.92158   0.48559   0.27013   0.00000  Uiso   1.00
O348   O     0.80426   0.40277   0.23413   0.00000  Uiso   1.00
O349   O     0.87012   0.58953   0.21361   0.00000  Uiso   1.00
O350   O     0.82118   0.45970   0.15458   0.00000  Uiso   1.00
O351   O     0.79607   0.53724   0.34968   0.00000  Uiso   1.00
O352   O     0.87491   0.51092   0.14606   0.00000  Uiso   1.00
O353   O     0.84118   0.49213   0.34968   0.00000  Uiso   1.00
O354   O     0.84597   0.41352   0.28213   0.00000  Uiso   1.00
O355   O     0.81298   0.59418   0.27014   0.00000  Uiso   1.00
O356   O     0.74078   0.46625   0.23413   0.00000  Uiso   1.00
O357   O     0.93360   0.52605   0.21360   0.00000  Uiso   1.00
C358   C     0.71971   0.49349   0.25962   0.00000  Uiso   1.00
C359   C     0.94732   0.50694   0.24036   0.00000  Uiso   1.00
C360   C     0.82329   0.38935   0.25977   0.00000  Uiso   1.00
C361   C     0.84300   0.61124   0.24055   0.00000  Uiso   1.00
C362   C     0.85180   0.48158   0.12918   0.00000  Uiso   1.00
C363   C     0.81464   0.51785   0.37157   0.00000  Uiso   1.00
C364   C     0.88125   0.43012   0.01024   0.00000  Uiso   1.00
C365   C     0.85860   0.47323   0.08021   0.00000  Uiso   1.00
C366   C     0.78526   0.55990   0.44510   0.00000  Uiso   1.00
C367   C     0.77140   0.56340   0.49262   0.00000  Uiso   1.00
C368   C     0.78092   0.53413   0.01780   0.00000  Uiso   1.00
C369   C     0.80733   0.50308   0.49482   0.00000  Uiso   1.00
C370   C     0.80986   0.49291   0.44842   0.00000  Uiso   1.00
C371   C     0.83128   0.48167   0.01576   0.00000  Uiso   1.00
C372   C     0.85177   0.44700   0.49176   0.00000  Uiso   1.00
C373   C     0.84004   0.42917   0.45155   0.00000  Uiso   1.00
C374   C     0.81668   0.45154   0.43109   0.00000  Uiso   1.00
C375   C     0.83756   0.49549   0.05877   0.00000  Uiso   1.00
C376   C     0.88246   0.44161   0.05583   0.00000  Uiso   1.00
C377   C     0.80283   0.52338   0.42216   0.00000  Uiso   1.00
H378   H     0.82593   0.52351   0.07700   0.00000  Uiso   1.00
C379   C     0.99274   0.50824   0.23667   0.00000  Uiso   1.00
H380   H     0.68152   0.52401   0.20896   0.00000  Uiso   1.00
C381   C     0.67455   0.49044   0.26583   0.00000  Uiso   1.00
C382   C     0.84687   0.65591   0.23908   0.00000  Uiso   1.00
H383   H     0.87516   0.33727   0.21637   0.00000  Uiso   1.00
C384   C     0.81715   0.34581   0.26471   0.00000  Uiso   1.00
C385   C     0.91040   0.42279   0.07738   0.00000  Uiso   1.00
O386   O     0.89540   0.40743   0.11352   0.00000  Uiso   1.00
O387   O     0.95401   0.42324   0.05658   0.00000  Uiso   1.00
H388   H     0.96967   0.40971   0.07455   0.00000  Uiso   1.00
Br389  Br    0.97529   0.46341   0.31904   0.00000  Uiso   1.00
Br390  Br    0.76270   0.65962   0.30346   0.00000  Uiso   1.00
C391   C     0.84688   0.38542   0.43520   0.00000  Uiso   1.00
O392   O     0.86754   0.37699   0.39654   0.00000  Uiso   1.00
O393   O     0.83165   0.35430   0.46515   0.00000  Uiso   1.00
H394   H     0.84140   0.65975   0.45155   0.00000  Uiso   1.00
C395   C     0.91274   0.40314   0.48147   0.00000  Uiso   1.00
O396   O     0.91633   0.36970   0.49377   0.00000  Uiso   1.00
O397   O     0.93806   0.41614   0.44002   0.00000  Uiso   1.00
H398   H     0.95816   0.39522   0.42328   0.00000  Uiso   1.00
Br399  Br    0.77795   0.60539   0.41328   0.00000  Uiso   1.00
C400   C     0.75687   0.53134   0.06593   0.00000  Uiso   1.00
O401   O     0.73915   0.49772   0.07888   0.00000  Uiso   1.00
O402   O     0.75560   0.56649   0.09671   0.00000  Uiso   1.00
H403   H     0.73869   0.56021   0.12844   0.00000  Uiso   1.00
Br404  Br    0.73771   0.60761   0.02269   0.00000  Uiso   1.00
C405   C     0.79043   0.42981   0.40015   0.00000  Uiso   1.00
O406   O     0.80245   0.40037   0.37386   0.00000  Uiso   1.00
O407   O     0.75122   0.44333   0.40160   0.00000  Uiso   1.00
H408   H     0.73635   0.42657   0.37911   0.00000  Uiso   1.00
Zn409  Zn    0.19338   0.80661   0.28734   0.00000  Uiso   1.00
Zn410  Zn    0.13379   0.79124   0.21876   0.00000  Uiso   1.00
Zn411  Zn    0.21056   0.86442   0.20657   0.00000  Uiso   1.00
Zn412  Zn    0.12893   0.87106   0.28734   0.00000  Uiso   1.00
O413   O     0.16667   0.83333   0.25000   0.00000  Uiso   1.00
O414   O     0.07071   0.85544   0.28213   0.00000  Uiso   1.00
O415   O     0.25491   0.81892   0.27013   0.00000  Uiso   1.00
O416   O     0.13760   0.73610   0.23413   0.00000  Uiso   1.00
O417   O     0.20345   0.92286   0.21361   0.00000  Uiso   1.00
O418   O     0.15451   0.79304   0.15458   0.00000  Uiso   1.00
O419   O     0.12940   0.87058   0.34968   0.00000  Uiso   1.00
O420   O     0.20824   0.84425   0.14606   0.00000  Uiso   1.00
O421   O     0.17451   0.82546   0.34968   0.00000  Uiso   1.00
O422   O     0.17930   0.74686   0.28213   0.00000  Uiso   1.00
O423   O     0.14632   0.92751   0.27014   0.00000  Uiso   1.00
O424   O     0.07412   0.79958   0.23413   0.00000  Uiso   1.00
O425   O     0.26693   0.85939   0.21360   0.00000  Uiso   1.00
C426   C     0.05304   0.82683   0.25962   0.00000  Uiso   1.00
C427   C     0.28065   0.84028   0.24036   0.00000  Uiso   1.00
C428   C     0.15662   0.72268   0.25977   0.00000  Uiso   1.00
C429   C     0.17633   0.94457   0.24055   0.00000  Uiso   1.00
C430   C     0.18513   0.81491   0.12918   0.00000  Uiso   1.00
C431   C     0.14797   0.85118   0.37157   0.00000  Uiso   1.00
C432   C     0.21458   0.76346   0.01024   0.00000  Uiso   1.00
C433   C     0.19193   0.80656   0.08021   0.00000  Uiso   1.00
C434   C     0.11859   0.89323   0.44510   0.00000  Uiso   1.00
C435   C     0.10473   0.89674   0.49262   0.00000  Uiso   1.00
C436   C     0.11425   0.86746   0.01780   0.00000  Uiso   1.00
C437   C     0.14066   0.83642   0.49482   0.00000  Uiso   1.00
C438   C     0.14320   0.82624   0.44842   0.00000  Uiso   1.00
C439   C     0.16462   0.81500   0.01576   0.00000  Uiso   1.00
C440   C     0.18510   0.78034   0.49176   0.00000  Uiso   1.00
C441   C     0.17337   0.76250   0.45155   0.00000  Uiso   1.00
C442   C     0.15001   0.78487   0.43109   0.00000  Uiso   1.00
C443   C     0.17089   0.82882   0.05877   0.00000  Uiso   1.00
C444   C     0.21579   0.77494   0.05583   0.00000  Uiso   1.00
C445   C     0.13616   0.85672   0.42216   0.00000  Uiso   1.00
H446   H     0.15926   0.85684   0.07700   0.00000  Uiso   1.00
C447   C     0.32608   0.84157   0.23667   0.00000  Uiso   1.00
H448   H     0.01485   0.85734   0.20896   0.00000  Uiso   1.00
C449   C     0.00788   0.82377   0.26583   0.00000  Uiso   1.00
C450   C     0.18020   0.98924   0.23908   0.00000  Uiso   1.00
H451   H     0.20849   0.67060   0.21637   0.00000  Uiso   1.00
C452   C     0.15048   0.67914   0.26471   0.00000  Uiso   1.00
C453   C     0.24374   0.75612   0.07738   0.00000  Uiso   1.00
O454   O     0.22873   0.74076   0.11352   0.00000  Uiso   1.00
O455   O     0.28734   0.75658   0.05658   0.00000  Uiso   1.00
H456   H     0.30301   0.74304   0.07455   0.00000  Uiso   1.00
Br457  Br    0.30862   0.79675   0.31904   0.00000  Uiso   1.00
Br458  Br    0.09603   0.99295   0.30346   0.00000  Uiso   1.00
C459   C     0.18021   0.71875   0.43520   0.00000  Uiso   1.00
O460   O     0.20087   0.71032   0.39654   0.00000  Uiso   1.00
O461   O     0.16498   0.68763   0.46515   0.00000  Uiso   1.00
H462   H     0.17473   0.99308   0.45155   0.00000  Uiso   1.00
C463   C     0.24607   0.73647   0.48147   0.00000  Uiso   1.00
O464   O     0.24966   0.70303   0.49377   0.00000  Uiso   1.00
O465   O     0.27139   0.74947   0.44002   0.00000  Uiso   1.00
H466   H     0.29149   0.72856   0.42328   0.00000  Uiso   1.00
Br467  Br    0.11129   0.93872   0.41328   0.00000  Uiso   1.00
C468   C     0.09020   0.86467   0.06593   0.00000  Uiso   1.00
O469   O     0.07248   0.83106   0.07888   0.00000  Uiso   1.00
O470   O     0.08893   0.89983   0.09671   0.00000  Uiso   1.00
H471   H     0.07202   0.89355   0.12844   0.00000  Uiso   1.00
Br472  Br    0.07104   0.94094   0.02269   0.00000  Uiso   1.00
C473   C     0.12376   0.76315   0.40015   0.00000  Uiso   1.00
O474   O     0.13578   0.73370   0.37386   0.00000  Uiso   1.00
O475   O     0.08455   0.77666   0.40160   0.00000  Uiso   1.00
H476   H     0.06968   0.75991   0.37911   0.00000  Uiso   1.00
Zn477  Zn    0.52672   0.80661   0.28734   0.00000  Uiso   1.00
Zn478  Zn    0.46713   0.79124   0.21876   0.00000  Uiso   1.00
Zn479  Zn    0.54389   0.86442   0.20657   0.00000  Uiso   1.00
Zn480  Zn    0.46226   0.87106   0.28734   0.00000  Uiso   1.00
O481   O     0.50000   0.83333   0.25000   0.00000  Uiso   1.00
O482   O     0.40405   0.85544   0.28213   0.00000  Uiso   1.00
O483   O     0.58824   0.81892   0.27013   0.00000  Uiso   1.00
O484   O     0.47093   0.73610   0.23413   0.00000  Uiso   1.00
O485   O     0.53678   0.92286   0.21361   0.00000  Uiso   1.00
O486   O     0.48784   0.79304   0.15458   0.00000  Uiso   1.00
O487   O     0.46274   0.87058   0.34968   0.00000  Uiso   1.00
O488   O     0.54157   0.84425   0.14606   0.00000  Uiso   1.00
O489   O     0.50785   0.82546   0.34968   0.00000  Uiso   1.00
O490   O     0.51264   0.74686   0.28213   0.00000  Uiso   1.00
O491   O     0.47965   0.92751   0.27014   0.00000  Uiso   1.00
O492   O     0.40745   0.79958   0.23413   0.00000  Uiso   1.00
O493   O     0.60026   0.85939   0.21360   0.00000  Uiso   1.00
C494   C     0.38638   0.82683   0.25962   0.00000  Uiso   1.00
C495   C     0.61399   0.84028   0.24036   0.00000  Uiso   1.00
C496   C     0.48995   0.72268   0.25977   0.00000  Uiso   1.00
C497   C     0.50966   0.94457   0.24055   0.00000  Uiso   1.00
C498   C     0.51847   0.81491   0.12918   0.00000  Uiso   1.00
C499   C     0.48130   0.85118   0.37157   0.00000  Uiso   1.00
C500   C     0.54791   0.76346   0.01024   0.00000  Uiso   1.00
C501   C     0.52526   0.80656   0.08021   0.00000  Uiso   1.00
C502   C     0.45192   0.89323   0.44510   0.00000  Uiso   1.00
C503   C     0.43807   0.89674   0.49262   0.00000  Uiso   1.00
C504   C     0.44758   0.86746   0.01780   0.00000  Uiso   1.00
C505   C     0.47400   0.83642   0.49482   0.00000  Uiso   1.00
C506   C     0.47653   0.82624   0.44842   0.00000  Uiso   1.00
C507   C     0.49795   0.81500   0.01576   0.00000  Uiso   1.00
C508   C     0.51843   0.78034   0.49176   0.00000  Uiso   1.00
C509   C     0.50670   0.76250   0.45155   0.00000  Uiso   1.00
C510   C     0.48335   0.78487   0.43109   0.00000  Uiso   1.00
C511   C     0.50422   0.82882   0.05877   0.00000  Uiso   1.00
C512   C     0.54912   0.77494   0.05583   0.00000  Uiso   1.00
C513   C     0.46949   0.85672   0.42216   0.00000  Uiso   1.00
H514   H     0.49260   0.85684   0.07700   0.00000  Uiso   1.00
C515   C     0.65941   0.84157   0.23667   0.00000  Uiso   1.00
H516   H     0.34819   0.85734   0.20896   0.00000  Uiso   1.00
C517   C     0.34121   0.82377   0.26583   0.00000  Uiso   1.00
C518   C     0.51354   0.98924   0.23908   0.00000  Uiso   1.00
H519   H     0.54182   0.67060   0.21637   0.00000  Uiso   1.00
C520   C     0.48382   0.67914   0.26471   0.00000  Uiso   1.00
C521   C     0.57707   0.75612   0.07738   0.00000  Uiso   1.00
O522   O     0.56207   0.74076   0.11352   0.00000  Uiso   1.00
O523   O     0.62067   0.75658   0.05658   0.00000  Uiso   1.00
H524   H     0.63634   0.74304   0.07455   0.00000  Uiso   1.00
Br525  Br    0.64196   0.79675   0.31904   0.00000  Uiso   1.00
Br526  Br    0.42937   0.99295   0.30346   0.00000  Uiso   1.00
C527   C     0.51354   0.71875   0.43520   0.00000  Uiso   1.00
O528   O     0.53421   0.71032   0.39654   0.00000  Uiso   1.00
O529   O     0.49831   0.68763   0.46515   0.00000  Uiso   1.00
H530   H     0.50807   0.99308   0.45155   0.00000  Uiso   1.00
C531   C     0.57940   0.73647   0.48147   0.00000  Uiso   1.00
O532   O     0.58300   0.70303   0.49377   0.00000  Uiso   1.00
O533   O     0.60473   0.74947   0.44002   0.00000  Uiso   1.00
H534   H     0.62483   0.72856   0.42328   0.00000  Uiso   1.00
Br535  Br    0.44462   0.93872   0.41328   0.00000  Uiso   1.00
C536   C     0.42353   0.86467   0.06593   0.00000  Uiso   1.00
O537   O     0.40582   0.83106   0.07888   0.00000  Uiso   1.00
O538   O     0.42226   0.89983   0.09671   0.00000  Uiso   1.00
H539   H     0.40535   0.89355   0.12844   0.00000  Uiso   1.00
Br540  Br    0.40438   0.94094   0.02269   0.00000  Uiso   1.00
C541   C     0.45709   0.76315   0.40015   0.00000  Uiso   1.00
O542   O     0.46911   0.73370   0.37386   0.00000  Uiso   1.00
O543   O     0.41788   0.77666   0.40160   0.00000  Uiso   1.00
H544   H     0.40302   0.75991   0.37911   0.00000  Uiso   1.00
Zn545  Zn    0.86005   0.80661   0.28734   0.00000  Uiso   1.00
Zn546  Zn    0.80046   0.79124   0.21876   0.00000  Uiso   1.00
Zn547  Zn    0.87723   0.86442   0.20657   0.00000  Uiso   1.00
Zn548  Zn    0.79560   0.87106   0.28734   0.00000  Uiso   1.00
O549   O     0.83333   0.83333   0.25000   0.00000  Uiso   1.00
O550   O     0.73738   0.85544   0.28213   0.00000  Uiso   1.00
O551   O     0.92158   0.81892   0.27013   0.00000  Uiso   1.00
O552   O     0.80426   0.73610   0.23413   0.00000  Uiso   1.00
O553   O     0.87012   0.92286   0.21361   0.00000  Uiso   1.00
O554   O     0.82118   0.79304   0.15458   0.00000  Uiso   1.00
O555   O     0.79607   0.87058   0.34968   0.00000  Uiso   1.00
O556   O     0.87491   0.84425   0.14606   0.00000  Uiso   1.00
O557   O     0.84118   0.82546   0.34968   0.00000  Uiso   1.00
O558   O     0.84597   0.74686   0.28213   0.00000  Uiso   1.00
O559   O     0.81298   0.92751   0.27014   0.00000  Uiso   1.00
O560   O     0.74078   0.79958   0.23413   0.00000  Uiso   1.00
O561   O     0.93360   0.85939   0.21360   0.00000  Uiso   1.00
C562   C     0.71971   0.82683   0.25962   0.00000  Uiso   1.00
C563   C     0.94732   0.84028   0.24036   0.00000  Uiso   1.00
C564   C     0.82329   0.72268   0.25977   0.00000  Uiso   1.00
C565   C     0.84300   0.94457   0.24055   0.00000  Uiso   1.00
C566   C     0.85180   0.81491   0.12918   0.00000  Uiso   1.00
C567   C     0.81464   0.85118   0.37157   0.00000  Uiso   1.00
C568   C     0.88125   0.76346   0.01024   0.00000  Uiso   1.00
C569   C     0.85860   0.80656   0.08021   0.00000  Uiso   1.00
C570   C     0.78526   0.89323   0.44510   0.00000  Uiso   1.00
C571   C     0.77140   0.89674   0.49262   0.00000  Uiso   1.00
C572   C     0.78092   0.86746   0.01780   0.00000  Uiso   1.00
C573   C     0.80733   0.83642   0.49482   0.00000  Uiso   1.00
C574   C     0.80986   0.82624   0.44842   0.00000  Uiso   1.00
C575   C     0.83128   0.81500   0.01576   0.00000  Uiso   1.00
C576   C     0.85177   0.78034   0.49176   0.00000  Uiso   1.00
C577   C     0.84004   0.76250   0.45155   0.00000  Uiso   1.00
C578   C     0.81668   0.78487   0.43109   0.00000  Uiso   1.00
C579   C     0.83756   0.82882   0.05877   0.00000  Uiso   1.00
C580   C     0.88246   0.77494   0.05583   0.00000  Uiso   1.00
C581   C     0.80283   0.85672   0.42216   0.00000  Uiso   1.00
H582   H     0.82593   0.85684   0.07700   0.00000  Uiso   1.00
C583   C     0.99274   0.84157   0.23667   0.00000  Uiso   1.00
H584   H     0.68152   0.85734   0.20896   0.00000  Uiso   1.00
C585   C     0.67455   0.82377   0.26583   0.00000  Uiso   1.00
C586   C     0.84687   0.98924   0.23908   0.00000  Uiso   1.00
H587   H     0.87516   0.67060   0.21637   0.00000  Uiso   1.00
C588   C     0.81715   0.67914   0.26471   0.00000  Uiso   1.00
C589   C     0.91040   0.75612   0.07738   0.00000  Uiso   1.00
O590   O     0.89540   0.74076   0.11352   0.00000  Uiso   1.00
O591   O     0.95401   0.75658   0.05658   0.00000  Uiso   1.00
H592   H     0.96967   0.74304   0.07455   0.00000  Uiso   1.00
Br593  Br    0.97529   0.79675   0.31904   0.00000  Uiso   1.00
Br594  Br    0.76270   0.99295   0.30346   0.00000  Uiso   1.00
C595   C     0.84688   0.71875   0.43520   0.00000  Uiso   1.00
O596   O     0.86754   0.71032   0.39654   0.00000  Uiso   1.00
O597   O     0.83165   0.68763   0.46515   0.00000  Uiso   1.00
H598   H     0.84140   0.99308   0.45155   0.00000  Uiso   1.00
C599   C     0.91274   0.73647   0.48147   0.00000  Uiso   1.00
O600   O     0.91633   0.70303   0.49377   0.00000  Uiso   1.00
O601   O     0.93806   0.74947   0.44002   0.00000  Uiso   1.00
H602   H     0.95816   0.72856   0.42328   0.00000  Uiso   1.00
Br603  Br    0.77795   0.93872   0.41328   0.00000  Uiso   1.00
C604   C     0.75687   0.86467   0.06593   0.00000  Uiso   1.00
O605   O     0.73915   0.83106   0.07888   0.00000  Uiso   1.00
O606   O     0.75560   0.89983   0.09671   0.00000  Uiso   1.00
H607   H     0.73869   0.89355   0.12844   0.00000  Uiso   1.00
Br608  Br    0.73771   0.94094   0.02269   0.00000  Uiso   1.00
C609   C     0.79043   0.76315   0.40015   0.00000  Uiso   1.00
O610   O     0.80245   0.73370   0.37386   0.00000  Uiso   1.00
O611   O     0.75122   0.77666   0.40160   0.00000  Uiso   1.00
H612   H     0.73635   0.75991   0.37911   0.00000  Uiso   1.00
Zn613  Zn    0.19338   0.13994   0.78734   0.00000  Uiso   1.00
Zn614  Zn    0.13379   0.12458   0.71876   0.00000  Uiso   1.00
Zn615  Zn    0.21056   0.19775   0.70657   0.00000  Uiso   1.00
Zn616  Zn    0.12893   0.20439   0.78734   0.00000  Uiso   1.00
O617   O     0.16667   0.16667   0.75000   0.00000  Uiso   1.00
O618   O     0.07071   0.18878   0.78213   0.00000  Uiso   1.00
O619   O     0.25491   0.15226   0.77013   0.00000  Uiso   1.00
O620   O     0.13760   0.06944   0.73413   0.00000  Uiso   1.00
O621   O     0.20345   0.25620   0.71361   0.00000  Uiso   1.00
O622   O     0.15451   0.12637   0.65458   0.00000  Uiso   1.00
O623   O     0.12940   0.20391   0.84968   0.00000  Uiso   1.00
O624   O     0.20824   0.17759   0.64606   0.00000  Uiso   1.00
O625   O     0.17451   0.15880   0.84968   0.00000  Uiso   1.00
O626   O     0.17930   0.08019   0.78213   0.00000  Uiso   1.00
O627   O     0.14632   0.26085   0.77014   0.00000  Uiso   1.00
O628   O     0.07412   0.13291   0.73413   0.00000  Uiso   1.00
O629   O     0.26693   0.19272   0.71360   0.00000  Uiso   1.00
C630   C     0.05304   0.16016   0.75962   0.00000  Uiso   1.00
C631   C     0.28065   0.17361   0.74036   0.00000  Uiso   1.00
C632   C     0.15662   0.05601   0.75977   0.00000  Uiso   1.00
C633   C     0.17633   0.27790   0.74055   0.00000  Uiso   1.00
C634   C     0.18513   0.14824   0.62918   0.00000  Uiso   1.00
C635   C     0.14797   0.18452   0.87157   0.00000  Uiso   1.00
C636   C     0.21458   0.09679   0.51024   0.00000  Uiso   1.00
C637   C     0.19193   0.13990   0.58021   0.00000  Uiso   1.00
C638   C     0.11859   0.22656   0.94510   0.00000  Uiso   1.00
C639   C     0.10473   0.23007   0.99262   0.00000  Uiso   1.00
C640   C     0.11425   0.20079   0.51780   0.00000  Uiso   1.00
C641   C     0.14066   0.16975   0.99482   0.00000  Uiso   1.00
C642   C     0.14320   0.15958   0.94842   0.00000  Uiso   1.00
C643   C     0.16462   0.14833   0.51576   0.00000  Uiso   1.00
C644   C     0.18510   0.11367   0.99176   0.00000  Uiso   1.00
C645   C     0.17337   0.09583   0.95155   0.00000  Uiso   1.00
C646   C     0.15001   0.11821   0.93109   0.00000  Uiso   1.00
C647   C     0.17089   0.16215   0.55877   0.00000  Uiso   1.00
C648   C     0.21579   0.10827   0.55583   0.00000  Uiso   1.00
C649   C     0.13616   0.19005   0.92216   0.00000  Uiso   1.00
H650   H     0.15926   0.19018   0.57700   0.00000  Uiso   1.00
C651   C     0.32608   0.17490   0.73667   0.00000  Uiso   1.00
H652   H     0.01485   0.19068   0.70896   0.00000  Uiso   1.00
C653   C     0.00788   0.15711   0.76583   0.00000  Uiso   1.00
C654   C     0.18020   0.32257   0.73908   0.00000  Uiso   1.00
H655   H     0.20849   0.00393   0.71637   0.00000  Uiso   1.00
C656   C     0.15048   0.01248   0.76471   0.00000  Uiso   1.00
C657   C     0.24374   0.08946   0.57738   0.00000  Uiso   1.00
O658   O     0.22873   0.07410   0.61352   0.00000  Uiso   1.00
O659   O     0.28734   0.08991   0.55658   0.00000  Uiso   1.00
H660   H     0.30301   0.07638   0.57455   0.00000  Uiso   1.00
Br661  Br    0.30862   0.13008   0.81904   0.00000  Uiso   1.00
Br662  Br    0.09603   0.32629   0.80346   0.00000  Uiso   1.00
C663   C     0.18021   0.05209   0.93520   0.00000  Uiso   1.00
O664   O     0.20087   0.04366   0.89654   0.00000  Uiso   1.00
O665   O     0.16498   0.02096   0.96515   0.00000  Uiso   1.00
H666   H     0.17473   0.32641   0.95155   0.00000  Uiso   1.00
C667   C     0.24607   0.06980   0.98147   0.00000  Uiso   1.00
O668   O     0.24966   0.03637   0.99377   0.00000  Uiso   1.00
O669   O     0.27139   0.08281   0.94002   0.00000  Uiso   1.00
H670   H     0.29149   0.06189   0.92328   0.00000  Uiso   1.00
Br671  Br    0.11129   0.27206   0.91328   0.00000  Uiso   1.00
C672   C     0.09020   0.19800   0.56593   0.00000  Uiso   1.00
O673   O     0.07248   0.16439   0.57888   0.00000  Uiso   1.00
O674   O     0.08893   0.23316   0.59671   0.00000  Uiso   1.00
H675   H     0.07202   0.22688   0.62844   0.00000  Uiso   1.00
Br676  Br    0.07104   0.27427   0.52269   0.00000  Uiso   1.00
C677   C     0.12376   0.09648   0.90015   0.00000  Uiso   1.00
O678   O     0.13578   0.06704   0.87386   0.00000  Uiso   1.00
O679   O     0.08455   0.11000   0.90160   0.00000  Uiso   1.00
H680   H     0.06968   0.09324   0.87911   0.00000  Uiso   1.00
Zn681  Zn    0.52672   0.13994   0.78734   0.00000  Uiso   1.00
Zn682  Zn    0.46713   0.12458   0.71876   0.00000  Uiso   1.00
Zn683  Zn    0.54389   0.19775   0.70657   0.00000  Uiso   1.00
Zn684  Zn    0.46226   0.20439   0.78734   0.00000  Uiso   1.00
O685   O     0.50000   0.16667   0.75000   0.00000  Uiso   1.00
O686   O     0.40405   0.18878   0.78213   0.00000  Uiso   1.00
O687   O     0.58824   0.15226   0.77013   0.00000  Uiso   1.00
O688   O     0.47093   0.06944   0.73413   0.00000  Uiso   1.00
O689   O     0.53678   0.25620   0.71361   0.00000  Uiso   1.00
O690   O     0.48784   0.12637   0.65458   0.00000  Uiso   1.00
O691   O     0.46274   0.20391   0.84968   0.00000  Uiso   1.00
O692   O     0.54157   0.17759   0.64606   0.00000  Uiso   1.00
O693   O     0.50785   0.15880   0.84968   0.00000  Uiso   1.00
O694   O     0.51264   0.08019   0.78213   0.00000  Uiso   1.00
O695   O     0.47965   0.26085   0.77014   0.00000  Uiso   1.00
O696   O     0.40745   0.13291   0.73413   0.00000  Uiso   1.00
O697   O     0.60026   0.19272   0.71360   0.00000  Uiso   1.00
C698   C     0.38638   0.16016   0.75962   0.00000  Uiso   1.00
C699   C     0.61399   0.17361   0.74036   0.00000  Uiso   1.00
C700   C     0.48995   0.05601   0.75977   0.00000  Uiso   1.00
C701   C     0.50966   0.27790   0.74055   0.00000  Uiso   1.00
C702   C     0.51847   0.14824   0.62918   0.00000  Uiso   1.00
C703   C     0.48130   0.18452   0.87157   0.00000  Uiso   1.00
C704   C     0.54791   0.09679   0.51024   0.00000  Uiso   1.00
C705   C     0.52526   0.13990   0.58021   0.00000  Uiso   1.00
C706   C     0.45192   0.22656   0.94510   0.00000  Uiso   1.00
C707   C     0.43807   0.23007   0.99262   0.00000  Uiso   1.00
C708   C     0.44758   0.20079   0.51780   0.00000  Uiso   1.00
C709   C     0.47400   0.16975   0.99482   0.00000  Uiso   1.00
C710   C     0.47653   0.15958   0.94842   0.00000  Uiso   1.00
C711   C     0.49795   0.14833   0.51576   0.00000  Uiso   1.00
C712   C     0.51843   0.11367   0.99176   0.00000  Uiso   1.00
C713   C     0.50670   0.09583   0.95155   0.00000  Uiso   1.00
C714   C     0.48335   0.11821   0.93109   0.00000  Uiso   1.00
C715   C     0.50422   0.16215   0.55877   0.00000  Uiso   1.00
C716   C     0.54912   0.10827   0.55583   0.00000  Uiso   1.00
C717   C     0.46949   0.19005   0.92216   0.00000  Uiso   1.00
H718   H     0.49260   0.19018   0.57700   0.00000  Uiso   1.00
C719   C     0.65941   0.17490   0.73667   0.00000  Uiso   1.00
H720   H     0.34819   0.19068   0.70896   0.00000  Uiso   1.00
C721   C     0.34121   0.15711   0.76583   0.00000  Uiso   1.00
C722   C     0.51354   0.32257   0.73908   0.00000  Uiso   1.00
H723   H     0.54182   0.00393   0.71637   0.00000  Uiso   1.00
C724   C     0.48382   0.01248   0.76471   0.00000  Uiso   1.00
C725   C     0.57707   0.08946   0.57738   0.00000  Uiso   1.00
O726   O     0.56207   0.07410   0.61352   0.00000  Uiso   1.00
O727   O     0.62067   0.08991   0.55658   0.00000  Uiso   1.00
H728   H     0.63634   0.07638   0.57455   0.00000  Uiso   1.00
Br729  Br    0.64196   0.13008   0.81904   0.00000  Uiso   1.00
Br730  Br    0.42937   0.32629   0.80346   0.00000  Uiso   1.00
C731   C     0.51354   0.05209   0.93520   0.00000  Uiso   1.00
O732   O     0.53421   0.04366   0.89654   0.00000  Uiso   1.00
O733   O     0.49831   0.02096   0.96515   0.00000  Uiso   1.00
H734   H     0.50807   0.32641   0.95155   0.00000  Uiso   1.00
C735   C     0.57940   0.06980   0.98147   0.00000  Uiso   1.00
O736   O     0.58300   0.03637   0.99377   0.00000  Uiso   1.00
O737   O     0.60473   0.08281   0.94002   0.00000  Uiso   1.00
H738   H     0.62483   0.06189   0.92328   0.00000  Uiso   1.00
Br739  Br    0.44462   0.27206   0.91328   0.00000  Uiso   1.00
C740   C     0.42353   0.19800   0.56593   0.00000  Uiso   1.00
O741   O     0.40582   0.16439   0.57888   0.00000  Uiso   1.00
O742   O     0.42226   0.23316   0.59671   0.00000  Uiso   1.00
H743   H     0.40535   0.22688   0.62844   0.00000  Uiso   1.00
Br744  Br    0.40438   0.27427   0.52269   0.00000  Uiso   1.00
C745   C     0.45709   0.09648   0.90015   0.00000  Uiso   1.00
O746   O     0.46911   0.06704   0.87386   0.00000  Uiso   1.00
O747   O     0.41788   0.11000   0.90160   0.00000  Uiso   1.00
H748   H     0.40302   0.09324   0.87911   0.00000  Uiso   1.00
Zn749  Zn    0.86005   0.13994   0.78734   0.00000  Uiso   1.00
Zn750  Zn    0.80046   0.12458   0.71876   0.00000  Uiso   1.00
Zn751  Zn    0.87723   0.19775   0.70657   0.00000  Uiso   1.00
Zn752  Zn    0.79560   0.20439   0.78734   0.00000  Uiso   1.00
O753   O     0.83333   0.16667   0.75000   0.00000  Uiso   1.00
O754   O     0.73738   0.18878   0.78213   0.00000  Uiso   1.00
O755   O     0.92158   0.15226   0.77013   0.00000  Uiso   1.00
O756   O     0.80426   0.06944   0.73413   0.00000  Uiso   1.00
O757   O     0.87012   0.25620   0.71361   0.00000  Uiso   1.00
O758   O     0.82118   0.12637   0.65458   0.00000  Uiso   1.00
O759   O     0.79607   0.20391   0.84968   0.00000  Uiso   1.00
O760   O     0.87491   0.17759   0.64606   0.00000  Uiso   1.00
O761   O     0.84118   0.15880   0.84968   0.00000  Uiso   1.00
O762   O     0.84597   0.08019   0.78213   0.00000  Uiso   1.00
O763   O     0.81298   0.26085   0.77014   0.00000  Uiso   1.00
O764   O     0.74078   0.13291   0.73413   0.00000  Uiso   1.00
O765   O     0.93360   0.19272   0.71360   0.00000  Uiso   1.00
C766   C     0.71971   0.16016   0.75962   0.00000  Uiso   1.00
C767   C     0.94732   0.17361   0.74036   0.00000  Uiso   1.00
C768   C     0.82329   0.05601   0.75977   0.00000  Uiso   1.00
C769   C     0.84300   0.27790   0.74055   0.00000  Uiso   1.00
C770   C     0.85180   0.14824   0.62918   0.00000  Uiso   1.00
C771   C     0.81464   0.18452   0.87157   0.00000  Uiso   1.00
C772   C     0.88125   0.09679   0.51024   0.00000  Uiso   1.00
C773   C     0.85860   0.13990   0.58021   0.00000  Uiso   1.00
C774   C     0.78526   0.22656   0.94510   0.00000  Uiso   1.00
C775   C     0.77140   0.23007   0.99262   0.00000  Uiso   1.00
C776   C     0.78092   0.20079   0.51780   0.00000  Uiso   1.00
C777   C     0.80733   0.16975   0.99482   0.00000  Uiso   1.00
C778   C     0.80986   0.15958   0.94842   0.00000  Uiso   1.00
C779   C     0.83128   0.14833   0.51576   0.00000  Uiso   1.00
C780   C     0.85177   0.11367   0.99176   0.00000  Uiso   1.00
C781   C     0.84004   0.09583   0.95155   0.00000  Uiso   1.00
C782   C     0.81668   0.11821   0.93109   0.00000  Uiso   1.00
C783   C     0.83756   0.16215   0.55877   0.00000  Uiso   1.00
C784   C     0.88246   0.10827   0.55583   0.00000  Uiso   1.00
C785   C     0.80283   0.19005   0.92216   0.00000  Uiso   1.00
H786   H     0.82593   0.19018   0.57700   0.00000  Uiso   1.00
C787   C     0.99274   0.17490   0.73667   0.00000  Uiso   1.00
H788   H     0.68152   0.19068   0.70896   0.00000  Uiso   1.00
C789   C     0.67455   0.15711   0.76583   0.00000  Uiso   1.00
C790   C     0.84687   0.32257   0.73908   0.00000  Uiso   1.00
H791   H     0.87516   0.00393   0.71637   0.00000  Uiso   1.00
C792   C     0.81715   0.01248   0.76471   0.00000  Uiso   1.00
C793   C     0.91040   0.08946   0.57738   0.00000  Uiso   1.00
O794   O     0.89540   0.07410   0.61352   0.00000  Uiso   1.00
O795   O     0.95401   0.08991   0.55658   0.00000  Uiso   1.00
H796   H     0.96967   0.07638   0.57455   0.00000  Uiso   1.00
Br797  Br    0.97529   0.13008   0.81904   0.00000  Uiso   1.00
Br798  Br    0.76270   0.32629   0.80346   0.00000  Uiso   1.00
C799   C     0.84688   0.05209   0.93520   0.00000  Uiso   1.00
O800   O     0.86754   0.04366   0.89654   0.00000  Uiso   1.00
O801   O     0.83165   0.02096   0.96515   0.00000  Uiso   1.00
H802   H     0.84140   0.32641   0.95155   0.00000  Uiso   1.00
C803   C     0.91274   0.06980   0.98147   0.00000  Uiso   1.00
O804   O     0.91633   0.03637   0.99377   0.00000  Uiso   1.00
O805   O     0.93806   0.08281   0.94002   0.00000  Uiso   1.00
H806   H     0.95816   0.06189   0.92328   0.00000  Uiso   1.00
Br807  Br    0.77795   0.27206   0.91328   0.00000  Uiso   1.00
C808   C     0.75687   0.19800   0.56593   0.00000  Uiso   1.00
O809   O     0.73915   0.16439   0.57888   0.00000  Uiso   1.00
O810   O     0.75560   0.23316   0.59671   0.00000  Uiso   1.00
H811   H     0.73869   0.22688   0.62844   0.00000  Uiso   1.00
Br812  Br    0.73771   0.27427   0.52269   0.00000  Uiso   1.00
C813   C     0.79043   0.09648   0.90015   0.00000  Uiso   1.00
O814   O     0.80245   0.06704   0.87386   0.00000  Uiso   1.00
O815   O     0.75122   0.11000   0.90160   0.00000  Uiso   1.00
H816   H     0.73635   0.09324   0.87911   0.00000  Uiso   1.00
Zn817  Zn    0.19338   0.47327   0.78734   0.00000  Uiso   1.00
Zn818  Zn    0.13379   0.45791   0.71876   0.00000  Uiso   1.00
Zn819  Zn    0.21056   0.53109   0.70657   0.00000  Uiso   1.00
Zn820  Zn    0.12893   0.53773   0.78734   0.00000  Uiso   1.00
O821   O     0.16667   0.50000   0.75000   0.00000  Uiso   1.00
O822   O     0.07071   0.52211   0.78213   0.00000  Uiso   1.00
O823   O     0.25491   0.48559   0.77013   0.00000  Uiso   1.00
O824   O     0.13760   0.40277   0.73413   0.00000  Uiso   1.00
O825   O     0.20345   0.58953   0.71361   0.00000  Uiso   1.00
O826   O     0.15451   0.45970   0.65458   0.00000  Uiso   1.00
O827   O     0.12940   0.53724   0.84968   0.00000  Uiso   1.00
O828   O     0.20824   0.51092   0.64606   0.00000  Uiso   1.00
O829   O     0.17451   0.49213   0.84968   0.00000  Uiso   1.00
O830   O     0.17930   0.41352   0.78213   0.00000  Uiso   1.00
O831   O     0.14632   0.59418   0.77014   0.00000  Uiso   1.00
O832   O     0.07412   0.46625   0.73413   0.00000  Uiso   1.00
O833   O     0.26693   0.52605   0.71360   0.00000  Uiso   1.00
C834   C     0.05304   0.49349   0.75962   0.00000  Uiso   1.00
C835   C     0.28065   0.50694   0.74036   0.00000  Uiso   1.00
C836   C     0.15662   0.38935   0.75977   0.00000  Uiso   1.00
C837   C     0.17633   0.61124   0.74055   0.00000  Uiso   1.00
C838   C     0.18513   0.48158   0.62918   0.00000  Uiso   1.00
C839   C     0.14797   0.51785   0.87157   0.00000  Uiso   1.00
C840   C     0.21458   0.43012   0.51024   0.00000  Uiso   1.00
C841   C     0.19193   0.47323   0.58021   0.00000  Uiso   1.00
C842   C     0.11859   0.55990   0.94510   0.00000  Uiso   1.00
C843   C     0.10473   0.56340   0.99262   0.00000  Uiso   1.00
C844   C     0.11425   0.53413   0.51780   0.00000  Uiso   1.00
C845   C     0.14066   0.50308   0.99482   0.00000  Uiso   1.00
C846   C     0.14320   0.49291   0.94842   0.00000  Uiso   1.00
C847   C     0.16462   0.48167   0.51576   0.00000  Uiso   1.00
C848   C     0.18510   0.44700   0.99176   0.00000  Uiso   1.00
C849   C     0.17337   0.42917   0.95155   0.00000  Uiso   1.00
C850   C     0.15001   0.45154   0.93109   0.00000  Uiso   1.00
C851   C     0.17089   0.49549   0.55877   0.00000  Uiso   1.00
C852   C     0.21579   0.44161   0.55583   0.00000  Uiso   1.00
C853   C     0.13616   0.52338   0.92216   0.00000  Uiso   1.00
H854   H     0.15926   0.52351   0.57700   0.00000  Uiso   1.00
C855   C     0.32608   0.50824   0.73667   0.00000  Uiso   1.00
H856   H     0.01485   0.52401   0.70896   0.00000  Uiso   1.00
C857   C     0.00788   0.49044   0.76583   0.00000  Uiso   1.00
C858   C     0.18020   0.65591   0.73908   0.00000  Uiso   1.00
H859   H     0.20849   0.33727   0.71637   0.00000  Uiso   1.00
C860   C     0.15048   0.34581   0.76471   0.00000  Uiso   1.00
C861   C     0.24374   0.42279   0.57738   0.00000  Uiso   1.00
O862   O     0.22873   0.40743   0.61352   0.00000  Uiso   1.00
O863   O     0.28734   0.42324   0.55658   0.00000  Uiso   1.00
H864   H     0.30301   0.40971   0.57455   0.00000  Uiso   1.00
Br865  Br    0.30862   0.46341   0.81904   0.00000  Uiso   1.00
Br866  Br    0.09603   0.65962   0.80346   0.00000  Uiso   1.00
C867   C     0.18021   0.38542   0.93520   0.00000  Uiso   1.00
O868   O     0.20087   0.37699   0.89654   0.00000  Uiso   1.00
O869   O     0.16498   0.35430   0.96515   0.00000  Uiso   1.00
H870   H     0.17473   0.65975   0.95155   0.00000  Uiso   1.00
C871   C     0.24607   0.40314   0.98147   0.00000  Uiso   1.00
O872   O     0.24966   0.36970   0.99377   0.00000  Uiso   1.00
O873   O     0.27139   0.41614   0.94002   0.00000  Uiso   1.00
H874   H     0.29149   0.39522   0.92328   0.00000  Uiso   1.00
Br875  Br    0.11129   0.60539   0.91328   0.00000  Uiso   1.00
C876   C     0.09020   0.53134   0.56593   0.00000  Uiso   1.00
O877   O     0.07248   0.49772   0.57888   0.00000  Uiso   1.00
O878   O     0.08893   0.56649   0.59671   0.00000  Uiso   1.00
H879   H     0.07202   0.56021   0.62844   0.00000  Uiso   1.00
Br880  Br    0.07104   0.60761   0.52269   0.00000  Uiso   1.00
C881   C     0.12376   0.42981   0.90015   0.00000  Uiso   1.00
O882   O     0.13578   0.40037   0.87386   0.00000  Uiso   1.00
O883   O     0.08455   0.44333   0.90160   0.00000  Uiso   1.00
H884   H     0.06968   0.42657   0.87911   0.00000  Uiso   1.00
Zn885  Zn    0.52672   0.47327   0.78734   0.00000  Uiso   1.00
Zn886  Zn    0.46713   0.45791   0.71876   0.00000  Uiso   1.00
Zn887  Zn    0.54389   0.53109   0.70657   0.00000  Uiso   1.00
Zn888  Zn    0.46226   0.53773   0.78734   0.00000  Uiso   1.00
O889   O     0.50000   0.50000   0.75000   0.00000  Uiso   1.00
O890   O     0.40405   0.52211   0.78213   0.00000  Uiso   1.00
O891   O     0.58824   0.48559   0.77013   0.00000  Uiso   1.00
O892   O     0.47093   0.40277   0.73413   0.00000  Uiso   1.00
O893   O     0.53678   0.58953   0.71361   0.00000  Uiso   1.00
O894   O     0.48784   0.45970   0.65458   0.00000  Uiso   1.00
O895   O     0.46274   0.53724   0.84968   0.00000  Uiso   1.00
O896   O     0.54157   0.51092   0.64606   0.00000  Uiso   1.00
O897   O     0.50785   0.49213   0.84968   0.00000  Uiso   1.00
O898   O     0.51264   0.41352   0.78213   0.00000  Uiso   1.00
O899   O     0.47965   0.59418   0.77014   0.00000  Uiso   1.00
O900   O     0.40745   0.46625   0.73413   0.00000  Uiso   1.00
O901   O     0.60026   0.52605   0.71360   0.00000  Uiso   1.00
C902   C     0.38638   0.49349   0.75962   0.00000  Uiso   1.00
C903   C     0.61399   0.50694   0.74036   0.00000  Uiso   1.00
C904   C     0.48995   0.38935   0.75977   0.00000  Uiso   1.00
C905   C     0.50966   0.61124   0.74055   0.00000  Uiso   1.00
C906   C     0.51847   0.48158   0.62918   0.00000  Uiso   1.00
C907   C     0.48130   0.51785   0.87157   0.00000  Uiso   1.00
C908   C     0.54791   0.43012   0.51024   0.00000  Uiso   1.00
C909   C     0.52526   0.47323   0.58021   0.00000  Uiso   1.00
C910   C     0.45192   0.55990   0.94510   0.00000  Uiso   1.00
C911   C     0.43807   0.56340   0.99262   0.00000  Uiso   1.00
C912   C     0.44758   0.53413   0.51780   0.00000  Uiso   1.00
C913   C     0.47400   0.50308   0.99482   0.00000  Uiso   1.00
C914   C     0.47653   0.49291   0.94842   0.00000  Uiso   1.00
C915   C     0.49795   0.48167   0.51576   0.00000  Uiso   1.00
C916   C     0.51843   0.44700   0.99176   0.00000  Uiso   1.00
C917   C     0.50670   0.42917   0.95155   0.00000  Uiso   1.00
C918   C     0.48335   0.45154   0.93109   0.00000  Uiso   1.00
C919   C     0.50422   0.49549   0.55877   0.00000  Uiso   1.00
C920   C     0.54912   0.44161   0.55583   0.00000  Uiso   1.00
C921   C     0.46949   0.52338   0.92216   0.00000  Uiso   1.00
H922   H     0.49260   0.52351   0.57700   0.00000  Uiso   1.00
C923   C     0.65941   0.50824   0.73667   0.00000  Uiso   1.00
H924   H     0.34819   0.52401   0.70896   0.00000  Uiso   1.00
C925   C     0.34121   0.49044   0.76583   0.00000  Uiso   1.00
C926   C     0.51354   0.65591   0.73908   0.00000  Uiso   1.00
H927   H     0.54182   0.33727   0.71637   0.00000  Uiso   1.00
C928   C     0.48382   0.34581   0.76471   0.00000  Uiso   1.00
C929   C     0.57707   0.42279   0.57738   0.00000  Uiso   1.00
O930   O     0.56207   0.40743   0.61352   0.00000  Uiso   1.00
O931   O     0.62067   0.42324   0.55658   0.00000  Uiso   1.00
H932   H     0.63634   0.40971   0.57455   0.00000  Uiso   1.00
Br933  Br    0.64196   0.46341   0.81904   0.00000  Uiso   1.00
Br934  Br    0.42937   0.65962   0.80346   0.00000  Uiso   1.00
C935   C     0.51354   0.38542   0.93520   0.00000  Uiso   1.00
O936   O     0.53421   0.37699   0.89654   0.00000  Uiso   1.00
O937   O     0.49831   0.35430   0.96515   0.00000  Uiso   1.00
H938   H     0.50807   0.65975   0.95155   0.00000  Uiso   1.00
C939   C     0.57940   0.40314   0.98147   0.00000  Uiso   1.00
O940   O     0.58300   0.36970   0.99377   0.00000  Uiso   1.00
O941   O     0.60473   0.41614   0.94002   0.00000  Uiso   1.00
H942   H     0.62483   0.39522   0.92328   0.00000  Uiso   1.00
Br943  Br    0.44462   0.60539   0.91328   0.00000  Uiso   1.00
C944   C     0.42353   0.53134   0.56593   0.00000  Uiso   1.00
O945   O     0.40582   0.49772   0.57888   0.00000  Uiso   1.00
O946   O     0.42226   0.56649   0.59671   0.00000  Uiso   1.00
H947   H     0.40535   0.56021   0.62844   0.00000  Uiso   1.00
Br948  Br    0.40438   0.60761   0.52269   0.00000  Uiso   1.00
C949   C     0.45709   0.42981   0.90015   0.00000  Uiso   1.00
O950   O     0.46911   0.40037   0.87386   0.00000  Uiso   1.00
O951   O     0.41788   0.44333   0.90160   0.00000  Uiso   1.00
H952   H     0.40302   0.42657   0.87911   0.00000  Uiso   1.00
Zn953  Zn    0.86005   0.47327   0.78734   0.00000  Uiso   1.00
Zn954  Zn    0.80046   0.45791   0.71876   0.00000  Uiso   1.00
Zn955  Zn    0.87723   0.53109   0.70657   0.00000  Uiso   1.00
Zn956  Zn    0.79560   0.53773   0.78734   0.00000  Uiso   1.00
O957   O     0.83333   0.50000   0.75000   0.00000  Uiso   1.00
O958   O     0.73738   0.52211   0.78213   0.00000  Uiso   1.00
O959   O     0.92158   0.48559   0.77013   0.00000  Uiso   1.00
O960   O     0.80426   0.40277   0.73413   0.00000  Uiso   1.00
O961   O     0.87012   0.58953   0.71361   0.00000  Uiso   1.00
O962   O     0.82118   0.45970   0.65458   0.00000  Uiso   1.00
O963   O     0.79607   0.53724   0.84968   0.00000  Uiso   1.00
O964   O     0.87491   0.51092   0.64606   0.00000  Uiso   1.00
O965   O     0.84118   0.49213   0.84968   0.00000  Uiso   1.00
O966   O     0.84597   0.41352   0.78213   0.00000  Uiso   1.00
O967   O     0.81298   0.59418   0.77014   0.00000  Uiso   1.00
O968   O     0.74078   0.46625   0.73413   0.00000  Uiso   1.00
O969   O     0.93360   0.52605   0.71360   0.00000  Uiso   1.00
C970   C     0.71971   0.49349   0.75962   0.00000  Uiso   1.00
C971   C     0.94732   0.50694   0.74036   0.00000  Uiso   1.00
C972   C     0.82329   0.38935   0.75977   0.00000  Uiso   1.00
C973   C     0.84300   0.61124   0.74055   0.00000  Uiso   1.00
C974   C     0.85180   0.48158   0.62918   0.00000  Uiso   1.00
C975   C     0.81464   0.51785   0.87157   0.00000  Uiso   1.00
C976   C     0.88125   0.43012   0.51024   0.00000  Uiso   1.00
C977   C     0.85860   0.47323   0.58021   0.00000  Uiso   1.00
C978   C     0.78526   0.55990   0.94510   0.00000  Uiso   1.00
C979   C     0.77140   0.56340   0.99262   0.00000  Uiso   1.00
C980   C     0.78092   0.53413   0.51780   0.00000  Uiso   1.00
C981   C     0.80733   0.50308   0.99482   0.00000  Uiso   1.00
C982   C     0.80986   0.49291   0.94842   0.00000  Uiso   1.00
C983   C     0.83128   0.48167   0.51576   0.00000  Uiso   1.00
C984   C     0.85177   0.44700   0.99176   0.00000  Uiso   1.00
C985   C     0.84004   0.42917   0.95155   0.00000  Uiso   1.00
C986   C     0.81668   0.45154   0.93109   0.00000  Uiso   1.00
C987   C     0.83756   0.49549   0.55877   0.00000  Uiso   1.00
C988   C     0.88246   0.44161   0.55583   0.00000  Uiso   1.00
C989   C     0.80283   0.52338   0.92216   0.00000  Uiso   1.00
H990   H     0.82593   0.52351   0.57700   0.00000  Uiso   1.00
C991   C     0.99274   0.50824   0.73667   0.00000  Uiso   1.00
H992   H     0.68152   0.52401   0.70896   0.00000  Uiso   1.00
C993   C     0.67455   0.49044   0.76583   0.00000  Uiso   1.00
C994   C     0.84687   0.65591   0.73908   0.00000  Uiso   1.00
H995   H     0.87516   0.33727   0.71637   0.00000  Uiso   1.00
C996   C     0.81715   0.34581   0.76471   0.00000  Uiso   1.00
C997   C     0.91040   0.42279   0.57738   0.00000  Uiso   1.00
O998   O     0.89540   0.40743   0.61352   0.00000  Uiso   1.00
O999   O     0.95401   0.42324   0.55658   0.00000  Uiso   1.00
H1000  H     0.96967   0.40971   0.57455   0.00000  Uiso   1.00
Br1001 Br    0.97529   0.46341   0.81904   0.00000  Uiso   1.00
Br1002 Br    0.76270   0.65962   0.80346   0.00000  Uiso   1.00
C1003  C     0.84688   0.38542   0.93520   0.00000  Uiso   1.00
O1004  O     0.86754   0.37699   0.89654   0.00000  Uiso   1.00
O1005  O     0.83165   0.35430   0.96515   0.00000  Uiso   1.00
H1006  H     0.84140   0.65975   0.95155   0.00000  Uiso   1.00
C1007  C     0.91274   0.40314   0.98147   0.00000  Uiso   1.00
O1008  O     0.91633   0.36970   0.99377   0.00000  Uiso   1.00
O1009  O     0.93806   0.41614   0.94002   0.00000  Uiso   1.00
H1010  H     0.95816   0.39522   0.92328   0.00000  Uiso   1.00
Br1011 Br    0.77795   0.60539   0.91328   0.00000  Uiso   1.00
C1012  C     0.75687   0.53134   0.56593   0.00000  Uiso   1.00
O1013  O     0.73915   0.49772   0.57888   0.00000  Uiso   1.00
O1014  O     0.75560   0.56649   0.59671   0.00000  Uiso   1.00
H1015  H     0.73869   0.56021   0.62844   0.00000  Uiso   1.00
Br1016 Br    0.73771   0.60761   0.52269   0.00000  Uiso   1.00
C1017  C     0.79043   0.42981   0.90015   0.00000  Uiso   1.00
O1018  O     0.80245   0.40037   0.87386   0.00000  Uiso   1.00
O1019  O     0.75122   0.44333   0.90160   0.00000  Uiso   1.00
H1020  H     0.73635   0.42657   0.87911   0.00000  Uiso   1.00
Zn1021 Zn    0.19338   0.80661   0.78734   0.00000  Uiso   1.00
Zn1022 Zn    0.13379   0.79124   0.71876   0.00000  Uiso   1.00
Zn1023 Zn    0.21056   0.86442   0.70657   0.00000  Uiso   1.00
Zn1024 Zn    0.12893   0.87106   0.78734   0.00000  Uiso   1.00
O1025  O     0.16667   0.83333   0.75000   0.00000  Uiso   1.00
O1026  O     0.07071   0.85544   0.78213   0.00000  Uiso   1.00
O1027  O     0.25491   0.81892   0.77013   0.00000  Uiso   1.00
O1028  O     0.13760   0.73610   0.73413   0.00000  Uiso   1.00
O1029  O     0.20345   0.92286   0.71361   0.00000  Uiso   1.00
O1030  O     0.15451   0.79304   0.65458   0.00000  Uiso   1.00
O1031  O     0.12940   0.87058   0.84968   0.00000  Uiso   1.00
O1032  O     0.20824   0.84425   0.64606   0.00000  Uiso   1.00
O1033  O     0.17451   0.82546   0.84968   0.00000  Uiso   1.00
O1034  O     0.17930   0.74686   0.78213   0.00000  Uiso   1.00
O1035  O     0.14632   0.92751   0.77014   0.00000  Uiso   1.00
O1036  O     0.07412   0.79958   0.73413   0.00000  Uiso   1.00
O1037  O     0.26693   0.85939   0.71360   0.00000  Uiso   1.00
C1038  C     0.05304   0.82683   0.75962   0.00000  Uiso   1.00
C1039  C     0.28065   0.84028   0.74036   0.00000  Uiso   1.00
C1040  C     0.15662   0.72268   0.75977   0.00000  Uiso   1.00
C1041  C     0.17633   0.94457   0.74055   0.00000  Uiso   1.00
C1042  C     0.18513   0.81491   0.62918   0.00000  Uiso   1.00
C1043  C     0.14797   0.85118   0.87157   0.00000  Uiso   1.00
C1044  C     0.21458   0.76346   0.51024   0.00000  Uiso   1.00
C1045  C     0.19193   0.80656   0.58021   0.00000  Uiso   1.00
C1046  C     0.11859   0.89323   0.94510   0.00000  Uiso   1.00
C1047  C     0.10473   0.89674   0.99262   0.00000  Uiso   1.00
C1048  C     0.11425   0.86746   0.51780   0.00000  Uiso   1.00
C1049  C     0.14066   0.83642   0.99482   0.00000  Uiso   1.00
C1050  C     0.14320   0.82624   0.94842   0.00000  Uiso   1.00
C1051  C     0.16462   0.81500   0.51576   0.00000  Uiso   1.00
C1052  C     0.18510   0.78034   0.99176   0.00000  Uiso   1.00
C1053  C     0.17337   0.76250   0.95155   0.00000  Uiso   1.00
C1054  C     0.15001   0.78487   0.93109   0.00000  Uiso   1.00
C1055  C     0.17089   0.82882   0.55877   0.00000  Uiso   1.00
C1056  C     0.21579   0.77494   0.55583   0.00000  Uiso   1.00
C1057  C     0.13616   0.85672   0.92216   0.00000  Uiso   1.00
H1058  H     0.15926   0.85684   0.57700   0.00000  Uiso   1.00
C1059  C     0.32608   0.84157   0.73667   0.00000  Uiso   1.00
H1060  H     0.01485   0.85734   0.70896   0.00000  Uiso   1.00
C1061  C     0.00788   0.82377   0.76583   0.00000  Uiso   1.00
C1062  C     0.18020   0.98924   0.73908   0.00000  Uiso   1.00
H1063  H     0.20849   0.67060   0.71637   0.00000  Uiso   1.00
C1064  C     0.15048   0.67914   0.76471   0.00000  Uiso   1.00
C1065  C     0.24374   0.75612   0.57738   0.00000  Uiso   1.00
O1066  O     0.22873   0.74076   0.61352   0.00000  Uiso   1.00
O1067  O     0.28734   0.75658   0.55658   0.00000  Uiso   1.00
H1068  H     0.30301   0.74304   0.57455   0.00000  Uiso   1.00
Br1069 Br    0.30862   0.79675   0.81904   0.00000  Uiso   1.00
Br1070 Br    0.09603   0.99295   0.80346   0.00000  Uiso   1.00
C1071  C     0.18021   0.71875   0.93520   0.00000  Uiso   1.00
O1072  O     0.20087   0.71032   0.89654   0.00000  Uiso   1.00
O1073  O     0.16498   0.68763   0.96515   0.00000  Uiso   1.00
H1074  H     0.17473   0.99308   0.95155   0.00000  Uiso   1.00
C1075  C     0.24607   0.73647   0.98147   0.00000  Uiso   1.00
O1076  O     0.24966   0.70303   0.99377   0.00000  Uiso   1.00
O1077  O     0.27139   0.74947   0.94002   0.00000  Uiso   1.00
H1078  H     0.29149   0.72856   0.92328   0.00000  Uiso   1.00
Br1079 Br    0.11129   0.93872   0.91328   0.00000  Uiso   1.00
C1080  C     0.09020   0.86467   0.56593   0.00000  Uiso   1.00
O1081  O     0.07248   0.83106   0.57888   0.00000  Uiso   1.00
O1082  O     0.08893   0.89983   0.59671   0.00000  Uiso   1.00
H1083  H     0.07202   0.89355   0.62844   0.00000  Uiso   1.00
Br1084 Br    0.07104   0.94094   0.52269   0.00000  Uiso   1.00
C1085  C     0.12376   0.76315   0.90015   0.00000  Uiso   1.00
O1086  O     0.13578   0.73370   0.87386   0.00000  Uiso   1.00
O1087  O     0.08455   0.77666   0.90160   0.00000  Uiso   1.00
H1088  H     0.06968   0.75991   0.87911   0.00000  Uiso   1.00
Zn1089 Zn    0.52672   0.80661   0.78734   0.00000  Uiso   1.00
Zn1090 Zn    0.46713   0.79124   0.71876   0.00000  Uiso   1.00
Zn1091 Zn    0.54389   0.86442   0.70657   0.00000  Uiso   1.00
Zn1092 Zn    0.46226   0.87106   0.78734   0.00000  Uiso   1.00
O1093  O     0.50000   0.83333   0.75000   0.00000  Uiso   1.00
O1094  O     0.40405   0.85544   0.78213   0.00000  Uiso   1.00
O1095  O     0.58824   0.81892   0.77013   0.00000  Uiso   1.00
O1096  O     0.47093   0.73610   0.73413   0.00000  Uiso   1.00
O1097  O     0.53678   0.92286   0.71361   0.00000  Uiso   1.00
O1098  O     0.48784   0.79304   0.65458   0.00000  Uiso   1.00
O1099  O     0.46274   0.87058   0.84968   0.00000  Uiso   1.00
O1100  O     0.54157   0.84425   0.64606   0.00000  Uiso   1.00
O1101  O     0.50785   0.82546   0.84968   0.00000  Uiso   1.00
O1102  O     0.51264   0.74686   0.78213   0.00000  Uiso   1.00
O1103  O     0.47965   0.92751   0.77014   0.00000  Uiso   1.00
O1104  O     0.40745   0.79958   0.73413   0.00000  Uiso   1.00
O1105  O     0.60026   0.85939   0.71360   0.00000  Uiso   1.00
C1106  C     0.38638   0.82683   0.75962   0.00000  Uiso   1.00
C1107  C     0.61399   0.84028   0.74036   0.00000  Uiso   1.00
C1108  C     0.48995   0.72268   0.75977   0.00000  Uiso   1.00
C1109  C     0.50966   0.94457   0.74055   0.00000  Uiso   1.00
C1110  C     0.51847   0.81491   0.62918   0.00000  Uiso   1.00
C1111  C     0.48130   0.85118   0.87157   0.00000  Uiso   1.00
C1112  C     0.54791   0.76346   0.51024   0.00000  Uiso   1.00
C1113  C     0.52526   0.80656   0.58021   0.00000  Uiso   1.00
C1114  C     0.45192   0.89323   0.94510   0.00000  Uiso   1.00
C1115  C     0.43807   0.89674   0.99262   0.00000  Uiso   1.00
C1116  C     0.44758   0.86746   0.51780   0.00000  Uiso   1.00
C1117  C     0.47400   0.83642   0.99482   0.00000  Uiso   1.00
C1118  C     0.47653   0.82624   0.94842   0.00000  Uiso   1.00
C1119  C     0.49795   0.81500   0.51576   0.00000  Uiso   1.00
C1120  C     0.51843   0.78034   0.99176   0.00000  Uiso   1.00
C1121  C     0.50670   0.76250   0.95155   0.00000  Uiso   1.00
C1122  C     0.48335   0.78487   0.93109   0.00000  Uiso   1.00
C1123  C     0.50422   0.82882   0.55877   0.00000  Uiso   1.00
C1124  C     0.54912   0.77494   0.55583   0.00000  Uiso   1.00
C1125  C     0.46949   0.85672   0.92216   0.00000  Uiso   1.00
H1126  H     0.49260   0.85684   0.57700   0.00000  Uiso   1.00
C1127  C     0.65941   0.84157   0.73667   0.00000  Uiso   1.00
H1128  H     0.34819   0.85734   0.70896   0.00000  Uiso   1.00
C1129  C     0.34121   0.82377   0.76583   0.00000  Uiso   1.00
C1130  C     0.51354   0.98924   0.73908   0.00000  Uiso   1.00
H1131  H     0.54182   0.67060   0.71637   0.00000  Uiso   1.00
C1132  C     0.48382   0.67914   0.76471   0.00000  Uiso   1.00
C1133  C     0.57707   0.75612   0.57738   0.00000  Uiso   1.00
O1134  O     0.56207   0.74076   0.61352   0.00000  Uiso   1.00
O1135  O     0.62067   0.75658   0.55658   0.00000  Uiso   1.00
H1136  H     0.63634   0.74304   0.57455   0.00000  Uiso   1.00
Br1137 Br    0.64196   0.79675   0.81904   0.00000  Uiso   1.00
Br1138 Br    0.42937   0.99295   0.80346   0.00000  Uiso   1.00
C1139  C     0.51354   0.71875   0.93520   0.00000  Uiso   1.00
O1140  O     0.53421   0.71032   0.89654   0.00000  Uiso   1.00
O1141  O     0.49831   0.68763   0.96515   0.00000  Uiso   1.00
H1142  H     0.50807   0.99308   0.95155   0.00000  Uiso   1.00
C1143  C     0.57940   0.73647   0.98147   0.00000  Uiso   1.00
O1144  O     0.58300   0.70303   0.99377   0.00000  Uiso   1.00
O1145  O     0.60473   0.74947   0.94002   0.00000  Uiso   1.00
H1146  H     0.62483   0.72856   0.92328   0.00000  Uiso   1.00
Br1147 Br    0.44462   0.93872   0.91328   0.00000  Uiso   1.00
C1148  C     0.42353   0.86467   0.56593   0.00000  Uiso   1.00
O1149  O     0.40582   0.83106   0.57888   0.00000  Uiso   1.00
O1150  O     0.42226   0.89983   0.59671   0.00000  Uiso   1.00
H1151  H     0.40535   0.89355   0.62844   0.00000  Uiso   1.00
Br1152 Br    0.40438   0.94094   0.52269   0.00000  Uiso   1.00
C1153  C     0.45709   0.76315   0.90015   0.00000  Uiso   1.00
O1154  O     0.46911   0.73370   0.87386   0.00000  Uiso   1.00
O1155  O     0.41788   0.77666   0.90160   0.00000  Uiso   1.00
H1156  H     0.40302   0.75991   0.87911   0.00000  Uiso   1.00
Zn1157 Zn    0.86005   0.80661   0.78734   0.00000  Uiso   1.00
Zn1158 Zn    0.80046   0.79124   0.71876   0.00000  Uiso   1.00
Zn1159 Zn    0.87723   0.86442   0.70657   0.00000  Uiso   1.00
Zn1160 Zn    0.79560   0.87106   0.78734   0.00000  Uiso   1.00
O1161  O     0.83333   0.83333   0.75000   0.00000  Uiso   1.00
O1162  O     0.73738   0.85544   0.78213   0.00000  Uiso   1.00
O1163  O     0.92158   0.81892   0.77013   0.00000  Uiso   1.00
O1164  O     0.80426   0.73610   0.73413   0.00000  Uiso   1.00
O1165  O     0.87012   0.92286   0.71361   0.00000  Uiso   1.00
O1166  O     0.82118   0.79304   0.65458   0.00000  Uiso   1.00
O1167  O     0.79607   0.87058   0.84968   0.00000  Uiso   1.00
O1168  O     0.87491   0.84425   0.64606   0.00000  Uiso   1.00
O1169  O     0.84118   0.82546   0.84968   0.00000  Uiso   1.00
O1170  O     0.84597   0.74686   0.78213   0.00000  Uiso   1.00
O1171  O     0.81298   0.92751   0.77014   0.00000  Uiso   1.00
O1172  O     0.74078   0.79958   0.73413   0.00000  Uiso   1.00
O1173  O     0.93360   0.85939   0.71360   0.00000  Uiso   1.00
C1174  C     0.71971   0.82683   0.75962   0.00000  Uiso   1.00
C1175  C     0.94732   0.84028   0.74036   0.00000  Uiso   1.00
C1176  C     0.82329   0.72268   0.75977   0.00000  Uiso   1.00
C1177  C     0.84300   0.94457   0.74055   0.00000  Uiso   1.00
C1178  C     0.85180   0.81491   0.62918   0.00000  Uiso   1.00
C1179  C     0.81464   0.85118   0.87157   0.00000  Uiso   1.00
C1180  C     0.88125   0.76346   0.51024   0.00000  Uiso   1.00
C1181  C     0.85860   0.80656   0.58021   0.00000  Uiso   1.00
C1182  C     0.78526   0.89323   0.94510   0.00000  Uiso   1.00
C1183  C     0.77140   0.89674   0.99262   0.00000  Uiso   1.00
C1184  C     0.78092   0.86746   0.51780   0.00000  Uiso   1.00
C1185  C     0.80733   0.83642   0.99482   0.00000  Uiso   1.00
C1186  C     0.80986   0.82624   0.94842   0.00000  Uiso   1.00
C1187  C     0.83128   0.81500   0.51576   0.00000  Uiso   1.00
C1188  C     0.85177   0.78034   0.99176   0.00000  Uiso   1.00
C1189  C     0.84004   0.76250   0.95155   0.00000  Uiso   1.00
C1190  C     0.81668   0.78487   0.93109   0.00000  Uiso   1.00
C1191  C     0.83756   0.82882   0.55877   0.00000  Uiso   1.00
C1192  C     0.88246   0.77494   0.55583   0.00000  Uiso   1.00
C1193  C     0.80283   0.85672   0.92216   0.00000  Uiso   1.00
H1194  H     0.82593   0.85684   0.57700   0.00000  Uiso   1.00
C1195  C     0.99274   0.84157   0.73667   0.00000  Uiso   1.00
H1196  H     0.68152   0.85734   0.70896   0.00000  Uiso   1.00
C1197  C     0.67455   0.82377   0.76583   0.00000  Uiso   1.00
C1198  C     0.84687   0.98924   0.73908   0.00000  Uiso   1.00
H1199  H     0.87516   0.67060   0.71637   0.00000  Uiso   1.00
C1200  C     0.81715   0.67914   0.76471   0.00000  Uiso   1.00
C1201  C     0.91040   0.75612   0.57738   0.00000  Uiso   1.00
O1202  O     0.89540   0.74076   0.61352   0.00000  Uiso   1.00
O1203  O     0.95401   0.75658   0.55658   0.00000  Uiso   1.00
H1204  H     0.96967   0.74304   0.57455   0.00000  Uiso   1.00
Br1205 Br    0.97529   0.79675   0.81904   0.00000  Uiso   1.00
Br1206 Br    0.76270   0.99295   0.80346   0.00000  Uiso   1.00
C1207  C     0.84688   0.71875   0.93520   0.00000  Uiso   1.00
O1208  O     0.86754   0.71032   0.89654   0.00000  Uiso   1.00
O1209  O     0.83165   0.68763   0.96515   0.00000  Uiso   1.00
H1210  H     0.84140   0.99308   0.95155   0.00000  Uiso   1.00
C1211  C     0.91274   0.73647   0.98147   0.00000  Uiso   1.00
O1212  O     0.91633   0.70303   0.99377   0.00000  Uiso   1.00
O1213  O     0.93806   0.74947   0.94002   0.00000  Uiso   1.00
H1214  H     0.95816   0.72856   0.92328   0.00000  Uiso   1.00
Br1215 Br    0.77795   0.93872   0.91328   0.00000  Uiso   1.00
C1216  C     0.75687   0.86467   0.56593   0.00000  Uiso   1.00
O1217  O     0.73915   0.83106   0.57888   0.00000  Uiso   1.00
O1218  O     0.75560   0.89983   0.59671   0.00000  Uiso   1.00
H1219  H     0.73869   0.89355   0.62844   0.00000  Uiso   1.00
Br1220 Br    0.73771   0.94094   0.52269   0.00000  Uiso   1.00
C1221  C     0.79043   0.76315   0.90015   0.00000  Uiso   1.00
O1222  O     0.80245   0.73370   0.87386   0.00000  Uiso   1.00
O1223  O     0.75122   0.77666   0.90160   0.00000  Uiso   1.00
H1224  H     0.73635   0.75991   0.87911   0.00000  Uiso   1.00
loop_
_geom_bond_atom_site_label_1
_geom_bond_atom_site_label_2
_geom_bond_distance
_geom_bond_site_symmetry_2
_ccdc_geom_bond_type
Zn1    O5      1.950   .     S
Zn1    O13     1.908   .     S
Zn1    O14     1.937   .     S
Zn1    O7      1.936   .     S
Zn2    O16     1.932   .     S
Zn2    O5      1.947   .     S
Zn2    O10     1.913   .     S
Zn2    O8      1.938   .     S
Zn3    O9      1.932   .     S
Zn3    O17     1.940   .     S
Zn3    O12     1.917   .     S
Zn3    O5      1.940   .     S
Zn4    O11     1.921   .     S
Zn4    O15     1.940   .     S
Zn4    O6      1.943   .     S
Zn4    O5      1.925   .     S
O6     C18     1.263   .     A
O7     C19     1.267   .     A
O8     C20     1.268   .     A
O9     C21     1.275   .     A
O10    C22     1.279   .     A
O11    C23     1.280   .     A
O12    C22     1.283   .     A
O13    C23     1.294   .     A
O14    C20     1.275   .     A
O15    C21     1.262   .     A
O16    C18     1.267   .     A
O17    C19     1.285   .     A
C18    C41     1.428   .     S
C19    C39     1.453   .     S
C20    C44     1.426   .     S
C21    C42     1.449   .     S
C22    C25     1.461   .     S
C23    C37     1.495   .     S
C24    C36     1.417   .     A
C24    C644    1.434   1_554 S
C24    C667    1.487   1_554 S
C25    C35     1.385   .     A
C25    C36     1.404   .     A
C26    C37     1.425   .     A
C26    Br59    1.940   .     S
C26    C27     1.406   .     A
C27    C640    1.408   .     S
C27    Br676   1.935   .     S
C28    C60     1.487   .     S
C28    C639    1.408   1_554 S
C28    C641    1.424   1_554 S
C29    C30     1.409   .     A
C29    C640    1.424   .     S
C29    C643    1.425   .     S
C30    C34     1.418   .     A
C30    C37     1.426   .     A
C31    C35     1.404   .     A
C31    C641    1.425   1_554 S
C31    C644    1.425   1_554 S
C32    C33     1.426   .     A
C32    C643    1.425   .     S
C32    C636    1.434   .     S
C33    C51     1.484   .     S
C33    C34     1.421   .     A
C34    C65     1.499   .     S
C35    H38     1.077   .     S
C36    C45     1.488   .     S
C39    H108    1.088   .     S
C39    C109    1.347   .     S
H40    C175    1.088   1_455 S
C41    C175    1.347   1_455 S
C41    Br185   1.933   1_455 S
C42    H247    1.088   .     S
C42    C248    1.343   .     S
H43    C450    1.088   1_545 S
C44    C450    1.343   1_545 S
C44    Br458   1.932   1_545 S
C45    O47     1.398   .     S
C45    O46     1.223   .     D
O47    H48     1.014   .     S
Br49   C109    1.933   .     S
Br50   C248    1.932   .     S
C51    O53     1.398   .     S
C51    O52     1.224   .     D
O53    H462    1.013   1_545 S
H54    O257    1.013   .     S
C55    O56     1.224   .     D
C55    O57     1.399   .     S
C55    C636    1.487   .     S
O57    H58     1.014   .     S
C60    O62     1.398   .     S
C60    O61     1.223   .     D
O62    H63     1.014   .     S
Br64   C639    1.935   1_554 S
C65    O67     1.400   .     S
C65    O66     1.221   .     D
O67    H68     1.014   .     S
Zn69   O73     1.950   .     S
Zn69   O81     1.908   .     S
Zn69   O82     1.937   .     S
Zn69   O75     1.936   .     S
Zn70   O84     1.932   .     S
Zn70   O73     1.947   .     S
Zn70   O78     1.913   .     S
Zn70   O76     1.938   .     S
Zn71   O77     1.932   .     S
Zn71   O85     1.940   .     S
Zn71   O80     1.917   .     S
Zn71   O73     1.940   .     S
Zn72   O79     1.921   .     S
Zn72   O83     1.940   .     S
Zn72   O74     1.943   .     S
Zn72   O73     1.925   .     S
O74    C86     1.263   .     A
O75    C87     1.267   .     A
O76    C88     1.268   .     A
O77    C89     1.275   .     A
O78    C90     1.279   .     A
O79    C91     1.280   .     A
O80    C90     1.283   .     A
O81    C91     1.294   .     A
O82    C88     1.275   .     A
O83    C89     1.262   .     A
O84    C86     1.267   .     A
O85    C87     1.285   .     A
C86    C109    1.428   .     S
C87    C107    1.453   .     S
C88    C112    1.426   .     S
C89    C110    1.449   .     S
C90    C93     1.461   .     S
C91    C105    1.495   .     S
C92    C104    1.417   .     A
C92    C712    1.434   1_554 S
C92    C735    1.487   1_554 S
C93    C103    1.385   .     A
C93    C104    1.404   .     A
C94    C105    1.425   .     A
C94    Br127   1.940   .     S
C94    C95     1.406   .     A
C95    C708    1.408   .     S
C95    Br744   1.935   .     S
C96    C128    1.487   .     S
C96    C707    1.408   1_554 S
C96    C709    1.424   1_554 S
C97    C98     1.409   .     A
C97    C708    1.424   .     S
C97    C711    1.425   .     S
C98    C102    1.418   .     A
C98    C105    1.426   .     A
C99    C103    1.404   .     A
C99    C709    1.425   1_554 S
C99    C712    1.425   1_554 S
C100   C101    1.426   .     A
C100   C711    1.425   .     S
C100   C704    1.434   .     S
C101   C119    1.484   .     S
C101   C102    1.421   .     A
C102   C133    1.499   .     S
C103   H106    1.077   .     S
C104   C113    1.488   .     S
C107   H176    1.088   .     S
C107   C177    1.347   .     S
C110   H315    1.088   .     S
C110   C316    1.343   .     S
H111   C518    1.088   1_545 S
C112   C518    1.343   1_545 S
C112   Br526   1.932   1_545 S
C113   O115    1.398   .     S
C113   O114    1.223   .     D
O115   H116    1.014   .     S
Br117  C177    1.933   .     S
Br118  C316    1.932   .     S
C119   O121    1.398   .     S
C119   O120    1.224   .     D
O121   H530    1.013   1_545 S
H122   O325    1.013   .     S
C123   O124    1.224   .     D
C123   O125    1.399   .     S
C123   C704    1.487   .     S
O125   H126    1.014   .     S
C128   O130    1.398   .     S
C128   O129    1.223   .     D
O130   H131    1.014   .     S
Br132  C707    1.935   1_554 S
C133   O135    1.400   .     S
C133   O134    1.221   .     D
O135   H136    1.014   .     S
Zn137  O141    1.950   .     S
Zn137  O149    1.908   .     S
Zn137  O150    1.937   .     S
Zn137  O143    1.936   .     S
Zn138  O152    1.932   .     S
Zn138  O141    1.947   .     S
Zn138  O146    1.913   .     S
Zn138  O144    1.938   .     S
Zn139  O145    1.932   .     S
Zn139  O153    1.940   .     S
Zn139  O148    1.917   .     S
Zn139  O141    1.940   .     S
Zn140  O147    1.921   .     S
Zn140  O151    1.940   .     S
Zn140  O142    1.943   .     S
Zn140  O141    1.925   .     S
O142   C154    1.263   .     A
O143   C155    1.267   .     A
O144   C156    1.268   .     A
O145   C157    1.275   .     A
O146   C158    1.279   .     A
O147   C159    1.280   .     A
O148   C158    1.283   .     A
O149   C159    1.294   .     A
O150   C156    1.275   .     A
O151   C157    1.262   .     A
O152   C154    1.267   .     A
O153   C155    1.285   .     A
C154   C177    1.428   .     S
C155   C175    1.453   .     S
C156   C180    1.426   .     S
C157   C178    1.449   .     S
C158   C161    1.461   .     S
C159   C173    1.495   .     S
C160   C172    1.417   .     A
C160   C780    1.434   1_554 S
C160   C803    1.487   1_554 S
C161   C171    1.385   .     A
C161   C172    1.404   .     A
C162   C173    1.425   .     A
C162   Br195   1.940   .     S
C162   C163    1.406   .     A
C163   C776    1.408   .     S
C163   Br812   1.935   .     S
C164   C196    1.487   .     S
C164   C775    1.408   1_554 S
C164   C777    1.424   1_554 S
C165   C166    1.409   .     A
C165   C776    1.424   .     S
C165   C779    1.425   .     S
C166   C170    1.418   .     A
C166   C173    1.426   .     A
C167   C171    1.404   .     A
C167   C777    1.425   1_554 S
C167   C780    1.425   1_554 S
C168   C169    1.426   .     A
C168   C779    1.425   .     S
C168   C772    1.434   .     S
C169   C187    1.484   .     S
C169   C170    1.421   .     A
C170   C201    1.499   .     S
C171   H174    1.077   .     S
C172   C181    1.488   .     S
C175   H40     1.088   1_655 S
C175   C41     1.347   1_655 S
C178   H383    1.088   .     S
C178   C384    1.343   .     S
H179   C586    1.088   1_545 S
C180   C586    1.343   1_545 S
C180   Br594   1.932   1_545 S
C181   O183    1.398   .     S
C181   O182    1.223   .     D
O183   H184    1.014   .     S
Br185  C41     1.933   1_655 S
Br186  C384    1.932   .     S
C187   O189    1.398   .     S
C187   O188    1.224   .     D
O189   H598    1.013   1_545 S
H190   O393    1.013   .     S
C191   O192    1.224   .     D
C191   O193    1.399   .     S
C191   C772    1.487   .     S
O193   H194    1.014   .     S
C196   O198    1.398   .     S
C196   O197    1.223   .     D
O198   H199    1.014   .     S
Br200  C775    1.935   1_554 S
C201   O203    1.400   .     S
C201   O202    1.221   .     D
O203   H204    1.014   .     S
Zn205  O209    1.950   .     S
Zn205  O217    1.908   .     S
Zn205  O218    1.937   .     S
Zn205  O211    1.936   .     S
Zn206  O220    1.932   .     S
Zn206  O209    1.947   .     S
Zn206  O214    1.913   .     S
Zn206  O212    1.938   .     S
Zn207  O213    1.932   .     S
Zn207  O221    1.940   .     S
Zn207  O216    1.917   .     S
Zn207  O209    1.940   .     S
Zn208  O215    1.921   .     S
Zn208  O219    1.940   .     S
Zn208  O210    1.943   .     S
Zn208  O209    1.925   .     S
O210   C222    1.263   .     A
O211   C223    1.267   .     A
O212   C224    1.268   .     A
O213   C225    1.275   .     A
O214   C226    1.279   .     A
O215   C227    1.280   .     A
O216   C226    1.283   .     A
O217   C227    1.294   .     A
O218   C224    1.275   .     A
O219   C225    1.262   .     A
O220   C222    1.267   .     A
O221   C223    1.285   .     A
C222   C245    1.428   .     S
C223   C243    1.453   .     S
C224   C248    1.426   .     S
C225   C246    1.449   .     S
C226   C229    1.461   .     S
C227   C241    1.495   .     S
C228   C240    1.417   .     A
C228   C848    1.434   1_554 S
C228   C871    1.487   1_554 S
C229   C239    1.385   .     A
C229   C240    1.404   .     A
C230   C241    1.425   .     A
C230   Br263   1.940   .     S
C230   C231    1.406   .     A
C231   C844    1.408   .     S
C231   Br880   1.935   .     S
C232   C264    1.487   .     S
C232   C843    1.408   1_554 S
C232   C845    1.424   1_554 S
C233   C234    1.409   .     A
C233   C844    1.424   .     S
C233   C847    1.425   .     S
C234   C238    1.418   .     A
C234   C241    1.426   .     A
C235   C239    1.404   .     A
C235   C845    1.425   1_554 S
C235   C848    1.425   1_554 S
C236   C237    1.426   .     A
C236   C847    1.425   .     S
C236   C840    1.434   .     S
C237   C255    1.484   .     S
C237   C238    1.421   .     A
C238   C269    1.499   .     S
C239   H242    1.077   .     S
C240   C249    1.488   .     S
C243   H312    1.088   .     S
C243   C313    1.347   .     S
H244   C379    1.088   1_455 S
C245   C379    1.347   1_455 S
C245   Br389   1.933   1_455 S
C246   H451    1.088   .     S
C246   C452    1.343   .     S
C249   O251    1.398   .     S
C249   O250    1.223   .     D
O251   H252    1.014   .     S
Br253  C313    1.933   .     S
Br254  C452    1.932   .     S
C255   O257    1.398   .     S
C255   O256    1.224   .     D
H258   O461    1.013   .     S
C259   O260    1.224   .     D
C259   O261    1.399   .     S
C259   C840    1.487   .     S
O261   H262    1.014   .     S
C264   O266    1.398   .     S
C264   O265    1.223   .     D
O266   H267    1.014   .     S
Br268  C843    1.935   1_554 S
C269   O271    1.400   .     S
C269   O270    1.221   .     D
O271   H272    1.014   .     S
Zn273  O277    1.950   .     S
Zn273  O285    1.908   .     S
Zn273  O286    1.937   .     S
Zn273  O279    1.936   .     S
Zn274  O288    1.932   .     S
Zn274  O277    1.947   .     S
Zn274  O282    1.913   .     S
Zn274  O280    1.938   .     S
Zn275  O281    1.932   .     S
Zn275  O289    1.940   .     S
Zn275  O284    1.917   .     S
Zn275  O277    1.940   .     S
Zn276  O283    1.921   .     S
Zn276  O287    1.940   .     S
Zn276  O278    1.943   .     S
Zn276  O277    1.925   .     S
O278   C290    1.263   .     A
O279   C291    1.267   .     A
O280   C292    1.268   .     A
O281   C293    1.275   .     A
O282   C294    1.279   .     A
O283   C295    1.280   .     A
O284   C294    1.283   .     A
O285   C295    1.294   .     A
O286   C292    1.275   .     A
O287   C293    1.262   .     A
O288   C290    1.267   .     A
O289   C291    1.285   .     A
C290   C313    1.428   .     S
C291   C311    1.453   .     S
C292   C316    1.426   .     S
C293   C314    1.449   .     S
C294   C297    1.461   .     S
C295   C309    1.495   .     S
C296   C308    1.417   .     A
C296   C916    1.434   1_554 S
C296   C939    1.487   1_554 S
C297   C307    1.385   .     A
C297   C308    1.404   .     A
C298   C309    1.425   .     A
C298   Br331   1.940   .     S
C298   C299    1.406   .     A
C299   C912    1.408   .     S
C299   Br948   1.935   .     S
C300   C332    1.487   .     S
C300   C911    1.408   1_554 S
C300   C913    1.424   1_554 S
C301   C302    1.409   .     A
C301   C912    1.424   .     S
C301   C915    1.425   .     S
C302   C306    1.418   .     A
C302   C309    1.426   .     A
C303   C307    1.404   .     A
C303   C913    1.425   1_554 S
C303   C916    1.425   1_554 S
C304   C305    1.426   .     A
C304   C915    1.425   .     S
C304   C908    1.434   .     S
C305   C323    1.484   .     S
C305   C306    1.421   .     A
C306   C337    1.499   .     S
C307   H310    1.077   .     S
C308   C317    1.488   .     S
C311   H380    1.088   .     S
C311   C381    1.347   .     S
C314   H519    1.088   .     S
C314   C520    1.343   .     S
C317   O319    1.398   .     S
C317   O318    1.223   .     D
O319   H320    1.014   .     S
Br321  C381    1.933   .     S
Br322  C520    1.932   .     S
C323   O325    1.398   .     S
C323   O324    1.224   .     D
H326   O529    1.013   .     S
C327   O328    1.224   .     D
C327   O329    1.399   .     S
C327   C908    1.487   .     S
O329   H330    1.014   .     S
C332   O334    1.398   .     S
C332   O333    1.223   .     D
O334   H335    1.014   .     S
Br336  C911    1.935   1_554 S
C337   O339    1.400   .     S
C337   O338    1.221   .     D
O339   H340    1.014   .     S
Zn341  O345    1.950   .     S
Zn341  O353    1.908   .     S
Zn341  O354    1.937   .     S
Zn341  O347    1.936   .     S
Zn342  O356    1.932   .     S
Zn342  O345    1.947   .     S
Zn342  O350    1.913   .     S
Zn342  O348    1.938   .     S
Zn343  O349    1.932   .     S
Zn343  O357    1.940   .     S
Zn343  O352    1.917   .     S
Zn343  O345    1.940   .     S
Zn344  O351    1.921   .     S
Zn344  O355    1.940   .     S
Zn344  O346    1.943   .     S
Zn344  O345    1.925   .     S
O346   C358    1.263   .     A
O347   C359    1.267   .     A
O348   C360    1.268   .     A
O349   C361    1.275   .     A
O350   C362    1.279   .     A
O351   C363    1.280   .     A
O352   C362    1.283   .     A
O353   C363    1.294   .     A
O354   C360    1.275   .     A
O355   C361    1.262   .     A
O356   C358    1.267   .     A
O357   C359    1.285   .     A
C358   C381    1.428   .     S
C359   C379    1.453   .     S
C360   C384    1.426   .     S
C361   C382    1.449   .     S
C362   C365    1.461   .     S
C363   C377    1.495   .     S
C364   C376    1.417   .     A
C364   C984    1.434   1_554 S
C364   C1007   1.487   1_554 S
C365   C375    1.385   .     A
C365   C376    1.404   .     A
C366   C377    1.425   .     A
C366   Br399   1.940   .     S
C366   C367    1.406   .     A
C367   C980    1.408   .     S
C367   Br1016  1.935   .     S
C368   C400    1.487   .     S
C368   C979    1.408   1_554 S
C368   C981    1.424   1_554 S
C369   C370    1.409   .     A
C369   C980    1.424   .     S
C369   C983    1.425   .     S
C370   C374    1.418   .     A
C370   C377    1.426   .     A
C371   C375    1.404   .     A
C371   C981    1.425   1_554 S
C371   C984    1.425   1_554 S
C372   C373    1.426   .     A
C372   C983    1.425   .     S
C372   C976    1.434   .     S
C373   C391    1.484   .     S
C373   C374    1.421   .     A
C374   C405    1.499   .     S
C375   H378    1.077   .     S
C376   C385    1.488   .     S
C379   H244    1.088   1_655 S
C379   C245    1.347   1_655 S
C382   H587    1.088   .     S
C382   C588    1.343   .     S
C385   O387    1.398   .     S
C385   O386    1.223   .     D
O387   H388    1.014   .     S
Br389  C245    1.933   1_655 S
Br390  C588    1.932   .     S
C391   O393    1.398   .     S
C391   O392    1.224   .     D
H394   O597    1.013   .     S
C395   O396    1.224   .     D
C395   O397    1.399   .     S
C395   C976    1.487   .     S
O397   H398    1.014   .     S
C400   O402    1.398   .     S
C400   O401    1.223   .     D
O402   H403    1.014   .     S
Br404  C979    1.935   1_554 S
C405   O407    1.400   .     S
C405   O406    1.221   .     D
O407   H408    1.014   .     S
Zn409  O413    1.950   .     S
Zn409  O421    1.908   .     S
Zn409  O422    1.937   .     S
Zn409  O415    1.936   .     S
Zn410  O424    1.932   .     S
Zn410  O413    1.947   .     S
Zn410  O418    1.913   .     S
Zn410  O416    1.938   .     S
Zn411  O417    1.932   .     S
Zn411  O425    1.940   .     S
Zn411  O420    1.917   .     S
Zn411  O413    1.940   .     S
Zn412  O419    1.921   .     S
Zn412  O423    1.940   .     S
Zn412  O414    1.943   .     S
Zn412  O413    1.925   .     S
O414   C426    1.263   .     A
O415   C427    1.267   .     A
O416   C428    1.268   .     A
O417   C429    1.275   .     A
O418   C430    1.279   .     A
O419   C431    1.280   .     A
O420   C430    1.283   .     A
O421   C431    1.294   .     A
O422   C428    1.275   .     A
O423   C429    1.262   .     A
O424   C426    1.267   .     A
O425   C427    1.285   .     A
C426   C449    1.428   .     S
C427   C447    1.453   .     S
C428   C452    1.426   .     S
C429   C450    1.449   .     S
C430   C433    1.461   .     S
C431   C445    1.495   .     S
C432   C444    1.417   .     A
C432   C1052   1.434   1_554 S
C432   C1075   1.487   1_554 S
C433   C443    1.385   .     A
C433   C444    1.404   .     A
C434   C445    1.425   .     A
C434   Br467   1.940   .     S
C434   C435    1.406   .     A
C435   C1048   1.408   .     S
C435   Br1084  1.935   .     S
C436   C468    1.487   .     S
C436   C1047   1.408   1_554 S
C436   C1049   1.424   1_554 S
C437   C438    1.409   .     A
C437   C1048   1.424   .     S
C437   C1051   1.425   .     S
C438   C442    1.418   .     A
C438   C445    1.426   .     A
C439   C443    1.404   .     A
C439   C1049   1.425   1_554 S
C439   C1052   1.425   1_554 S
C440   C441    1.426   .     A
C440   C1051   1.425   .     S
C440   C1044   1.434   .     S
C441   C459    1.484   .     S
C441   C442    1.421   .     A
C442   C473    1.499   .     S
C443   H446    1.077   .     S
C444   C453    1.488   .     S
C447   H516    1.088   .     S
C447   C517    1.347   .     S
H448   C583    1.088   1_455 S
C449   C583    1.347   1_455 S
C449   Br593   1.933   1_455 S
C450   H43     1.088   1_565 S
C450   C44     1.343   1_565 S
C453   O455    1.398   .     S
C453   O454    1.223   .     D
O455   H456    1.014   .     S
Br457  C517    1.933   .     S
Br458  C44     1.932   1_565 S
C459   O461    1.398   .     S
C459   O460    1.224   .     D
H462   O53     1.013   1_565 S
C463   O464    1.224   .     D
C463   O465    1.399   .     S
C463   C1044   1.487   .     S
O465   H466    1.014   .     S
C468   O470    1.398   .     S
C468   O469    1.223   .     D
O470   H471    1.014   .     S
Br472  C1047   1.935   1_554 S
C473   O475    1.400   .     S
C473   O474    1.221   .     D
O475   H476    1.014   .     S
Zn477  O481    1.950   .     S
Zn477  O489    1.908   .     S
Zn477  O490    1.937   .     S
Zn477  O483    1.936   .     S
Zn478  O492    1.932   .     S
Zn478  O481    1.947   .     S
Zn478  O486    1.913   .     S
Zn478  O484    1.938   .     S
Zn479  O485    1.932   .     S
Zn479  O493    1.940   .     S
Zn479  O488    1.917   .     S
Zn479  O481    1.940   .     S
Zn480  O487    1.921   .     S
Zn480  O491    1.940   .     S
Zn480  O482    1.943   .     S
Zn480  O481    1.925   .     S
O482   C494    1.263   .     A
O483   C495    1.267   .     A
O484   C496    1.268   .     A
O485   C497    1.275   .     A
O486   C498    1.279   .     A
O487   C499    1.280   .     A
O488   C498    1.283   .     A
O489   C499    1.294   .     A
O490   C496    1.275   .     A
O491   C497    1.262   .     A
O492   C494    1.267   .     A
O493   C495    1.285   .     A
C494   C517    1.428   .     S
C495   C515    1.453   .     S
C496   C520    1.426   .     S
C497   C518    1.449   .     S
C498   C501    1.461   .     S
C499   C513    1.495   .     S
C500   C512    1.417   .     A
C500   C1120   1.434   1_554 S
C500   C1143   1.487   1_554 S
C501   C511    1.385   .     A
C501   C512    1.404   .     A
C502   C513    1.425   .     A
C502   Br535   1.940   .     S
C502   C503    1.406   .     A
C503   C1116   1.408   .     S
C503   Br1152  1.935   .     S
C504   C536    1.487   .     S
C504   C1115   1.408   1_554 S
C504   C1117   1.424   1_554 S
C505   C506    1.409   .     A
C505   C1116   1.424   .     S
C505   C1119   1.425   .     S
C506   C510    1.418   .     A
C506   C513    1.426   .     A
C507   C511    1.404   .     A
C507   C1117   1.425   1_554 S
C507   C1120   1.425   1_554 S
C508   C509    1.426   .     A
C508   C1119   1.425   .     S
C508   C1112   1.434   .     S
C509   C527    1.484   .     S
C509   C510    1.421   .     A
C510   C541    1.499   .     S
C511   H514    1.077   .     S
C512   C521    1.488   .     S
C515   H584    1.088   .     S
C515   C585    1.347   .     S
C518   H111    1.088   1_565 S
C518   C112    1.343   1_565 S
C521   O523    1.398   .     S
C521   O522    1.223   .     D
O523   H524    1.014   .     S
Br525  C585    1.933   .     S
Br526  C112    1.932   1_565 S
C527   O529    1.398   .     S
C527   O528    1.224   .     D
H530   O121    1.013   1_565 S
C531   O532    1.224   .     D
C531   O533    1.399   .     S
C531   C1112   1.487   .     S
O533   H534    1.014   .     S
C536   O538    1.398   .     S
C536   O537    1.223   .     D
O538   H539    1.014   .     S
Br540  C1115   1.935   1_554 S
C541   O543    1.400   .     S
C541   O542    1.221   .     D
O543   H544    1.014   .     S
Zn545  O549    1.950   .     S
Zn545  O557    1.908   .     S
Zn545  O558    1.937   .     S
Zn545  O551    1.936   .     S
Zn546  O560    1.932   .     S
Zn546  O549    1.947   .     S
Zn546  O554    1.913   .     S
Zn546  O552    1.938   .     S
Zn547  O553    1.932   .     S
Zn547  O561    1.940   .     S
Zn547  O556    1.917   .     S
Zn547  O549    1.940   .     S
Zn548  O555    1.921   .     S
Zn548  O559    1.940   .     S
Zn548  O550    1.943   .     S
Zn548  O549    1.925   .     S
O550   C562    1.263   .     A
O551   C563    1.267   .     A
O552   C564    1.268   .     A
O553   C565    1.275   .     A
O554   C566    1.279   .     A
O555   C567    1.280   .     A
O556   C566    1.283   .     A
O557   C567    1.294   .     A
O558   C564    1.275   .     A
O559   C565    1.262   .     A
O560   C562    1.267   .     A
O561   C563    1.285   .     A
C562   C585    1.428   .     S
C563   C583    1.453   .     S
C564   C588    1.426   .     S
C565   C586    1.449   .     S
C566   C569    1.461   .     S
C567   C581    1.495   .     S
C568   C580    1.417   .     A
C568   C1188   1.434   1_554 S
C568   C1211   1.487   1_554 S
C569   C579    1.385   .     A
C569   C580    1.404   .     A
C570   C581    1.425   .     A
C570   Br603   1.940   .     S
C570   C571    1.406   .     A
C571   C1184   1.408   .     S
C571   Br1220  1.935   .     S
C572   C604    1.487   .     S
C572   C1183   1.408   1_554 S
C572   C1185   1.424   1_554 S
C573   C574    1.409   .     A
C573   C1184   1.424   .     S
C573   C1187   1.425   .     S
C574   C578    1.418   .     A
C574   C581    1.426   .     A
C575   C579    1.404   .     A
C575   C1185   1.425   1_554 S
C575   C1188   1.425   1_554 S
C576   C577    1.426   .     A
C576   C1187   1.425   .     S
C576   C1180   1.434   .     S
C577   C595    1.484   .     S
C577   C578    1.421   .     A
C578   C609    1.499   .     S
C579   H582    1.077   .     S
C580   C589    1.488   .     S
C583   H448    1.088   1_655 S
C583   C449    1.347   1_655 S
C586   H179    1.088   1_565 S
C586   C180    1.343   1_565 S
C589   O591    1.398   .     S
C589   O590    1.223   .     D
O591   H592    1.014   .     S
Br593  C449    1.933   1_655 S
Br594  C180    1.932   1_565 S
C595   O597    1.398   .     S
C595   O596    1.224   .     D
H598   O189    1.013   1_565 S
C599   O600    1.224   .     D
C599   O601    1.399   .     S
C599   C1180   1.487   .     S
O601   H602    1.014   .     S
C604   O606    1.398   .     S
C604   O605    1.223   .     D
O606   H607    1.014   .     S
Br608  C1183   1.935   1_554 S
C609   O611    1.400   .     S
C609   O610    1.221   .     D
O611   H612    1.014   .     S
Zn613  O617    1.950   .     S
Zn613  O625    1.908   .     S
Zn613  O626    1.937   .     S
Zn613  O619    1.936   .     S
Zn614  O628    1.932   .     S
Zn614  O617    1.947   .     S
Zn614  O622    1.913   .     S
Zn614  O620    1.938   .     S
Zn615  O621    1.932   .     S
Zn615  O629    1.940   .     S
Zn615  O624    1.917   .     S
Zn615  O617    1.940   .     S
Zn616  O623    1.921   .     S
Zn616  O627    1.940   .     S
Zn616  O618    1.943   .     S
Zn616  O617    1.925   .     S
O618   C630    1.263   .     A
O619   C631    1.267   .     A
O620   C632    1.268   .     A
O621   C633    1.275   .     A
O622   C634    1.279   .     A
O623   C635    1.280   .     A
O624   C634    1.283   .     A
O625   C635    1.294   .     A
O626   C632    1.275   .     A
O627   C633    1.262   .     A
O628   C630    1.267   .     A
O629   C631    1.285   .     A
C630   C653    1.428   .     S
C631   C651    1.453   .     S
C632   C656    1.426   .     S
C633   C654    1.449   .     S
C634   C637    1.461   .     S
C635   C649    1.495   .     S
C636   C648    1.417   .     A
C637   C647    1.385   .     A
C637   C648    1.404   .     A
C638   C649    1.425   .     A
C638   Br671   1.940   .     S
C638   C639    1.406   .     A
C639   C28     1.408   1_556 S
C639   Br64    1.935   1_556 S
C640   C672    1.487   .     S
C641   C642    1.409   .     A
C641   C28     1.424   1_556 S
C641   C31     1.425   1_556 S
C642   C646    1.418   .     A
C642   C649    1.426   .     A
C643   C647    1.404   .     A
C644   C645    1.426   .     A
C644   C31     1.425   1_556 S
C644   C24     1.434   1_556 S
C645   C663    1.484   .     S
C645   C646    1.421   .     A
C646   C677    1.499   .     S
C647   H650    1.077   .     S
C648   C657    1.488   .     S
C651   H720    1.088   .     S
C651   C721    1.347   .     S
H652   C787    1.088   1_455 S
C653   C787    1.347   1_455 S
C653   Br797   1.933   1_455 S
C654   H859    1.088   .     S
C654   C860    1.343   .     S
H655   C1062   1.088   1_545 S
C656   C1062   1.343   1_545 S
C656   Br1070  1.932   1_545 S
C657   O659    1.398   .     S
C657   O658    1.223   .     D
O659   H660    1.014   .     S
Br661  C721    1.933   .     S
Br662  C860    1.932   .     S
C663   O665    1.398   .     S
C663   O664    1.224   .     D
O665   H1074   1.013   1_545 S
H666   O869    1.013   .     S
C667   O668    1.224   .     D
C667   O669    1.399   .     S
C667   C24     1.487   1_556 S
O669   H670    1.014   .     S
C672   O674    1.398   .     S
C672   O673    1.223   .     D
O674   H675    1.014   .     S
C677   O679    1.400   .     S
C677   O678    1.221   .     D
O679   H680    1.014   .     S
Zn681  O685    1.950   .     S
Zn681  O693    1.908   .     S
Zn681  O694    1.937   .     S
Zn681  O687    1.936   .     S
Zn682  O696    1.932   .     S
Zn682  O685    1.947   .     S
Zn682  O690    1.913   .     S
Zn682  O688    1.938   .     S
Zn683  O689    1.932   .     S
Zn683  O697    1.940   .     S
Zn683  O692    1.917   .     S
Zn683  O685    1.940   .     S
Zn684  O691    1.921   .     S
Zn684  O695    1.940   .     S
Zn684  O686    1.943   .     S
Zn684  O685    1.925   .     S
O686   C698    1.263   .     A
O687   C699    1.267   .     A
O688   C700    1.268   .     A
O689   C701    1.275   .     A
O690   C702    1.279   .     A
O691   C703    1.280   .     A
O692   C702    1.283   .     A
O693   C703    1.294   .     A
O694   C700    1.275   .     A
O695   C701    1.262   .     A
O696   C698    1.267   .     A
O697   C699    1.285   .     A
C698   C721    1.428   .     S
C699   C719    1.453   .     S
C700   C724    1.426   .     S
C701   C722    1.449   .     S
C702   C705    1.461   .     S
C703   C717    1.495   .     S
C704   C716    1.417   .     A
C705   C715    1.385   .     A
C705   C716    1.404   .     A
C706   C717    1.425   .     A
C706   Br739   1.940   .     S
C706   C707    1.406   .     A
C707   C96     1.408   1_556 S
C707   Br132   1.935   1_556 S
C708   C740    1.487   .     S
C709   C710    1.409   .     A
C709   C96     1.424   1_556 S
C709   C99     1.425   1_556 S
C710   C714    1.418   .     A
C710   C717    1.426   .     A
C711   C715    1.404   .     A
C712   C713    1.426   .     A
C712   C99     1.425   1_556 S
C712   C92     1.434   1_556 S
C713   C731    1.484   .     S
C713   C714    1.421   .     A
C714   C745    1.499   .     S
C715   H718    1.077   .     S
C716   C725    1.488   .     S
C719   H788    1.088   .     S
C719   C789    1.347   .     S
C722   H927    1.088   .     S
C722   C928    1.343   .     S
H723   C1130   1.088   1_545 S
C724   C1130   1.343   1_545 S
C724   Br1138  1.932   1_545 S
C725   O727    1.398   .     S
C725   O726    1.223   .     D
O727   H728    1.014   .     S
Br729  C789    1.933   .     S
Br730  C928    1.932   .     S
C731   O733    1.398   .     S
C731   O732    1.224   .     D
O733   H1142   1.013   1_545 S
H734   O937    1.013   .     S
C735   O736    1.224   .     D
C735   O737    1.399   .     S
C735   C92     1.487   1_556 S
O737   H738    1.014   .     S
C740   O742    1.398   .     S
C740   O741    1.223   .     D
O742   H743    1.014   .     S
C745   O747    1.400   .     S
C745   O746    1.221   .     D
O747   H748    1.014   .     S
Zn749  O753    1.950   .     S
Zn749  O761    1.908   .     S
Zn749  O762    1.937   .     S
Zn749  O755    1.936   .     S
Zn750  O764    1.932   .     S
Zn750  O753    1.947   .     S
Zn750  O758    1.913   .     S
Zn750  O756    1.938   .     S
Zn751  O757    1.932   .     S
Zn751  O765    1.940   .     S
Zn751  O760    1.917   .     S
Zn751  O753    1.940   .     S
Zn752  O759    1.921   .     S
Zn752  O763    1.940   .     S
Zn752  O754    1.943   .     S
Zn752  O753    1.925   .     S
O754   C766    1.263   .     A
O755   C767    1.267   .     A
O756   C768    1.268   .     A
O757   C769    1.275   .     A
O758   C770    1.279   .     A
O759   C771    1.280   .     A
O760   C770    1.283   .     A
O761   C771    1.294   .     A
O762   C768    1.275   .     A
O763   C769    1.262   .     A
O764   C766    1.267   .     A
O765   C767    1.285   .     A
C766   C789    1.428   .     S
C767   C787    1.453   .     S
C768   C792    1.426   .     S
C769   C790    1.449   .     S
C770   C773    1.461   .     S
C771   C785    1.495   .     S
C772   C784    1.417   .     A
C773   C783    1.385   .     A
C773   C784    1.404   .     A
C774   C785    1.425   .     A
C774   Br807   1.940   .     S
C774   C775    1.406   .     A
C775   C164    1.408   1_556 S
C775   Br200   1.935   1_556 S
C776   C808    1.487   .     S
C777   C778    1.409   .     A
C777   C164    1.424   1_556 S
C777   C167    1.425   1_556 S
C778   C782    1.418   .     A
C778   C785    1.426   .     A
C779   C783    1.404   .     A
C780   C781    1.426   .     A
C780   C167    1.425   1_556 S
C780   C160    1.434   1_556 S
C781   C799    1.484   .     S
C781   C782    1.421   .     A
C782   C813    1.499   .     S
C783   H786    1.077   .     S
C784   C793    1.488   .     S
C787   H652    1.088   1_655 S
C787   C653    1.347   1_655 S
C790   H995    1.088   .     S
C790   C996    1.343   .     S
H791   C1198   1.088   1_545 S
C792   C1198   1.343   1_545 S
C792   Br1206  1.932   1_545 S
C793   O795    1.398   .     S
C793   O794    1.223   .     D
O795   H796    1.014   .     S
Br797  C653    1.933   1_655 S
Br798  C996    1.932   .     S
C799   O801    1.398   .     S
C799   O800    1.224   .     D
O801   H1210   1.013   1_545 S
H802   O1005   1.013   .     S
C803   O804    1.224   .     D
C803   O805    1.399   .     S
C803   C160    1.487   1_556 S
O805   H806    1.014   .     S
C808   O810    1.398   .     S
C808   O809    1.223   .     D
O810   H811    1.014   .     S
C813   O815    1.400   .     S
C813   O814    1.221   .     D
O815   H816    1.014   .     S
Zn817  O821    1.950   .     S
Zn817  O829    1.908   .     S
Zn817  O830    1.937   .     S
Zn817  O823    1.936   .     S
Zn818  O832    1.932   .     S
Zn818  O821    1.947   .     S
Zn818  O826    1.913   .     S
Zn818  O824    1.938   .     S
Zn819  O825    1.932   .     S
Zn819  O833    1.940   .     S
Zn819  O828    1.917   .     S
Zn819  O821    1.940   .     S
Zn820  O827    1.921   .     S
Zn820  O831    1.940   .     S
Zn820  O822    1.943   .     S
Zn820  O821    1.925   .     S
O822   C834    1.263   .     A
O823   C835    1.267   .     A
O824   C836    1.268   .     A
O825   C837    1.275   .     A
O826   C838    1.279   .     A
O827   C839    1.280   .     A
O828   C838    1.283   .     A
O829   C839    1.294   .     A
O830   C836    1.275   .     A
O831   C837    1.262   .     A
O832   C834    1.267   .     A
O833   C835    1.285   .     A
C834   C857    1.428   .     S
C835   C855    1.453   .     S
C836   C860    1.426   .     S
C837   C858    1.449   .     S
C838   C841    1.461   .     S
C839   C853    1.495   .     S
C840   C852    1.417   .     A
C841   C851    1.385   .     A
C841   C852    1.404   .     A
C842   C853    1.425   .     A
C842   Br875   1.940   .     S
C842   C843    1.406   .     A
C843   C232    1.408   1_556 S
C843   Br268   1.935   1_556 S
C844   C876    1.487   .     S
C845   C846    1.409   .     A
C845   C232    1.424   1_556 S
C845   C235    1.425   1_556 S
C846   C850    1.418   .     A
C846   C853    1.426   .     A
C847   C851    1.404   .     A
C848   C849    1.426   .     A
C848   C235    1.425   1_556 S
C848   C228    1.434   1_556 S
C849   C867    1.484   .     S
C849   C850    1.421   .     A
C850   C881    1.499   .     S
C851   H854    1.077   .     S
C852   C861    1.488   .     S
C855   H924    1.088   .     S
C855   C925    1.347   .     S
H856   C991    1.088   1_455 S
C857   C991    1.347   1_455 S
C857   Br1001  1.933   1_455 S
C858   H1063   1.088   .     S
C858   C1064   1.343   .     S
C861   O863    1.398   .     S
C861   O862    1.223   .     D
O863   H864    1.014   .     S
Br865  C925    1.933   .     S
Br866  C1064   1.932   .     S
C867   O869    1.398   .     S
C867   O868    1.224   .     D
H870   O1073   1.013   .     S
C871   O872    1.224   .     D
C871   O873    1.399   .     S
C871   C228    1.487   1_556 S
O873   H874    1.014   .     S
C876   O878    1.398   .     S
C876   O877    1.223   .     D
O878   H879    1.014   .     S
C881   O883    1.400   .     S
C881   O882    1.221   .     D
O883   H884    1.014   .     S
Zn885  O889    1.950   .     S
Zn885  O897    1.908   .     S
Zn885  O898    1.937   .     S
Zn885  O891    1.936   .     S
Zn886  O900    1.932   .     S
Zn886  O889    1.947   .     S
Zn886  O894    1.913   .     S
Zn886  O892    1.938   .     S
Zn887  O893    1.932   .     S
Zn887  O901    1.940   .     S
Zn887  O896    1.917   .     S
Zn887  O889    1.940   .     S
Zn888  O895    1.921   .     S
Zn888  O899    1.940   .     S
Zn888  O890    1.943   .     S
Zn888  O889    1.925   .     S
O890   C902    1.263   .     A
O891   C903    1.267   .     A
O892   C904    1.268   .     A
O893   C905    1.275   .     A
O894   C906    1.279   .     A
O895   C907    1.280   .     A
O896   C906    1.283   .     A
O897   C907    1.294   .     A
O898   C904    1.275   .     A
O899   C905    1.262   .     A
O900   C902    1.267   .     A
O901   C903    1.285   .     A
C902   C925    1.428   .     S
C903   C923    1.453   .     S
C904   C928    1.426   .     S
C905   C926    1.449   .     S
C906   C909    1.461   .     S
C907   C921    1.495   .     S
C908   C920    1.417   .     A
C909   C919    1.385   .     A
C909   C920    1.404   .     A
C910   C921    1.425   .     A
C910   Br943   1.940   .     S
C910   C911    1.406   .     A
C911   C300    1.408   1_556 S
C911   Br336   1.935   1_556 S
C912   C944    1.487   .     S
C913   C914    1.409   .     A
C913   C300    1.424   1_556 S
C913   C303    1.425   1_556 S
C914   C918    1.418   .     A
C914   C921    1.426   .     A
C915   C919    1.404   .     A
C916   C917    1.426   .     A
C916   C303    1.425   1_556 S
C916   C296    1.434   1_556 S
C917   C935    1.484   .     S
C917   C918    1.421   .     A
C918   C949    1.499   .     S
C919   H922    1.077   .     S
C920   C929    1.488   .     S
C923   H992    1.088   .     S
C923   C993    1.347   .     S
C926   H1131   1.088   .     S
C926   C1132   1.343   .     S
C929   O931    1.398   .     S
C929   O930    1.223   .     D
O931   H932    1.014   .     S
Br933  C993    1.933   .     S
Br934  C1132   1.932   .     S
C935   O937    1.398   .     S
C935   O936    1.224   .     D
H938   O1141   1.013   .     S
C939   O940    1.224   .     D
C939   O941    1.399   .     S
C939   C296    1.487   1_556 S
O941   H942    1.014   .     S
C944   O946    1.398   .     S
C944   O945    1.223   .     D
O946   H947    1.014   .     S
C949   O951    1.400   .     S
C949   O950    1.221   .     D
O951   H952    1.014   .     S
Zn953  O957    1.950   .     S
Zn953  O965    1.908   .     S
Zn953  O966    1.937   .     S
Zn953  O959    1.936   .     S
Zn954  O968    1.932   .     S
Zn954  O957    1.947   .     S
Zn954  O962    1.913   .     S
Zn954  O960    1.938   .     S
Zn955  O961    1.932   .     S
Zn955  O969    1.940   .     S
Zn955  O964    1.917   .     S
Zn955  O957    1.940   .     S
Zn956  O963    1.921   .     S
Zn956  O967    1.940   .     S
Zn956  O958    1.943   .     S
Zn956  O957    1.925   .     S
O958   C970    1.263   .     A
O959   C971    1.267   .     A
O960   C972    1.268   .     A
O961   C973    1.275   .     A
O962   C974    1.279   .     A
O963   C975    1.280   .     A
O964   C974    1.283   .     A
O965   C975    1.294   .     A
O966   C972    1.275   .     A
O967   C973    1.262   .     A
O968   C970    1.267   .     A
O969   C971    1.285   .     A
C970   C993    1.428   .     S
C971   C991    1.453   .     S
C972   C996    1.426   .     S
C973   C994    1.449   .     S
C974   C977    1.461   .     S
C975   C989    1.495   .     S
C976   C988    1.417   .     A
C977   C987    1.385   .     A
C977   C988    1.404   .     A
C978   C989    1.425   .     A
C978   Br1011  1.940   .     S
C978   C979    1.406   .     A
C979   C368    1.408   1_556 S
C979   Br404   1.935   1_556 S
C980   C1012   1.487   .     S
C981   C982    1.409   .     A
C981   C368    1.424   1_556 S
C981   C371    1.425   1_556 S
C982   C986    1.418   .     A
C982   C989    1.426   .     A
C983   C987    1.404   .     A
C984   C985    1.426   .     A
C984   C371    1.425   1_556 S
C984   C364    1.434   1_556 S
C985   C1003   1.484   .     S
C985   C986    1.421   .     A
C986   C1017   1.499   .     S
C987   H990    1.077   .     S
C988   C997    1.488   .     S
C991   H856    1.088   1_655 S
C991   C857    1.347   1_655 S
C994   H1199   1.088   .     S
C994   C1200   1.343   .     S
C997   O999    1.398   .     S
C997   O998    1.223   .     D
O999   H1000   1.014   .     S
Br1001 C857    1.933   1_655 S
Br1002 C1200   1.932   .     S
C1003  O1005   1.398   .     S
C1003  O1004   1.224   .     D
H1006  O1209   1.013   .     S
C1007  O1008   1.224   .     D
C1007  O1009   1.399   .     S
C1007  C364    1.487   1_556 S
O1009  H1010   1.014   .     S
C1012  O1014   1.398   .     S
C1012  O1013   1.223   .     D
O1014  H1015   1.014   .     S
C1017  O1019   1.400   .     S
C1017  O1018   1.221   .     D
O1019  H1020   1.014   .     S
Zn1021 O1025   1.950   .     S
Zn1021 O1033   1.908   .     S
Zn1021 O1034   1.937   .     S
Zn1021 O1027   1.936   .     S
Zn1022 O1036   1.932   .     S
Zn1022 O1025   1.947   .     S
Zn1022 O1030   1.913   .     S
Zn1022 O1028   1.938   .     S
Zn1023 O1029   1.932   .     S
Zn1023 O1037   1.940   .     S
Zn1023 O1032   1.917   .     S
Zn1023 O1025   1.940   .     S
Zn1024 O1031   1.921   .     S
Zn1024 O1035   1.940   .     S
Zn1024 O1026   1.943   .     S
Zn1024 O1025   1.925   .     S
O1026  C1038   1.263   .     A
O1027  C1039   1.267   .     A
O1028  C1040   1.268   .     A
O1029  C1041   1.275   .     A
O1030  C1042   1.279   .     A
O1031  C1043   1.280   .     A
O1032  C1042   1.283   .     A
O1033  C1043   1.294   .     A
O1034  C1040   1.275   .     A
O1035  C1041   1.262   .     A
O1036  C1038   1.267   .     A
O1037  C1039   1.285   .     A
C1038  C1061   1.428   .     S
C1039  C1059   1.453   .     S
C1040  C1064   1.426   .     S
C1041  C1062   1.449   .     S
C1042  C1045   1.461   .     S
C1043  C1057   1.495   .     S
C1044  C1056   1.417   .     A
C1045  C1055   1.385   .     A
C1045  C1056   1.404   .     A
C1046  C1057   1.425   .     A
C1046  Br1079  1.940   .     S
C1046  C1047   1.406   .     A
C1047  C436    1.408   1_556 S
C1047  Br472   1.935   1_556 S
C1048  C1080   1.487   .     S
C1049  C1050   1.409   .     A
C1049  C436    1.424   1_556 S
C1049  C439    1.425   1_556 S
C1050  C1054   1.418   .     A
C1050  C1057   1.426   .     A
C1051  C1055   1.404   .     A
C1052  C1053   1.426   .     A
C1052  C439    1.425   1_556 S
C1052  C432    1.434   1_556 S
C1053  C1071   1.484   .     S
C1053  C1054   1.421   .     A
C1054  C1085   1.499   .     S
C1055  H1058   1.077   .     S
C1056  C1065   1.488   .     S
C1059  H1128   1.088   .     S
C1059  C1129   1.347   .     S
H1060  C1195   1.088   1_455 S
C1061  C1195   1.347   1_455 S
C1061  Br1205  1.933   1_455 S
C1062  H655    1.088   1_565 S
C1062  C656    1.343   1_565 S
C1065  O1067   1.398   .     S
C1065  O1066   1.223   .     D
O1067  H1068   1.014   .     S
Br1069 C1129   1.933   .     S
Br1070 C656    1.932   1_565 S
C1071  O1073   1.398   .     S
C1071  O1072   1.224   .     D
H1074  O665    1.013   1_565 S
C1075  O1076   1.224   .     D
C1075  O1077   1.399   .     S
C1075  C432    1.487   1_556 S
O1077  H1078   1.014   .     S
C1080  O1082   1.398   .     S
C1080  O1081   1.223   .     D
O1082  H1083   1.014   .     S
C1085  O1087   1.400   .     S
C1085  O1086   1.221   .     D
O1087  H1088   1.014   .     S
Zn1089 O1093   1.950   .     S
Zn1089 O1101   1.908   .     S
Zn1089 O1102   1.937   .     S
Zn1089 O1095   1.936   .     S
Zn1090 O1104   1.932   .     S
Zn1090 O1093   1.947   .     S
Zn1090 O1098   1.913   .     S
Zn1090 O1096   1.938   .     S
Zn1091 O1097   1.932   .     S
Zn1091 O1105   1.940   .     S
Zn1091 O1100   1.917   .     S
Zn1091 O1093   1.940   .     S
Zn1092 O1099   1.921   .     S
Zn1092 O1103   1.940   .     S
Zn1092 O1094   1.943   .     S
Zn1092 O1093   1.925   .     S
O1094  C1106   1.263   .     A
O1095  C1107   1.267   .     A
O1096  C1108   1.268   .     A
O1097  C1109   1.275   .     A
O1098  C1110   1.279   .     A
O1099  C1111   1.280   .     A
O1100  C1110   1.283   .     A
O1101  C1111   1.294   .     A
O1102  C1108   1.275   .     A
O1103  C1109   1.262   .     A
O1104  C1106   1.267   .     A
O1105  C1107   1.285   .     A
C1106  C1129   1.428   .     S
C1107  C1127   1.453   .     S
C1108  C1132   1.426   .     S
C1109  C1130   1.449   .     S
C1110  C1113   1.461   .     S
C1111  C1125   1.495   .     S
C1112  C1124   1.417   .     A
C1113  C1123   1.385   .     A
C1113  C1124   1.404   .     A
C1114  C1125   1.425   .     A
C1114  Br1147  1.940   .     S
C1114  C1115   1.406   .     A
C1115  C504    1.408   1_556 S
C1115  Br540   1.935   1_556 S
C1116  C1148   1.487   .     S
C1117  C1118   1.409   .     A
C1117  C504    1.424   1_556 S
C1117  C507    1.425   1_556 S
C1118  C1122   1.418   .     A
C1118  C1125   1.426   .     A
C1119  C1123   1.404   .     A
C1120  C1121   1.426   .     A
C1120  C507    1.425   1_556 S
C1120  C500    1.434   1_556 S
C1121  C1139   1.484   .     S
C1121  C1122   1.421   .     A
C1122  C1153   1.499   .     S
C1123  H1126   1.077   .     S
C1124  C1133   1.488   .     S
C1127  H1196   1.088   .     S
C1127  C1197   1.347   .     S
C1130  H723    1.088   1_565 S
C1130  C724    1.343   1_565 S
C1133  O1135   1.398   .     S
C1133  O1134   1.223   .     D
O1135  H1136   1.014   .     S
Br1137 C1197   1.933   .     S
Br1138 C724    1.932   1_565 S
C1139  O1141   1.398   .     S
C1139  O1140   1.224   .     D
H1142  O733    1.013   1_565 S
C1143  O1144   1.224   .     D
C1143  O1145   1.399   .     S
C1143  C500    1.487   1_556 S
O1145  H1146   1.014   .     S
C1148  O1150   1.398   .     S
C1148  O1149   1.223   .     D
O1150  H1151   1.014   .     S
C1153  O1155   1.400   .     S
C1153  O1154   1.221   .     D
O1155  H1156   1.014   .     S
Zn1157 O1161   1.950   .     S
Zn1157 O1169   1.908   .     S
Zn1157 O1170   1.937   .     S
Zn1157 O1163   1.936   .     S
Zn1158 O1172   1.932   .     S
Zn1158 O1161   1.947   .     S
Zn1158 O1166   1.913   .     S
Zn1158 O1164   1.938   .     S
Zn1159 O1165   1.932   .     S
Zn1159 O1173   1.940   .     S
Zn1159 O1168   1.917   .     S
Zn1159 O1161   1.940   .     S
Zn1160 O1167   1.921   .     S
Zn1160 O1171   1.940   .     S
Zn1160 O1162   1.943   .     S
Zn1160 O1161   1.925   .     S
O1162  C1174   1.263   .     A
O1163  C1175   1.267   .     A
O1164  C1176   1.268   .     A
O1165  C1177   1.275   .     A
O1166  C1178   1.279   .     A
O1167  C1179   1.280   .     A
O1168  C1178   1.283   .     A
O1169  C1179   1.294   .     A
O1170  C1176   1.275   .     A
O1171  C1177   1.262   .     A
O1172  C1174   1.267   .     A
O1173  C1175   1.285   .     A
C1174  C1197   1.428   .     S
C1175  C1195   1.453   .     S
C1176  C1200   1.426   .     S
C1177  C1198   1.449   .     S
C1178  C1181   1.461   .     S
C1179  C1193   1.495   .     S
C1180  C1192   1.417   .     A
C1181  C1191   1.385   .     A
C1181  C1192   1.404   .     A
C1182  C1193   1.425   .     A
C1182  Br1215  1.940   .     S
C1182  C1183   1.406   .     A
C1183  C572    1.408   1_556 S
C1183  Br608   1.935   1_556 S
C1184  C1216   1.487   .     S
C1185  C1186   1.409   .     A
C1185  C572    1.424   1_556 S
C1185  C575    1.425   1_556 S
C1186  C1190   1.418   .     A
C1186  C1193   1.426   .     A
C1187  C1191   1.404   .     A
C1188  C1189   1.426   .     A
C1188  C575    1.425   1_556 S
C1188  C568    1.434   1_556 S
C1189  C1207   1.484   .     S
C1189  C1190   1.421   .     A
C1190  C1221   1.499   .     S
C1191  H1194   1.077   .     S
C1192  C1201   1.488   .     S
C1195  H1060   1.088   1_655 S
C1195  C1061   1.347   1_655 S
C1198  H791    1.088   1_565 S
C1198  C792    1.343   1_565 S
C1201  O1203   1.398   .     S
C1201  O1202   1.223   .     D
O1203  H1204   1.014   .     S
Br1205 C1061   1.933   1_655 S
Br1206 C792    1.932   1_565 S
C1207  O1209   1.398   .     S
C1207  O1208   1.224   .     D
H1210  O801    1.013   1_565 S
C1211  O1212   1.224   .     D
C1211  O1213   1.399   .     S
C1211  C568    1.487   1_556 S
O1213  H1214   1.014   .     S
C1216  O1218   1.398   .     S
C1216  O1217   1.223   .     D
O1218  H1219   1.014   .     S
C1221  O1223   1.400   .     S
C1221  O1222   1.221   .     D
O1223  H1224   1.014   .     S
