data_str_m2_o10_o16_pcu_sym.62
_audit_creation_date              2020-01-03
_audit_creation_method            'Materials Studio'
_symmetry_space_group_name_H-M    'P1'
_symmetry_Int_Tables_number       1
_symmetry_cell_setting            triclinic
loop_
_symmetry_equiv_pos_as_xyz
  x,y,z
_cell_length_a                    22.3044
_cell_length_b                    26.2240
_cell_length_c                    26.6983
_cell_angle_alpha                 94.5068
_cell_angle_beta                  77.1222
_cell_angle_gamma                 103.2557
loop_
_atom_site_label
_atom_site_type_symbol
_atom_site_fract_x
_atom_site_fract_y
_atom_site_fract_z
_atom_site_U_iso_or_equiv
_atom_site_adp_type
_atom_site_occupancy
Br1    Br    0.00929   0.24691   0.11665   0.00000  Uiso   1.00
Br2    Br    0.25137   0.02359   0.29787   0.00000  Uiso   1.00
C3     C     0.18100   0.26657   0.25329   0.00000  Uiso   1.00
C4     C     0.11137   0.16631   0.40392   0.00000  Uiso   1.00
C5     C     0.18660   0.32194   0.26100   0.00000  Uiso   1.00
C6     C     0.13290   0.16594   0.34740   0.00000  Uiso   1.00
C7     C     0.14518   0.01124   0.24614   0.00000  Uiso   1.00
C8     C     0.15151   0.06675   0.24939   0.00000  Uiso   1.00
C9     C     0.20099   0.17143   0.15282   0.00000  Uiso   1.00
C10    C     0.28985   0.23549   0.02796   0.00000  Uiso   1.00
C11    C     0.22238   0.18231   0.09766   0.00000  Uiso   1.00
C12    C     0.04973   0.13967   0.42576   0.00000  Uiso   1.00
C13    C     0.03171   0.13234   0.47838   0.00000  Uiso   1.00
C14    C     0.13866   0.17233   0.48846   0.00000  Uiso   1.00
C15    C     0.07559   0.14752   0.00938   0.00000  Uiso   1.00
C16    C     0.15374   0.18805   0.43665   0.00000  Uiso   1.00
C17    C     0.18627   0.18477   0.01802   0.00000  Uiso   1.00
C18    C     0.24367   0.22027   0.49853   0.00000  Uiso   1.00
C19    C     0.25384   0.24158   0.45038   0.00000  Uiso   1.00
C20    C     0.20956   0.22625   0.41988   0.00000  Uiso   1.00
C21    C     0.17930   0.16270   0.06601   0.00000  Uiso   1.00
C22    C     0.27910   0.21801   0.07780   0.00000  Uiso   1.00
Cu23   Cu    0.10710   0.16105   0.24435   0.00000  Uiso   1.00
Cu24   Cu    0.22623   0.17228   0.25565   0.00000  Uiso   1.00
F25    F     0.09796   0.31641   0.22391   0.00000  Uiso   1.00
F26    F     0.00616   0.20930   0.30169   0.00000  Uiso   1.00
F27    F     0.32721   0.12410   0.19826   0.00000  Uiso   1.00
F28    F     0.13274   0.12022   0.08187   0.00000  Uiso   1.00
F29    F     0.00690   0.11987   0.39630   0.00000  Uiso   1.00
F30    F     0.21900   0.25311   0.37636   0.00000  Uiso   1.00
H31    H     0.29625   0.27074   0.43632   0.00000  Uiso   1.00
H32    H     0.00022   0.26283   0.01291   0.00000  Uiso   1.00
H33    H     0.05805   0.14185   0.05001   0.00000  Uiso   1.00
H34    H     0.31700   0.11339   0.49518   0.00000  Uiso   1.00
N35    N     0.31574   0.18074   0.26416   0.00000  Uiso   1.00
N36    N     0.01759   0.15259   0.23584   0.00000  Uiso   1.00
O37    O     0.12797   0.23807   0.24633   0.00000  Uiso   1.00
O38    O     0.22858   0.24755   0.25586   0.00000  Uiso   1.00
O39    O     0.09181   0.15960   0.31839   0.00000  Uiso   1.00
O40    O     0.19242   0.16908   0.32793   0.00000  Uiso   1.00
O41    O     0.10476   0.08578   0.24414   0.00000  Uiso   1.00
O42    O     0.20536   0.09526   0.25367   0.00000  Uiso   1.00
O43    O     0.14092   0.16425   0.17207   0.00000  Uiso   1.00
O44    O     0.24152   0.17373   0.18161   0.00000  Uiso   1.00
Br45   Br    0.34262   0.24691   0.11665   0.00000  Uiso   1.00
Br46   Br    0.58470   0.02359   0.29787   0.00000  Uiso   1.00
C47    C     0.51434   0.26657   0.25329   0.00000  Uiso   1.00
C48    C     0.44470   0.16631   0.40392   0.00000  Uiso   1.00
C49    C     0.51993   0.32194   0.26100   0.00000  Uiso   1.00
C50    C     0.46623   0.16594   0.34740   0.00000  Uiso   1.00
C51    C     0.47851   0.01124   0.24614   0.00000  Uiso   1.00
C52    C     0.48485   0.06675   0.24939   0.00000  Uiso   1.00
C53    C     0.53433   0.17143   0.15282   0.00000  Uiso   1.00
C54    C     0.62318   0.23549   0.02796   0.00000  Uiso   1.00
C55    C     0.55571   0.18231   0.09766   0.00000  Uiso   1.00
C56    C     0.38306   0.13967   0.42576   0.00000  Uiso   1.00
C57    C     0.36504   0.13234   0.47838   0.00000  Uiso   1.00
C58    C     0.47199   0.17233   0.48846   0.00000  Uiso   1.00
C59    C     0.40893   0.14752   0.00938   0.00000  Uiso   1.00
C60    C     0.48707   0.18805   0.43665   0.00000  Uiso   1.00
C61    C     0.51960   0.18477   0.01802   0.00000  Uiso   1.00
C62    C     0.57700   0.22027   0.49853   0.00000  Uiso   1.00
C63    C     0.58718   0.24158   0.45038   0.00000  Uiso   1.00
C64    C     0.54289   0.22625   0.41988   0.00000  Uiso   1.00
C65    C     0.51263   0.16270   0.06601   0.00000  Uiso   1.00
C66    C     0.61243   0.21801   0.07780   0.00000  Uiso   1.00
Cu67   Cu    0.44043   0.16105   0.24435   0.00000  Uiso   1.00
Cu68   Cu    0.55957   0.17228   0.25565   0.00000  Uiso   1.00
F69    F     0.43129   0.31641   0.22391   0.00000  Uiso   1.00
F70    F     0.33949   0.20930   0.30169   0.00000  Uiso   1.00
F71    F     0.66054   0.12410   0.19826   0.00000  Uiso   1.00
F72    F     0.46607   0.12022   0.08187   0.00000  Uiso   1.00
F73    F     0.34024   0.11987   0.39630   0.00000  Uiso   1.00
F74    F     0.55234   0.25311   0.37636   0.00000  Uiso   1.00
H75    H     0.62959   0.27074   0.43632   0.00000  Uiso   1.00
H76    H     0.33355   0.26283   0.01291   0.00000  Uiso   1.00
H77    H     0.39138   0.14185   0.05001   0.00000  Uiso   1.00
H78    H     0.65033   0.11339   0.49518   0.00000  Uiso   1.00
N79    N     0.64908   0.18074   0.26416   0.00000  Uiso   1.00
N80    N     0.35092   0.15259   0.23584   0.00000  Uiso   1.00
O81    O     0.46131   0.23807   0.24633   0.00000  Uiso   1.00
O82    O     0.56191   0.24755   0.25586   0.00000  Uiso   1.00
O83    O     0.42515   0.15960   0.31839   0.00000  Uiso   1.00
O84    O     0.52575   0.16908   0.32793   0.00000  Uiso   1.00
O85    O     0.43809   0.08578   0.24414   0.00000  Uiso   1.00
O86    O     0.53869   0.09526   0.25367   0.00000  Uiso   1.00
O87    O     0.47425   0.16425   0.17207   0.00000  Uiso   1.00
O88    O     0.57485   0.17373   0.18161   0.00000  Uiso   1.00
Br89   Br    0.67595   0.24691   0.11665   0.00000  Uiso   1.00
Br90   Br    0.91803   0.02359   0.29787   0.00000  Uiso   1.00
C91    C     0.84767   0.26657   0.25329   0.00000  Uiso   1.00
C92    C     0.77803   0.16631   0.40392   0.00000  Uiso   1.00
C93    C     0.85327   0.32194   0.26100   0.00000  Uiso   1.00
C94    C     0.79957   0.16594   0.34740   0.00000  Uiso   1.00
C95    C     0.81185   0.01124   0.24614   0.00000  Uiso   1.00
C96    C     0.81818   0.06675   0.24939   0.00000  Uiso   1.00
C97    C     0.86766   0.17143   0.15282   0.00000  Uiso   1.00
C98    C     0.95652   0.23549   0.02796   0.00000  Uiso   1.00
C99    C     0.88905   0.18231   0.09766   0.00000  Uiso   1.00
C100   C     0.71640   0.13967   0.42576   0.00000  Uiso   1.00
C101   C     0.69837   0.13234   0.47838   0.00000  Uiso   1.00
C102   C     0.80533   0.17233   0.48846   0.00000  Uiso   1.00
C103   C     0.74226   0.14752   0.00938   0.00000  Uiso   1.00
C104   C     0.82040   0.18805   0.43665   0.00000  Uiso   1.00
C105   C     0.85294   0.18477   0.01802   0.00000  Uiso   1.00
C106   C     0.91033   0.22027   0.49853   0.00000  Uiso   1.00
C107   C     0.92051   0.24158   0.45038   0.00000  Uiso   1.00
C108   C     0.87622   0.22625   0.41988   0.00000  Uiso   1.00
C109   C     0.84596   0.16270   0.06601   0.00000  Uiso   1.00
C110   C     0.94577   0.21801   0.07780   0.00000  Uiso   1.00
Cu111  Cu    0.77377   0.16105   0.24435   0.00000  Uiso   1.00
Cu112  Cu    0.89290   0.17228   0.25565   0.00000  Uiso   1.00
F113   F     0.76462   0.31641   0.22391   0.00000  Uiso   1.00
F114   F     0.67282   0.20930   0.30169   0.00000  Uiso   1.00
F115   F     0.99387   0.12410   0.19826   0.00000  Uiso   1.00
F116   F     0.79940   0.12022   0.08187   0.00000  Uiso   1.00
F117   F     0.67357   0.11987   0.39630   0.00000  Uiso   1.00
F118   F     0.88567   0.25311   0.37636   0.00000  Uiso   1.00
H119   H     0.96292   0.27074   0.43632   0.00000  Uiso   1.00
H120   H     0.66689   0.26283   0.01291   0.00000  Uiso   1.00
H121   H     0.72472   0.14185   0.05001   0.00000  Uiso   1.00
H122   H     0.98366   0.11339   0.49518   0.00000  Uiso   1.00
N123   N     0.98241   0.18074   0.26416   0.00000  Uiso   1.00
N124   N     0.68426   0.15259   0.23584   0.00000  Uiso   1.00
O125   O     0.79464   0.23807   0.24633   0.00000  Uiso   1.00
O126   O     0.89524   0.24755   0.25586   0.00000  Uiso   1.00
O127   O     0.75848   0.15960   0.31839   0.00000  Uiso   1.00
O128   O     0.85908   0.16908   0.32793   0.00000  Uiso   1.00
O129   O     0.77142   0.08578   0.24414   0.00000  Uiso   1.00
O130   O     0.87203   0.09526   0.25367   0.00000  Uiso   1.00
O131   O     0.80758   0.16425   0.17207   0.00000  Uiso   1.00
O132   O     0.90819   0.17373   0.18161   0.00000  Uiso   1.00
Br133  Br    0.00929   0.58024   0.11665   0.00000  Uiso   1.00
Br134  Br    0.25137   0.35693   0.29787   0.00000  Uiso   1.00
C135   C     0.18100   0.59991   0.25329   0.00000  Uiso   1.00
C136   C     0.11137   0.49965   0.40392   0.00000  Uiso   1.00
C137   C     0.18660   0.65527   0.26100   0.00000  Uiso   1.00
C138   C     0.13290   0.49928   0.34740   0.00000  Uiso   1.00
C139   C     0.14518   0.34457   0.24614   0.00000  Uiso   1.00
C140   C     0.15151   0.40008   0.24939   0.00000  Uiso   1.00
C141   C     0.20099   0.50476   0.15282   0.00000  Uiso   1.00
C142   C     0.28985   0.56883   0.02796   0.00000  Uiso   1.00
C143   C     0.22238   0.51564   0.09766   0.00000  Uiso   1.00
C144   C     0.04973   0.47300   0.42576   0.00000  Uiso   1.00
C145   C     0.03171   0.46567   0.47838   0.00000  Uiso   1.00
C146   C     0.13866   0.50566   0.48846   0.00000  Uiso   1.00
C147   C     0.07559   0.48086   0.00938   0.00000  Uiso   1.00
C148   C     0.15374   0.52138   0.43665   0.00000  Uiso   1.00
C149   C     0.18627   0.51811   0.01802   0.00000  Uiso   1.00
C150   C     0.24367   0.55360   0.49853   0.00000  Uiso   1.00
C151   C     0.25384   0.57491   0.45038   0.00000  Uiso   1.00
C152   C     0.20956   0.55959   0.41988   0.00000  Uiso   1.00
C153   C     0.17930   0.49604   0.06601   0.00000  Uiso   1.00
C154   C     0.27910   0.55134   0.07780   0.00000  Uiso   1.00
Cu155  Cu    0.10710   0.49439   0.24435   0.00000  Uiso   1.00
Cu156  Cu    0.22623   0.50561   0.25565   0.00000  Uiso   1.00
F157   F     0.09796   0.64975   0.22391   0.00000  Uiso   1.00
F158   F     0.00616   0.54263   0.30169   0.00000  Uiso   1.00
F159   F     0.32721   0.45744   0.19826   0.00000  Uiso   1.00
F160   F     0.13274   0.45356   0.08187   0.00000  Uiso   1.00
F161   F     0.00690   0.45320   0.39630   0.00000  Uiso   1.00
F162   F     0.21900   0.58644   0.37636   0.00000  Uiso   1.00
H163   H     0.29625   0.60408   0.43632   0.00000  Uiso   1.00
H164   H     0.00022   0.59616   0.01291   0.00000  Uiso   1.00
H165   H     0.05805   0.47519   0.05001   0.00000  Uiso   1.00
H166   H     0.31700   0.44673   0.49518   0.00000  Uiso   1.00
N167   N     0.31574   0.51407   0.26416   0.00000  Uiso   1.00
N168   N     0.01759   0.48593   0.23584   0.00000  Uiso   1.00
O169   O     0.12797   0.57141   0.24633   0.00000  Uiso   1.00
O170   O     0.22858   0.58089   0.25586   0.00000  Uiso   1.00
O171   O     0.09181   0.49293   0.31839   0.00000  Uiso   1.00
O172   O     0.19242   0.50241   0.32793   0.00000  Uiso   1.00
O173   O     0.10476   0.41911   0.24414   0.00000  Uiso   1.00
O174   O     0.20536   0.42859   0.25367   0.00000  Uiso   1.00
O175   O     0.14092   0.49759   0.17207   0.00000  Uiso   1.00
O176   O     0.24152   0.50707   0.18161   0.00000  Uiso   1.00
Br177  Br    0.34262   0.58024   0.11665   0.00000  Uiso   1.00
Br178  Br    0.58470   0.35693   0.29787   0.00000  Uiso   1.00
C179   C     0.51434   0.59991   0.25329   0.00000  Uiso   1.00
C180   C     0.44470   0.49965   0.40392   0.00000  Uiso   1.00
C181   C     0.51993   0.65527   0.26100   0.00000  Uiso   1.00
C182   C     0.46623   0.49928   0.34740   0.00000  Uiso   1.00
C183   C     0.47851   0.34457   0.24614   0.00000  Uiso   1.00
C184   C     0.48485   0.40008   0.24939   0.00000  Uiso   1.00
C185   C     0.53433   0.50476   0.15282   0.00000  Uiso   1.00
C186   C     0.62318   0.56883   0.02796   0.00000  Uiso   1.00
C187   C     0.55571   0.51564   0.09766   0.00000  Uiso   1.00
C188   C     0.38306   0.47300   0.42576   0.00000  Uiso   1.00
C189   C     0.36504   0.46567   0.47838   0.00000  Uiso   1.00
C190   C     0.47199   0.50566   0.48846   0.00000  Uiso   1.00
C191   C     0.40893   0.48086   0.00938   0.00000  Uiso   1.00
C192   C     0.48707   0.52138   0.43665   0.00000  Uiso   1.00
C193   C     0.51960   0.51811   0.01802   0.00000  Uiso   1.00
C194   C     0.57700   0.55360   0.49853   0.00000  Uiso   1.00
C195   C     0.58718   0.57491   0.45038   0.00000  Uiso   1.00
C196   C     0.54289   0.55959   0.41988   0.00000  Uiso   1.00
C197   C     0.51263   0.49604   0.06601   0.00000  Uiso   1.00
C198   C     0.61243   0.55134   0.07780   0.00000  Uiso   1.00
Cu199  Cu    0.44043   0.49439   0.24435   0.00000  Uiso   1.00
Cu200  Cu    0.55957   0.50561   0.25565   0.00000  Uiso   1.00
F201   F     0.43129   0.64975   0.22391   0.00000  Uiso   1.00
F202   F     0.33949   0.54263   0.30169   0.00000  Uiso   1.00
F203   F     0.66054   0.45744   0.19826   0.00000  Uiso   1.00
F204   F     0.46607   0.45356   0.08187   0.00000  Uiso   1.00
F205   F     0.34024   0.45320   0.39630   0.00000  Uiso   1.00
F206   F     0.55234   0.58644   0.37636   0.00000  Uiso   1.00
H207   H     0.62959   0.60408   0.43632   0.00000  Uiso   1.00
H208   H     0.33355   0.59616   0.01291   0.00000  Uiso   1.00
H209   H     0.39138   0.47519   0.05001   0.00000  Uiso   1.00
H210   H     0.65033   0.44673   0.49518   0.00000  Uiso   1.00
N211   N     0.64908   0.51407   0.26416   0.00000  Uiso   1.00
N212   N     0.35092   0.48593   0.23584   0.00000  Uiso   1.00
O213   O     0.46131   0.57141   0.24633   0.00000  Uiso   1.00
O214   O     0.56191   0.58089   0.25586   0.00000  Uiso   1.00
O215   O     0.42515   0.49293   0.31839   0.00000  Uiso   1.00
O216   O     0.52575   0.50241   0.32793   0.00000  Uiso   1.00
O217   O     0.43809   0.41911   0.24414   0.00000  Uiso   1.00
O218   O     0.53869   0.42859   0.25367   0.00000  Uiso   1.00
O219   O     0.47425   0.49759   0.17207   0.00000  Uiso   1.00
O220   O     0.57485   0.50707   0.18161   0.00000  Uiso   1.00
Br221  Br    0.67595   0.58024   0.11665   0.00000  Uiso   1.00
Br222  Br    0.91803   0.35693   0.29787   0.00000  Uiso   1.00
C223   C     0.84767   0.59991   0.25329   0.00000  Uiso   1.00
C224   C     0.77803   0.49965   0.40392   0.00000  Uiso   1.00
C225   C     0.85327   0.65527   0.26100   0.00000  Uiso   1.00
C226   C     0.79957   0.49928   0.34740   0.00000  Uiso   1.00
C227   C     0.81185   0.34457   0.24614   0.00000  Uiso   1.00
C228   C     0.81818   0.40008   0.24939   0.00000  Uiso   1.00
C229   C     0.86766   0.50476   0.15282   0.00000  Uiso   1.00
C230   C     0.95652   0.56883   0.02796   0.00000  Uiso   1.00
C231   C     0.88905   0.51564   0.09766   0.00000  Uiso   1.00
C232   C     0.71640   0.47300   0.42576   0.00000  Uiso   1.00
C233   C     0.69837   0.46567   0.47838   0.00000  Uiso   1.00
C234   C     0.80533   0.50566   0.48846   0.00000  Uiso   1.00
C235   C     0.74226   0.48086   0.00938   0.00000  Uiso   1.00
C236   C     0.82040   0.52138   0.43665   0.00000  Uiso   1.00
C237   C     0.85294   0.51811   0.01802   0.00000  Uiso   1.00
C238   C     0.91033   0.55360   0.49853   0.00000  Uiso   1.00
C239   C     0.92051   0.57491   0.45038   0.00000  Uiso   1.00
C240   C     0.87622   0.55959   0.41988   0.00000  Uiso   1.00
C241   C     0.84596   0.49604   0.06601   0.00000  Uiso   1.00
C242   C     0.94577   0.55134   0.07780   0.00000  Uiso   1.00
Cu243  Cu    0.77377   0.49439   0.24435   0.00000  Uiso   1.00
Cu244  Cu    0.89290   0.50561   0.25565   0.00000  Uiso   1.00
F245   F     0.76462   0.64975   0.22391   0.00000  Uiso   1.00
F246   F     0.67282   0.54263   0.30169   0.00000  Uiso   1.00
F247   F     0.99387   0.45744   0.19826   0.00000  Uiso   1.00
F248   F     0.79940   0.45356   0.08187   0.00000  Uiso   1.00
F249   F     0.67357   0.45320   0.39630   0.00000  Uiso   1.00
F250   F     0.88567   0.58644   0.37636   0.00000  Uiso   1.00
H251   H     0.96292   0.60408   0.43632   0.00000  Uiso   1.00
H252   H     0.66689   0.59616   0.01291   0.00000  Uiso   1.00
H253   H     0.72472   0.47519   0.05001   0.00000  Uiso   1.00
H254   H     0.98366   0.44673   0.49518   0.00000  Uiso   1.00
N255   N     0.98241   0.51407   0.26416   0.00000  Uiso   1.00
N256   N     0.68426   0.48593   0.23584   0.00000  Uiso   1.00
O257   O     0.79464   0.57141   0.24633   0.00000  Uiso   1.00
O258   O     0.89524   0.58089   0.25586   0.00000  Uiso   1.00
O259   O     0.75848   0.49293   0.31839   0.00000  Uiso   1.00
O260   O     0.85908   0.50241   0.32793   0.00000  Uiso   1.00
O261   O     0.77142   0.41911   0.24414   0.00000  Uiso   1.00
O262   O     0.87203   0.42859   0.25367   0.00000  Uiso   1.00
O263   O     0.80758   0.49759   0.17207   0.00000  Uiso   1.00
O264   O     0.90819   0.50707   0.18161   0.00000  Uiso   1.00
Br265  Br    0.00929   0.91357   0.11665   0.00000  Uiso   1.00
Br266  Br    0.25137   0.69026   0.29787   0.00000  Uiso   1.00
C267   C     0.18100   0.93324   0.25329   0.00000  Uiso   1.00
C268   C     0.11137   0.83298   0.40392   0.00000  Uiso   1.00
C269   C     0.18660   0.98861   0.26100   0.00000  Uiso   1.00
C270   C     0.13290   0.83261   0.34740   0.00000  Uiso   1.00
C271   C     0.14518   0.67790   0.24614   0.00000  Uiso   1.00
C272   C     0.15151   0.73342   0.24939   0.00000  Uiso   1.00
C273   C     0.20099   0.83810   0.15282   0.00000  Uiso   1.00
C274   C     0.28985   0.90216   0.02796   0.00000  Uiso   1.00
C275   C     0.22238   0.84897   0.09766   0.00000  Uiso   1.00
C276   C     0.04973   0.80634   0.42576   0.00000  Uiso   1.00
C277   C     0.03171   0.79900   0.47838   0.00000  Uiso   1.00
C278   C     0.13866   0.83899   0.48846   0.00000  Uiso   1.00
C279   C     0.07559   0.81419   0.00938   0.00000  Uiso   1.00
C280   C     0.15374   0.85471   0.43665   0.00000  Uiso   1.00
C281   C     0.18627   0.85144   0.01802   0.00000  Uiso   1.00
C282   C     0.24367   0.88693   0.49853   0.00000  Uiso   1.00
C283   C     0.25384   0.90825   0.45038   0.00000  Uiso   1.00
C284   C     0.20956   0.89292   0.41988   0.00000  Uiso   1.00
C285   C     0.17930   0.82937   0.06601   0.00000  Uiso   1.00
C286   C     0.27910   0.88467   0.07780   0.00000  Uiso   1.00
Cu287  Cu    0.10710   0.82772   0.24435   0.00000  Uiso   1.00
Cu288  Cu    0.22623   0.83895   0.25565   0.00000  Uiso   1.00
F289   F     0.09796   0.98308   0.22391   0.00000  Uiso   1.00
F290   F     0.00616   0.87597   0.30169   0.00000  Uiso   1.00
F291   F     0.32721   0.79077   0.19826   0.00000  Uiso   1.00
F292   F     0.13274   0.78689   0.08187   0.00000  Uiso   1.00
F293   F     0.00690   0.78653   0.39630   0.00000  Uiso   1.00
F294   F     0.21900   0.91978   0.37636   0.00000  Uiso   1.00
H295   H     0.29625   0.93741   0.43632   0.00000  Uiso   1.00
H296   H     0.00022   0.92949   0.01291   0.00000  Uiso   1.00
H297   H     0.05805   0.80852   0.05001   0.00000  Uiso   1.00
H298   H     0.31700   0.78006   0.49518   0.00000  Uiso   1.00
N299   N     0.31574   0.84741   0.26416   0.00000  Uiso   1.00
N300   N     0.01759   0.81926   0.23584   0.00000  Uiso   1.00
O301   O     0.12797   0.90474   0.24633   0.00000  Uiso   1.00
O302   O     0.22858   0.91422   0.25586   0.00000  Uiso   1.00
O303   O     0.09181   0.82627   0.31839   0.00000  Uiso   1.00
O304   O     0.19242   0.83575   0.32793   0.00000  Uiso   1.00
O305   O     0.10476   0.75245   0.24414   0.00000  Uiso   1.00
O306   O     0.20536   0.76193   0.25367   0.00000  Uiso   1.00
O307   O     0.14092   0.83092   0.17207   0.00000  Uiso   1.00
O308   O     0.24152   0.84040   0.18161   0.00000  Uiso   1.00
Br309  Br    0.34262   0.91357   0.11665   0.00000  Uiso   1.00
Br310  Br    0.58470   0.69026   0.29787   0.00000  Uiso   1.00
C311   C     0.51434   0.93324   0.25329   0.00000  Uiso   1.00
C312   C     0.44470   0.83298   0.40392   0.00000  Uiso   1.00
C313   C     0.51993   0.98861   0.26100   0.00000  Uiso   1.00
C314   C     0.46623   0.83261   0.34740   0.00000  Uiso   1.00
C315   C     0.47851   0.67790   0.24614   0.00000  Uiso   1.00
C316   C     0.48485   0.73342   0.24939   0.00000  Uiso   1.00
C317   C     0.53433   0.83810   0.15282   0.00000  Uiso   1.00
C318   C     0.62318   0.90216   0.02796   0.00000  Uiso   1.00
C319   C     0.55571   0.84897   0.09766   0.00000  Uiso   1.00
C320   C     0.38306   0.80634   0.42576   0.00000  Uiso   1.00
C321   C     0.36504   0.79900   0.47838   0.00000  Uiso   1.00
C322   C     0.47199   0.83899   0.48846   0.00000  Uiso   1.00
C323   C     0.40893   0.81419   0.00938   0.00000  Uiso   1.00
C324   C     0.48707   0.85471   0.43665   0.00000  Uiso   1.00
C325   C     0.51960   0.85144   0.01802   0.00000  Uiso   1.00
C326   C     0.57700   0.88693   0.49853   0.00000  Uiso   1.00
C327   C     0.58718   0.90825   0.45038   0.00000  Uiso   1.00
C328   C     0.54289   0.89292   0.41988   0.00000  Uiso   1.00
C329   C     0.51263   0.82937   0.06601   0.00000  Uiso   1.00
C330   C     0.61243   0.88467   0.07780   0.00000  Uiso   1.00
Cu331  Cu    0.44043   0.82772   0.24435   0.00000  Uiso   1.00
Cu332  Cu    0.55957   0.83895   0.25565   0.00000  Uiso   1.00
F333   F     0.43129   0.98308   0.22391   0.00000  Uiso   1.00
F334   F     0.33949   0.87597   0.30169   0.00000  Uiso   1.00
F335   F     0.66054   0.79077   0.19826   0.00000  Uiso   1.00
F336   F     0.46607   0.78689   0.08187   0.00000  Uiso   1.00
F337   F     0.34024   0.78653   0.39630   0.00000  Uiso   1.00
F338   F     0.55234   0.91978   0.37636   0.00000  Uiso   1.00
H339   H     0.62959   0.93741   0.43632   0.00000  Uiso   1.00
H340   H     0.33355   0.92949   0.01291   0.00000  Uiso   1.00
H341   H     0.39138   0.80852   0.05001   0.00000  Uiso   1.00
H342   H     0.65033   0.78006   0.49518   0.00000  Uiso   1.00
N343   N     0.64908   0.84741   0.26416   0.00000  Uiso   1.00
N344   N     0.35092   0.81926   0.23584   0.00000  Uiso   1.00
O345   O     0.46131   0.90474   0.24633   0.00000  Uiso   1.00
O346   O     0.56191   0.91422   0.25586   0.00000  Uiso   1.00
O347   O     0.42515   0.82627   0.31839   0.00000  Uiso   1.00
O348   O     0.52575   0.83575   0.32793   0.00000  Uiso   1.00
O349   O     0.43809   0.75245   0.24414   0.00000  Uiso   1.00
O350   O     0.53869   0.76193   0.25367   0.00000  Uiso   1.00
O351   O     0.47425   0.83092   0.17207   0.00000  Uiso   1.00
O352   O     0.57485   0.84040   0.18161   0.00000  Uiso   1.00
Br353  Br    0.67595   0.91357   0.11665   0.00000  Uiso   1.00
Br354  Br    0.91803   0.69026   0.29787   0.00000  Uiso   1.00
C355   C     0.84767   0.93324   0.25329   0.00000  Uiso   1.00
C356   C     0.77803   0.83298   0.40392   0.00000  Uiso   1.00
C357   C     0.85327   0.98861   0.26100   0.00000  Uiso   1.00
C358   C     0.79957   0.83261   0.34740   0.00000  Uiso   1.00
C359   C     0.81185   0.67790   0.24614   0.00000  Uiso   1.00
C360   C     0.81818   0.73342   0.24939   0.00000  Uiso   1.00
C361   C     0.86766   0.83810   0.15282   0.00000  Uiso   1.00
C362   C     0.95652   0.90216   0.02796   0.00000  Uiso   1.00
C363   C     0.88905   0.84897   0.09766   0.00000  Uiso   1.00
C364   C     0.71640   0.80634   0.42576   0.00000  Uiso   1.00
C365   C     0.69837   0.79900   0.47838   0.00000  Uiso   1.00
C366   C     0.80533   0.83899   0.48846   0.00000  Uiso   1.00
C367   C     0.74226   0.81419   0.00938   0.00000  Uiso   1.00
C368   C     0.82040   0.85471   0.43665   0.00000  Uiso   1.00
C369   C     0.85294   0.85144   0.01802   0.00000  Uiso   1.00
C370   C     0.91033   0.88693   0.49853   0.00000  Uiso   1.00
C371   C     0.92051   0.90825   0.45038   0.00000  Uiso   1.00
C372   C     0.87622   0.89292   0.41988   0.00000  Uiso   1.00
C373   C     0.84596   0.82937   0.06601   0.00000  Uiso   1.00
C374   C     0.94577   0.88467   0.07780   0.00000  Uiso   1.00
Cu375  Cu    0.77377   0.82772   0.24435   0.00000  Uiso   1.00
Cu376  Cu    0.89290   0.83895   0.25565   0.00000  Uiso   1.00
F377   F     0.76462   0.98308   0.22391   0.00000  Uiso   1.00
F378   F     0.67282   0.87597   0.30169   0.00000  Uiso   1.00
F379   F     0.99387   0.79077   0.19826   0.00000  Uiso   1.00
F380   F     0.79940   0.78689   0.08187   0.00000  Uiso   1.00
F381   F     0.67357   0.78653   0.39630   0.00000  Uiso   1.00
F382   F     0.88567   0.91978   0.37636   0.00000  Uiso   1.00
H383   H     0.96292   0.93741   0.43632   0.00000  Uiso   1.00
H384   H     0.66689   0.92949   0.01291   0.00000  Uiso   1.00
H385   H     0.72472   0.80852   0.05001   0.00000  Uiso   1.00
H386   H     0.98366   0.78006   0.49518   0.00000  Uiso   1.00
N387   N     0.98241   0.84741   0.26416   0.00000  Uiso   1.00
N388   N     0.68426   0.81926   0.23584   0.00000  Uiso   1.00
O389   O     0.79464   0.90474   0.24633   0.00000  Uiso   1.00
O390   O     0.89524   0.91422   0.25586   0.00000  Uiso   1.00
O391   O     0.75848   0.82627   0.31839   0.00000  Uiso   1.00
O392   O     0.85908   0.83575   0.32793   0.00000  Uiso   1.00
O393   O     0.77142   0.75245   0.24414   0.00000  Uiso   1.00
O394   O     0.87203   0.76193   0.25367   0.00000  Uiso   1.00
O395   O     0.80758   0.83092   0.17207   0.00000  Uiso   1.00
O396   O     0.90819   0.84040   0.18161   0.00000  Uiso   1.00
Br397  Br    0.00929   0.24691   0.61665   0.00000  Uiso   1.00
Br398  Br    0.25137   0.02359   0.79787   0.00000  Uiso   1.00
C399   C     0.18100   0.26657   0.75329   0.00000  Uiso   1.00
C400   C     0.11137   0.16631   0.90392   0.00000  Uiso   1.00
C401   C     0.18660   0.32194   0.76100   0.00000  Uiso   1.00
C402   C     0.13290   0.16594   0.84740   0.00000  Uiso   1.00
C403   C     0.14518   0.01124   0.74614   0.00000  Uiso   1.00
C404   C     0.15151   0.06675   0.74939   0.00000  Uiso   1.00
C405   C     0.20099   0.17143   0.65282   0.00000  Uiso   1.00
C406   C     0.28985   0.23549   0.52796   0.00000  Uiso   1.00
C407   C     0.22238   0.18231   0.59766   0.00000  Uiso   1.00
C408   C     0.04973   0.13967   0.92576   0.00000  Uiso   1.00
C409   C     0.03171   0.13234   0.97838   0.00000  Uiso   1.00
C410   C     0.13866   0.17233   0.98846   0.00000  Uiso   1.00
C411   C     0.07559   0.14752   0.50938   0.00000  Uiso   1.00
C412   C     0.15374   0.18805   0.93665   0.00000  Uiso   1.00
C413   C     0.18627   0.18477   0.51802   0.00000  Uiso   1.00
C414   C     0.24367   0.22027   0.99853   0.00000  Uiso   1.00
C415   C     0.25384   0.24158   0.95038   0.00000  Uiso   1.00
C416   C     0.20956   0.22625   0.91988   0.00000  Uiso   1.00
C417   C     0.17930   0.16270   0.56601   0.00000  Uiso   1.00
C418   C     0.27910   0.21801   0.57780   0.00000  Uiso   1.00
Cu419  Cu    0.10710   0.16105   0.74435   0.00000  Uiso   1.00
Cu420  Cu    0.22623   0.17228   0.75565   0.00000  Uiso   1.00
F421   F     0.09796   0.31641   0.72391   0.00000  Uiso   1.00
F422   F     0.00616   0.20930   0.80169   0.00000  Uiso   1.00
F423   F     0.32721   0.12410   0.69826   0.00000  Uiso   1.00
F424   F     0.13274   0.12022   0.58187   0.00000  Uiso   1.00
F425   F     0.00690   0.11987   0.89630   0.00000  Uiso   1.00
F426   F     0.21900   0.25311   0.87636   0.00000  Uiso   1.00
H427   H     0.29625   0.27074   0.93632   0.00000  Uiso   1.00
H428   H     0.00022   0.26283   0.51291   0.00000  Uiso   1.00
H429   H     0.05805   0.14185   0.55001   0.00000  Uiso   1.00
H430   H     0.31700   0.11339   0.99518   0.00000  Uiso   1.00
N431   N     0.31574   0.18074   0.76416   0.00000  Uiso   1.00
N432   N     0.01759   0.15259   0.73584   0.00000  Uiso   1.00
O433   O     0.12797   0.23807   0.74633   0.00000  Uiso   1.00
O434   O     0.22858   0.24755   0.75586   0.00000  Uiso   1.00
O435   O     0.09181   0.15960   0.81839   0.00000  Uiso   1.00
O436   O     0.19242   0.16908   0.82793   0.00000  Uiso   1.00
O437   O     0.10476   0.08578   0.74414   0.00000  Uiso   1.00
O438   O     0.20536   0.09526   0.75367   0.00000  Uiso   1.00
O439   O     0.14092   0.16425   0.67207   0.00000  Uiso   1.00
O440   O     0.24152   0.17373   0.68161   0.00000  Uiso   1.00
Br441  Br    0.34262   0.24691   0.61665   0.00000  Uiso   1.00
Br442  Br    0.58470   0.02359   0.79787   0.00000  Uiso   1.00
C443   C     0.51434   0.26657   0.75329   0.00000  Uiso   1.00
C444   C     0.44470   0.16631   0.90392   0.00000  Uiso   1.00
C445   C     0.51993   0.32194   0.76100   0.00000  Uiso   1.00
C446   C     0.46623   0.16594   0.84740   0.00000  Uiso   1.00
C447   C     0.47851   0.01124   0.74614   0.00000  Uiso   1.00
C448   C     0.48485   0.06675   0.74939   0.00000  Uiso   1.00
C449   C     0.53433   0.17143   0.65282   0.00000  Uiso   1.00
C450   C     0.62318   0.23549   0.52796   0.00000  Uiso   1.00
C451   C     0.55571   0.18231   0.59766   0.00000  Uiso   1.00
C452   C     0.38306   0.13967   0.92576   0.00000  Uiso   1.00
C453   C     0.36504   0.13234   0.97838   0.00000  Uiso   1.00
C454   C     0.47199   0.17233   0.98846   0.00000  Uiso   1.00
C455   C     0.40893   0.14752   0.50938   0.00000  Uiso   1.00
C456   C     0.48707   0.18805   0.93665   0.00000  Uiso   1.00
C457   C     0.51960   0.18477   0.51802   0.00000  Uiso   1.00
C458   C     0.57700   0.22027   0.99853   0.00000  Uiso   1.00
C459   C     0.58718   0.24158   0.95038   0.00000  Uiso   1.00
C460   C     0.54289   0.22625   0.91988   0.00000  Uiso   1.00
C461   C     0.51263   0.16270   0.56601   0.00000  Uiso   1.00
C462   C     0.61243   0.21801   0.57780   0.00000  Uiso   1.00
Cu463  Cu    0.44043   0.16105   0.74435   0.00000  Uiso   1.00
Cu464  Cu    0.55957   0.17228   0.75565   0.00000  Uiso   1.00
F465   F     0.43129   0.31641   0.72391   0.00000  Uiso   1.00
F466   F     0.33949   0.20930   0.80169   0.00000  Uiso   1.00
F467   F     0.66054   0.12410   0.69826   0.00000  Uiso   1.00
F468   F     0.46607   0.12022   0.58187   0.00000  Uiso   1.00
F469   F     0.34024   0.11987   0.89630   0.00000  Uiso   1.00
F470   F     0.55234   0.25311   0.87636   0.00000  Uiso   1.00
H471   H     0.62959   0.27074   0.93632   0.00000  Uiso   1.00
H472   H     0.33355   0.26283   0.51291   0.00000  Uiso   1.00
H473   H     0.39138   0.14185   0.55001   0.00000  Uiso   1.00
H474   H     0.65033   0.11339   0.99518   0.00000  Uiso   1.00
N475   N     0.64908   0.18074   0.76416   0.00000  Uiso   1.00
N476   N     0.35092   0.15259   0.73584   0.00000  Uiso   1.00
O477   O     0.46131   0.23807   0.74633   0.00000  Uiso   1.00
O478   O     0.56191   0.24755   0.75586   0.00000  Uiso   1.00
O479   O     0.42515   0.15960   0.81839   0.00000  Uiso   1.00
O480   O     0.52575   0.16908   0.82793   0.00000  Uiso   1.00
O481   O     0.43809   0.08578   0.74414   0.00000  Uiso   1.00
O482   O     0.53869   0.09526   0.75367   0.00000  Uiso   1.00
O483   O     0.47425   0.16425   0.67207   0.00000  Uiso   1.00
O484   O     0.57485   0.17373   0.68161   0.00000  Uiso   1.00
Br485  Br    0.67595   0.24691   0.61665   0.00000  Uiso   1.00
Br486  Br    0.91803   0.02359   0.79787   0.00000  Uiso   1.00
C487   C     0.84767   0.26657   0.75329   0.00000  Uiso   1.00
C488   C     0.77803   0.16631   0.90392   0.00000  Uiso   1.00
C489   C     0.85327   0.32194   0.76100   0.00000  Uiso   1.00
C490   C     0.79957   0.16594   0.84740   0.00000  Uiso   1.00
C491   C     0.81185   0.01124   0.74614   0.00000  Uiso   1.00
C492   C     0.81818   0.06675   0.74939   0.00000  Uiso   1.00
C493   C     0.86766   0.17143   0.65282   0.00000  Uiso   1.00
C494   C     0.95652   0.23549   0.52796   0.00000  Uiso   1.00
C495   C     0.88905   0.18231   0.59766   0.00000  Uiso   1.00
C496   C     0.71640   0.13967   0.92576   0.00000  Uiso   1.00
C497   C     0.69837   0.13234   0.97838   0.00000  Uiso   1.00
C498   C     0.80533   0.17233   0.98846   0.00000  Uiso   1.00
C499   C     0.74226   0.14752   0.50938   0.00000  Uiso   1.00
C500   C     0.82040   0.18805   0.93665   0.00000  Uiso   1.00
C501   C     0.85294   0.18477   0.51802   0.00000  Uiso   1.00
C502   C     0.91033   0.22027   0.99853   0.00000  Uiso   1.00
C503   C     0.92051   0.24158   0.95038   0.00000  Uiso   1.00
C504   C     0.87622   0.22625   0.91988   0.00000  Uiso   1.00
C505   C     0.84596   0.16270   0.56601   0.00000  Uiso   1.00
C506   C     0.94577   0.21801   0.57780   0.00000  Uiso   1.00
Cu507  Cu    0.77377   0.16105   0.74435   0.00000  Uiso   1.00
Cu508  Cu    0.89290   0.17228   0.75565   0.00000  Uiso   1.00
F509   F     0.76462   0.31641   0.72391   0.00000  Uiso   1.00
F510   F     0.67282   0.20930   0.80169   0.00000  Uiso   1.00
F511   F     0.99387   0.12410   0.69826   0.00000  Uiso   1.00
F512   F     0.79940   0.12022   0.58187   0.00000  Uiso   1.00
F513   F     0.67357   0.11987   0.89630   0.00000  Uiso   1.00
F514   F     0.88567   0.25311   0.87636   0.00000  Uiso   1.00
H515   H     0.96292   0.27074   0.93632   0.00000  Uiso   1.00
H516   H     0.66689   0.26283   0.51291   0.00000  Uiso   1.00
H517   H     0.72472   0.14185   0.55001   0.00000  Uiso   1.00
H518   H     0.98366   0.11339   0.99518   0.00000  Uiso   1.00
N519   N     0.98241   0.18074   0.76416   0.00000  Uiso   1.00
N520   N     0.68426   0.15259   0.73584   0.00000  Uiso   1.00
O521   O     0.79464   0.23807   0.74633   0.00000  Uiso   1.00
O522   O     0.89524   0.24755   0.75586   0.00000  Uiso   1.00
O523   O     0.75848   0.15960   0.81839   0.00000  Uiso   1.00
O524   O     0.85908   0.16908   0.82793   0.00000  Uiso   1.00
O525   O     0.77142   0.08578   0.74414   0.00000  Uiso   1.00
O526   O     0.87203   0.09526   0.75367   0.00000  Uiso   1.00
O527   O     0.80758   0.16425   0.67207   0.00000  Uiso   1.00
O528   O     0.90819   0.17373   0.68161   0.00000  Uiso   1.00
Br529  Br    0.00929   0.58024   0.61665   0.00000  Uiso   1.00
Br530  Br    0.25137   0.35693   0.79787   0.00000  Uiso   1.00
C531   C     0.18100   0.59991   0.75329   0.00000  Uiso   1.00
C532   C     0.11137   0.49965   0.90392   0.00000  Uiso   1.00
C533   C     0.18660   0.65527   0.76100   0.00000  Uiso   1.00
C534   C     0.13290   0.49928   0.84740   0.00000  Uiso   1.00
C535   C     0.14518   0.34457   0.74614   0.00000  Uiso   1.00
C536   C     0.15151   0.40008   0.74939   0.00000  Uiso   1.00
C537   C     0.20099   0.50476   0.65282   0.00000  Uiso   1.00
C538   C     0.28985   0.56883   0.52796   0.00000  Uiso   1.00
C539   C     0.22238   0.51564   0.59766   0.00000  Uiso   1.00
C540   C     0.04973   0.47300   0.92576   0.00000  Uiso   1.00
C541   C     0.03171   0.46567   0.97838   0.00000  Uiso   1.00
C542   C     0.13866   0.50566   0.98846   0.00000  Uiso   1.00
C543   C     0.07559   0.48086   0.50938   0.00000  Uiso   1.00
C544   C     0.15374   0.52138   0.93665   0.00000  Uiso   1.00
C545   C     0.18627   0.51811   0.51802   0.00000  Uiso   1.00
C546   C     0.24367   0.55360   0.99853   0.00000  Uiso   1.00
C547   C     0.25384   0.57491   0.95038   0.00000  Uiso   1.00
C548   C     0.20956   0.55959   0.91988   0.00000  Uiso   1.00
C549   C     0.17930   0.49604   0.56601   0.00000  Uiso   1.00
C550   C     0.27910   0.55134   0.57780   0.00000  Uiso   1.00
Cu551  Cu    0.10710   0.49439   0.74435   0.00000  Uiso   1.00
Cu552  Cu    0.22623   0.50561   0.75565   0.00000  Uiso   1.00
F553   F     0.09796   0.64975   0.72391   0.00000  Uiso   1.00
F554   F     0.00616   0.54263   0.80169   0.00000  Uiso   1.00
F555   F     0.32721   0.45744   0.69826   0.00000  Uiso   1.00
F556   F     0.13274   0.45356   0.58187   0.00000  Uiso   1.00
F557   F     0.00690   0.45320   0.89630   0.00000  Uiso   1.00
F558   F     0.21900   0.58644   0.87636   0.00000  Uiso   1.00
H559   H     0.29625   0.60408   0.93632   0.00000  Uiso   1.00
H560   H     0.00022   0.59616   0.51291   0.00000  Uiso   1.00
H561   H     0.05805   0.47519   0.55001   0.00000  Uiso   1.00
H562   H     0.31700   0.44673   0.99518   0.00000  Uiso   1.00
N563   N     0.31574   0.51407   0.76416   0.00000  Uiso   1.00
N564   N     0.01759   0.48593   0.73584   0.00000  Uiso   1.00
O565   O     0.12797   0.57141   0.74633   0.00000  Uiso   1.00
O566   O     0.22858   0.58089   0.75586   0.00000  Uiso   1.00
O567   O     0.09181   0.49293   0.81839   0.00000  Uiso   1.00
O568   O     0.19242   0.50241   0.82793   0.00000  Uiso   1.00
O569   O     0.10476   0.41911   0.74414   0.00000  Uiso   1.00
O570   O     0.20536   0.42859   0.75367   0.00000  Uiso   1.00
O571   O     0.14092   0.49759   0.67207   0.00000  Uiso   1.00
O572   O     0.24152   0.50707   0.68161   0.00000  Uiso   1.00
Br573  Br    0.34262   0.58024   0.61665   0.00000  Uiso   1.00
Br574  Br    0.58470   0.35693   0.79787   0.00000  Uiso   1.00
C575   C     0.51434   0.59991   0.75329   0.00000  Uiso   1.00
C576   C     0.44470   0.49965   0.90392   0.00000  Uiso   1.00
C577   C     0.51993   0.65527   0.76100   0.00000  Uiso   1.00
C578   C     0.46623   0.49928   0.84740   0.00000  Uiso   1.00
C579   C     0.47851   0.34457   0.74614   0.00000  Uiso   1.00
C580   C     0.48485   0.40008   0.74939   0.00000  Uiso   1.00
C581   C     0.53433   0.50476   0.65282   0.00000  Uiso   1.00
C582   C     0.62318   0.56883   0.52796   0.00000  Uiso   1.00
C583   C     0.55571   0.51564   0.59766   0.00000  Uiso   1.00
C584   C     0.38306   0.47300   0.92576   0.00000  Uiso   1.00
C585   C     0.36504   0.46567   0.97838   0.00000  Uiso   1.00
C586   C     0.47199   0.50566   0.98846   0.00000  Uiso   1.00
C587   C     0.40893   0.48086   0.50938   0.00000  Uiso   1.00
C588   C     0.48707   0.52138   0.93665   0.00000  Uiso   1.00
C589   C     0.51960   0.51811   0.51802   0.00000  Uiso   1.00
C590   C     0.57700   0.55360   0.99853   0.00000  Uiso   1.00
C591   C     0.58718   0.57491   0.95038   0.00000  Uiso   1.00
C592   C     0.54289   0.55959   0.91988   0.00000  Uiso   1.00
C593   C     0.51263   0.49604   0.56601   0.00000  Uiso   1.00
C594   C     0.61243   0.55134   0.57780   0.00000  Uiso   1.00
Cu595  Cu    0.44043   0.49439   0.74435   0.00000  Uiso   1.00
Cu596  Cu    0.55957   0.50561   0.75565   0.00000  Uiso   1.00
F597   F     0.43129   0.64975   0.72391   0.00000  Uiso   1.00
F598   F     0.33949   0.54263   0.80169   0.00000  Uiso   1.00
F599   F     0.66054   0.45744   0.69826   0.00000  Uiso   1.00
F600   F     0.46607   0.45356   0.58187   0.00000  Uiso   1.00
F601   F     0.34024   0.45320   0.89630   0.00000  Uiso   1.00
F602   F     0.55234   0.58644   0.87636   0.00000  Uiso   1.00
H603   H     0.62959   0.60408   0.93632   0.00000  Uiso   1.00
H604   H     0.33355   0.59616   0.51291   0.00000  Uiso   1.00
H605   H     0.39138   0.47519   0.55001   0.00000  Uiso   1.00
H606   H     0.65033   0.44673   0.99518   0.00000  Uiso   1.00
N607   N     0.64908   0.51407   0.76416   0.00000  Uiso   1.00
N608   N     0.35092   0.48593   0.73584   0.00000  Uiso   1.00
O609   O     0.46131   0.57141   0.74633   0.00000  Uiso   1.00
O610   O     0.56191   0.58089   0.75586   0.00000  Uiso   1.00
O611   O     0.42515   0.49293   0.81839   0.00000  Uiso   1.00
O612   O     0.52575   0.50241   0.82793   0.00000  Uiso   1.00
O613   O     0.43809   0.41911   0.74414   0.00000  Uiso   1.00
O614   O     0.53869   0.42859   0.75367   0.00000  Uiso   1.00
O615   O     0.47425   0.49759   0.67207   0.00000  Uiso   1.00
O616   O     0.57485   0.50707   0.68161   0.00000  Uiso   1.00
Br617  Br    0.67595   0.58024   0.61665   0.00000  Uiso   1.00
Br618  Br    0.91803   0.35693   0.79787   0.00000  Uiso   1.00
C619   C     0.84767   0.59991   0.75329   0.00000  Uiso   1.00
C620   C     0.77803   0.49965   0.90392   0.00000  Uiso   1.00
C621   C     0.85327   0.65527   0.76100   0.00000  Uiso   1.00
C622   C     0.79957   0.49928   0.84740   0.00000  Uiso   1.00
C623   C     0.81185   0.34457   0.74614   0.00000  Uiso   1.00
C624   C     0.81818   0.40008   0.74939   0.00000  Uiso   1.00
C625   C     0.86766   0.50476   0.65282   0.00000  Uiso   1.00
C626   C     0.95652   0.56883   0.52796   0.00000  Uiso   1.00
C627   C     0.88905   0.51564   0.59766   0.00000  Uiso   1.00
C628   C     0.71640   0.47300   0.92576   0.00000  Uiso   1.00
C629   C     0.69837   0.46567   0.97838   0.00000  Uiso   1.00
C630   C     0.80533   0.50566   0.98846   0.00000  Uiso   1.00
C631   C     0.74226   0.48086   0.50938   0.00000  Uiso   1.00
C632   C     0.82040   0.52138   0.93665   0.00000  Uiso   1.00
C633   C     0.85294   0.51811   0.51802   0.00000  Uiso   1.00
C634   C     0.91033   0.55360   0.99853   0.00000  Uiso   1.00
C635   C     0.92051   0.57491   0.95038   0.00000  Uiso   1.00
C636   C     0.87622   0.55959   0.91988   0.00000  Uiso   1.00
C637   C     0.84596   0.49604   0.56601   0.00000  Uiso   1.00
C638   C     0.94577   0.55134   0.57780   0.00000  Uiso   1.00
Cu639  Cu    0.77377   0.49439   0.74435   0.00000  Uiso   1.00
Cu640  Cu    0.89290   0.50561   0.75565   0.00000  Uiso   1.00
F641   F     0.76462   0.64975   0.72391   0.00000  Uiso   1.00
F642   F     0.67282   0.54263   0.80169   0.00000  Uiso   1.00
F643   F     0.99387   0.45744   0.69826   0.00000  Uiso   1.00
F644   F     0.79940   0.45356   0.58187   0.00000  Uiso   1.00
F645   F     0.67357   0.45320   0.89630   0.00000  Uiso   1.00
F646   F     0.88567   0.58644   0.87636   0.00000  Uiso   1.00
H647   H     0.96292   0.60408   0.93632   0.00000  Uiso   1.00
H648   H     0.66689   0.59616   0.51291   0.00000  Uiso   1.00
H649   H     0.72472   0.47519   0.55001   0.00000  Uiso   1.00
H650   H     0.98366   0.44673   0.99518   0.00000  Uiso   1.00
N651   N     0.98241   0.51407   0.76416   0.00000  Uiso   1.00
N652   N     0.68426   0.48593   0.73584   0.00000  Uiso   1.00
O653   O     0.79464   0.57141   0.74633   0.00000  Uiso   1.00
O654   O     0.89524   0.58089   0.75586   0.00000  Uiso   1.00
O655   O     0.75848   0.49293   0.81839   0.00000  Uiso   1.00
O656   O     0.85908   0.50241   0.82793   0.00000  Uiso   1.00
O657   O     0.77142   0.41911   0.74414   0.00000  Uiso   1.00
O658   O     0.87203   0.42859   0.75367   0.00000  Uiso   1.00
O659   O     0.80758   0.49759   0.67207   0.00000  Uiso   1.00
O660   O     0.90819   0.50707   0.68161   0.00000  Uiso   1.00
Br661  Br    0.00929   0.91357   0.61665   0.00000  Uiso   1.00
Br662  Br    0.25137   0.69026   0.79787   0.00000  Uiso   1.00
C663   C     0.18100   0.93324   0.75329   0.00000  Uiso   1.00
C664   C     0.11137   0.83298   0.90392   0.00000  Uiso   1.00
C665   C     0.18660   0.98861   0.76100   0.00000  Uiso   1.00
C666   C     0.13290   0.83261   0.84740   0.00000  Uiso   1.00
C667   C     0.14518   0.67790   0.74614   0.00000  Uiso   1.00
C668   C     0.15151   0.73342   0.74939   0.00000  Uiso   1.00
C669   C     0.20099   0.83810   0.65282   0.00000  Uiso   1.00
C670   C     0.28985   0.90216   0.52796   0.00000  Uiso   1.00
C671   C     0.22238   0.84897   0.59766   0.00000  Uiso   1.00
C672   C     0.04973   0.80634   0.92576   0.00000  Uiso   1.00
C673   C     0.03171   0.79900   0.97838   0.00000  Uiso   1.00
C674   C     0.13866   0.83899   0.98846   0.00000  Uiso   1.00
C675   C     0.07559   0.81419   0.50938   0.00000  Uiso   1.00
C676   C     0.15374   0.85471   0.93665   0.00000  Uiso   1.00
C677   C     0.18627   0.85144   0.51802   0.00000  Uiso   1.00
C678   C     0.24367   0.88693   0.99853   0.00000  Uiso   1.00
C679   C     0.25384   0.90825   0.95038   0.00000  Uiso   1.00
C680   C     0.20956   0.89292   0.91988   0.00000  Uiso   1.00
C681   C     0.17930   0.82937   0.56601   0.00000  Uiso   1.00
C682   C     0.27910   0.88467   0.57780   0.00000  Uiso   1.00
Cu683  Cu    0.10710   0.82772   0.74435   0.00000  Uiso   1.00
Cu684  Cu    0.22623   0.83895   0.75565   0.00000  Uiso   1.00
F685   F     0.09796   0.98308   0.72391   0.00000  Uiso   1.00
F686   F     0.00616   0.87597   0.80169   0.00000  Uiso   1.00
F687   F     0.32721   0.79077   0.69826   0.00000  Uiso   1.00
F688   F     0.13274   0.78689   0.58187   0.00000  Uiso   1.00
F689   F     0.00690   0.78653   0.89630   0.00000  Uiso   1.00
F690   F     0.21900   0.91978   0.87636   0.00000  Uiso   1.00
H691   H     0.29625   0.93741   0.93632   0.00000  Uiso   1.00
H692   H     0.00022   0.92949   0.51291   0.00000  Uiso   1.00
H693   H     0.05805   0.80852   0.55001   0.00000  Uiso   1.00
H694   H     0.31700   0.78006   0.99518   0.00000  Uiso   1.00
N695   N     0.31574   0.84741   0.76416   0.00000  Uiso   1.00
N696   N     0.01759   0.81926   0.73584   0.00000  Uiso   1.00
O697   O     0.12797   0.90474   0.74633   0.00000  Uiso   1.00
O698   O     0.22858   0.91422   0.75586   0.00000  Uiso   1.00
O699   O     0.09181   0.82627   0.81839   0.00000  Uiso   1.00
O700   O     0.19242   0.83575   0.82793   0.00000  Uiso   1.00
O701   O     0.10476   0.75245   0.74414   0.00000  Uiso   1.00
O702   O     0.20536   0.76193   0.75367   0.00000  Uiso   1.00
O703   O     0.14092   0.83092   0.67207   0.00000  Uiso   1.00
O704   O     0.24152   0.84040   0.68161   0.00000  Uiso   1.00
Br705  Br    0.34262   0.91357   0.61665   0.00000  Uiso   1.00
Br706  Br    0.58470   0.69026   0.79787   0.00000  Uiso   1.00
C707   C     0.51434   0.93324   0.75329   0.00000  Uiso   1.00
C708   C     0.44470   0.83298   0.90392   0.00000  Uiso   1.00
C709   C     0.51993   0.98861   0.76100   0.00000  Uiso   1.00
C710   C     0.46623   0.83261   0.84740   0.00000  Uiso   1.00
C711   C     0.47851   0.67790   0.74614   0.00000  Uiso   1.00
C712   C     0.48485   0.73342   0.74939   0.00000  Uiso   1.00
C713   C     0.53433   0.83810   0.65282   0.00000  Uiso   1.00
C714   C     0.62318   0.90216   0.52796   0.00000  Uiso   1.00
C715   C     0.55571   0.84897   0.59766   0.00000  Uiso   1.00
C716   C     0.38306   0.80634   0.92576   0.00000  Uiso   1.00
C717   C     0.36504   0.79900   0.97838   0.00000  Uiso   1.00
C718   C     0.47199   0.83899   0.98846   0.00000  Uiso   1.00
C719   C     0.40893   0.81419   0.50938   0.00000  Uiso   1.00
C720   C     0.48707   0.85471   0.93665   0.00000  Uiso   1.00
C721   C     0.51960   0.85144   0.51802   0.00000  Uiso   1.00
C722   C     0.57700   0.88693   0.99853   0.00000  Uiso   1.00
C723   C     0.58718   0.90825   0.95038   0.00000  Uiso   1.00
C724   C     0.54289   0.89292   0.91988   0.00000  Uiso   1.00
C725   C     0.51263   0.82937   0.56601   0.00000  Uiso   1.00
C726   C     0.61243   0.88467   0.57780   0.00000  Uiso   1.00
Cu727  Cu    0.44043   0.82772   0.74435   0.00000  Uiso   1.00
Cu728  Cu    0.55957   0.83895   0.75565   0.00000  Uiso   1.00
F729   F     0.43129   0.98308   0.72391   0.00000  Uiso   1.00
F730   F     0.33949   0.87597   0.80169   0.00000  Uiso   1.00
F731   F     0.66054   0.79077   0.69826   0.00000  Uiso   1.00
F732   F     0.46607   0.78689   0.58187   0.00000  Uiso   1.00
F733   F     0.34024   0.78653   0.89630   0.00000  Uiso   1.00
F734   F     0.55234   0.91978   0.87636   0.00000  Uiso   1.00
H735   H     0.62959   0.93741   0.93632   0.00000  Uiso   1.00
H736   H     0.33355   0.92949   0.51291   0.00000  Uiso   1.00
H737   H     0.39138   0.80852   0.55001   0.00000  Uiso   1.00
H738   H     0.65033   0.78006   0.99518   0.00000  Uiso   1.00
N739   N     0.64908   0.84741   0.76416   0.00000  Uiso   1.00
N740   N     0.35092   0.81926   0.73584   0.00000  Uiso   1.00
O741   O     0.46131   0.90474   0.74633   0.00000  Uiso   1.00
O742   O     0.56191   0.91422   0.75586   0.00000  Uiso   1.00
O743   O     0.42515   0.82627   0.81839   0.00000  Uiso   1.00
O744   O     0.52575   0.83575   0.82793   0.00000  Uiso   1.00
O745   O     0.43809   0.75245   0.74414   0.00000  Uiso   1.00
O746   O     0.53869   0.76193   0.75367   0.00000  Uiso   1.00
O747   O     0.47425   0.83092   0.67207   0.00000  Uiso   1.00
O748   O     0.57485   0.84040   0.68161   0.00000  Uiso   1.00
Br749  Br    0.67595   0.91357   0.61665   0.00000  Uiso   1.00
Br750  Br    0.91803   0.69026   0.79787   0.00000  Uiso   1.00
C751   C     0.84767   0.93324   0.75329   0.00000  Uiso   1.00
C752   C     0.77803   0.83298   0.90392   0.00000  Uiso   1.00
C753   C     0.85327   0.98861   0.76100   0.00000  Uiso   1.00
C754   C     0.79957   0.83261   0.84740   0.00000  Uiso   1.00
C755   C     0.81185   0.67790   0.74614   0.00000  Uiso   1.00
C756   C     0.81818   0.73342   0.74939   0.00000  Uiso   1.00
C757   C     0.86766   0.83810   0.65282   0.00000  Uiso   1.00
C758   C     0.95652   0.90216   0.52796   0.00000  Uiso   1.00
C759   C     0.88905   0.84897   0.59766   0.00000  Uiso   1.00
C760   C     0.71640   0.80634   0.92576   0.00000  Uiso   1.00
C761   C     0.69837   0.79900   0.97838   0.00000  Uiso   1.00
C762   C     0.80533   0.83899   0.98846   0.00000  Uiso   1.00
C763   C     0.74226   0.81419   0.50938   0.00000  Uiso   1.00
C764   C     0.82040   0.85471   0.93665   0.00000  Uiso   1.00
C765   C     0.85294   0.85144   0.51802   0.00000  Uiso   1.00
C766   C     0.91033   0.88693   0.99853   0.00000  Uiso   1.00
C767   C     0.92051   0.90825   0.95038   0.00000  Uiso   1.00
C768   C     0.87622   0.89292   0.91988   0.00000  Uiso   1.00
C769   C     0.84596   0.82937   0.56601   0.00000  Uiso   1.00
C770   C     0.94577   0.88467   0.57780   0.00000  Uiso   1.00
Cu771  Cu    0.77377   0.82772   0.74435   0.00000  Uiso   1.00
Cu772  Cu    0.89290   0.83895   0.75565   0.00000  Uiso   1.00
F773   F     0.76462   0.98308   0.72391   0.00000  Uiso   1.00
F774   F     0.67282   0.87597   0.80169   0.00000  Uiso   1.00
F775   F     0.99387   0.79077   0.69826   0.00000  Uiso   1.00
F776   F     0.79940   0.78689   0.58187   0.00000  Uiso   1.00
F777   F     0.67357   0.78653   0.89630   0.00000  Uiso   1.00
F778   F     0.88567   0.91978   0.87636   0.00000  Uiso   1.00
H779   H     0.96292   0.93741   0.93632   0.00000  Uiso   1.00
H780   H     0.66689   0.92949   0.51291   0.00000  Uiso   1.00
H781   H     0.72472   0.80852   0.55001   0.00000  Uiso   1.00
H782   H     0.98366   0.78006   0.99518   0.00000  Uiso   1.00
N783   N     0.98241   0.84741   0.76416   0.00000  Uiso   1.00
N784   N     0.68426   0.81926   0.73584   0.00000  Uiso   1.00
O785   O     0.79464   0.90474   0.74633   0.00000  Uiso   1.00
O786   O     0.89524   0.91422   0.75586   0.00000  Uiso   1.00
O787   O     0.75848   0.82627   0.81839   0.00000  Uiso   1.00
O788   O     0.85908   0.83575   0.82793   0.00000  Uiso   1.00
O789   O     0.77142   0.75245   0.74414   0.00000  Uiso   1.00
O790   O     0.87203   0.76193   0.75367   0.00000  Uiso   1.00
O791   O     0.80758   0.83092   0.67207   0.00000  Uiso   1.00
O792   O     0.90819   0.84040   0.68161   0.00000  Uiso   1.00
loop_
_geom_bond_atom_site_label_1
_geom_bond_atom_site_label_2
_geom_bond_distance
_geom_bond_site_symmetry_2
_ccdc_geom_bond_type
Br1    C110    1.923   1_455 S
Br2    C269    1.945   1_545 S
C3     O37     1.289   .     A
C3     O38     1.288   .     A
C3     C5      1.431   .     S
C4     C16     1.423   .     A
C4     C12     1.409   .     A
C4     C6      1.478   .     S
C5     Br134   1.945   .     S
C5     C139    1.347   .     S
C6     O40     1.299   .     A
C6     O39     1.301   .     A
C7     C8      1.428   .     S
C7     C269    1.347   1_545 S
C7     F289    1.364   1_545 S
C8     O42     1.285   .     A
C8     O41     1.293   .     A
C9     C11     1.473   .     S
C9     O43     1.299   .     A
C9     O44     1.299   .     A
C10    C22     1.393   .     A
C10    C414    1.400   1_554 S
C10    H76     1.084   .     S
C11    C22     1.412   .     A
C11    C21     1.403   .     A
C12    C13     1.388   .     A
C12    F29     1.358   .     S
C13    C411    1.390   .     S
C13    H122    1.083   1_455 S
C14    C16     1.420   .     A
C14    C411    1.415   .     S
C14    C413    1.425   .     S
C15    H33     1.078   .     S
C15    C410    1.415   1_554 S
C15    C409    1.390   1_554 S
C16    C20     1.416   .     A
C17    C21     1.410   .     A
C17    C410    1.425   1_554 S
C17    C414    1.417   1_554 S
C18    C19     1.393   .     A
C18    C413    1.417   .     S
C18    C406    1.400   .     S
C19    H31     1.084   .     S
C19    C20     1.388   .     A
C20    F30     1.357   .     S
C21    F28     1.359   .     S
C22    Br45    1.923   .     S
Cu23   Cu24    2.687   .     S
Cu23   O37     1.965   .     S
Cu23   O41     1.962   .     S
Cu23   O39     1.931   .     S
Cu23   N36     2.019   .     S
Cu23   O43     1.910   .     S
Cu24   O44     1.931   .     S
Cu24   O38     1.962   .     S
Cu24   O42     1.965   .     S
Cu24   O40     1.910   .     S
Cu24   N35     2.019   .     S
F25    C139    1.364   .     S
F26    N123    1.335   1_455 S
F27    N80     1.335   .     S
H32    C98     1.084   1_455 S
H34    C57     1.083   .     S
N35    F70     1.335   .     S
N35    N80     1.283   .     S
N36    N123    1.283   1_455 S
N36    F115    1.335   1_455 S
Br46   C313    1.945   1_545 S
C47    O81     1.289   .     A
C47    O82     1.288   .     A
C47    C49     1.431   .     S
C48    C60     1.423   .     A
C48    C56     1.409   .     A
C48    C50     1.478   .     S
C49    Br178   1.945   .     S
C49    C183    1.347   .     S
C50    O84     1.299   .     A
C50    O83     1.301   .     A
C51    C52     1.428   .     S
C51    C313    1.347   1_545 S
C51    F333    1.364   1_545 S
C52    O86     1.285   .     A
C52    O85     1.293   .     A
C53    C55     1.473   .     S
C53    O87     1.299   .     A
C53    O88     1.299   .     A
C54    C66     1.393   .     A
C54    C458    1.400   1_554 S
C54    H120    1.084   .     S
C55    C66     1.412   .     A
C55    C65     1.403   .     A
C56    C57     1.388   .     A
C56    F73     1.358   .     S
C57    C455    1.390   .     S
C58    C60     1.420   .     A
C58    C455    1.415   .     S
C58    C457    1.425   .     S
C59    H77     1.078   .     S
C59    C454    1.415   1_554 S
C59    C453    1.390   1_554 S
C60    C64     1.416   .     A
C61    C65     1.410   .     A
C61    C454    1.425   1_554 S
C61    C458    1.417   1_554 S
C62    C63     1.393   .     A
C62    C457    1.417   .     S
C62    C450    1.400   .     S
C63    H75     1.084   .     S
C63    C64     1.388   .     A
C64    F74     1.357   .     S
C65    F72     1.359   .     S
C66    Br89    1.923   .     S
Cu67   Cu68    2.687   .     S
Cu67   O81     1.965   .     S
Cu67   O85     1.962   .     S
Cu67   O83     1.931   .     S
Cu67   N80     2.019   .     S
Cu67   O87     1.910   .     S
Cu68   O88     1.931   .     S
Cu68   O82     1.962   .     S
Cu68   O86     1.965   .     S
Cu68   O84     1.910   .     S
Cu68   N79     2.019   .     S
F69    C183    1.364   .     S
F71    N124    1.335   .     S
H78    C101    1.083   .     S
N79    F114    1.335   .     S
N79    N124    1.283   .     S
Br90   C357    1.945   1_545 S
C91    O125    1.289   .     A
C91    O126    1.288   .     A
C91    C93     1.431   .     S
C92    C104    1.423   .     A
C92    C100    1.409   .     A
C92    C94     1.478   .     S
C93    Br222   1.945   .     S
C93    C227    1.347   .     S
C94    O128    1.299   .     A
C94    O127    1.301   .     A
C95    C96     1.428   .     S
C95    C357    1.347   1_545 S
C95    F377    1.364   1_545 S
C96    O130    1.285   .     A
C96    O129    1.293   .     A
C97    C99     1.473   .     S
C97    O131    1.299   .     A
C97    O132    1.299   .     A
C98    C110    1.393   .     A
C98    C502    1.400   1_554 S
C98    H32     1.084   1_655 S
C99    C110    1.412   .     A
C99    C109    1.403   .     A
C100   C101    1.388   .     A
C100   F117    1.358   .     S
C101   C499    1.390   .     S
C102   C104    1.420   .     A
C102   C499    1.415   .     S
C102   C501    1.425   .     S
C103   H121    1.078   .     S
C103   C498    1.415   1_554 S
C103   C497    1.390   1_554 S
C104   C108    1.416   .     A
C105   C109    1.410   .     A
C105   C498    1.425   1_554 S
C105   C502    1.417   1_554 S
C106   C107    1.393   .     A
C106   C501    1.417   .     S
C106   C494    1.400   .     S
C107   H119    1.084   .     S
C107   C108    1.388   .     A
C108   F118    1.357   .     S
C109   F116    1.359   .     S
C110   Br1     1.923   1_655 S
Cu111  Cu112   2.687   .     S
Cu111  O125    1.965   .     S
Cu111  O129    1.962   .     S
Cu111  O127    1.931   .     S
Cu111  N124    2.019   .     S
Cu111  O131    1.910   .     S
Cu112  O132    1.931   .     S
Cu112  O126    1.962   .     S
Cu112  O130    1.965   .     S
Cu112  O128    1.910   .     S
Cu112  N123    2.019   .     S
F113   C227    1.364   .     S
F115   N36     1.335   1_655 S
H122   C13     1.083   1_655 S
N123   F26     1.335   1_655 S
N123   N36     1.283   1_655 S
Br133  C242    1.923   1_455 S
C135   O169    1.289   .     A
C135   O170    1.288   .     A
C135   C137    1.431   .     S
C136   C148    1.423   .     A
C136   C144    1.409   .     A
C136   C138    1.478   .     S
C137   Br266   1.945   .     S
C137   C271    1.347   .     S
C138   O172    1.299   .     A
C138   O171    1.301   .     A
C139   C140    1.428   .     S
C140   O174    1.285   .     A
C140   O173    1.293   .     A
C141   C143    1.473   .     S
C141   O175    1.299   .     A
C141   O176    1.299   .     A
C142   C154    1.393   .     A
C142   C546    1.400   1_554 S
C142   H208    1.084   .     S
C143   C154    1.412   .     A
C143   C153    1.403   .     A
C144   C145    1.388   .     A
C144   F161    1.358   .     S
C145   C543    1.390   .     S
C145   H254    1.083   1_455 S
C146   C148    1.420   .     A
C146   C543    1.415   .     S
C146   C545    1.425   .     S
C147   H165    1.078   .     S
C147   C542    1.415   1_554 S
C147   C541    1.390   1_554 S
C148   C152    1.416   .     A
C149   C153    1.410   .     A
C149   C542    1.425   1_554 S
C149   C546    1.417   1_554 S
C150   C151    1.393   .     A
C150   C545    1.417   .     S
C150   C538    1.400   .     S
C151   H163    1.084   .     S
C151   C152    1.388   .     A
C152   F162    1.357   .     S
C153   F160    1.359   .     S
C154   Br177   1.923   .     S
Cu155  Cu156   2.687   .     S
Cu155  O169    1.965   .     S
Cu155  O173    1.962   .     S
Cu155  O171    1.931   .     S
Cu155  N168    2.019   .     S
Cu155  O175    1.910   .     S
Cu156  O176    1.931   .     S
Cu156  O170    1.962   .     S
Cu156  O174    1.965   .     S
Cu156  O172    1.910   .     S
Cu156  N167    2.019   .     S
F157   C271    1.364   .     S
F158   N255    1.335   1_455 S
F159   N212    1.335   .     S
H164   C230    1.084   1_455 S
H166   C189    1.083   .     S
N167   F202    1.335   .     S
N167   N212    1.283   .     S
N168   N255    1.283   1_455 S
N168   F247    1.335   1_455 S
C179   O213    1.289   .     A
C179   O214    1.288   .     A
C179   C181    1.431   .     S
C180   C192    1.423   .     A
C180   C188    1.409   .     A
C180   C182    1.478   .     S
C181   Br310   1.945   .     S
C181   C315    1.347   .     S
C182   O216    1.299   .     A
C182   O215    1.301   .     A
C183   C184    1.428   .     S
C184   O218    1.285   .     A
C184   O217    1.293   .     A
C185   C187    1.473   .     S
C185   O219    1.299   .     A
C185   O220    1.299   .     A
C186   C198    1.393   .     A
C186   C590    1.400   1_554 S
C186   H252    1.084   .     S
C187   C198    1.412   .     A
C187   C197    1.403   .     A
C188   C189    1.388   .     A
C188   F205    1.358   .     S
C189   C587    1.390   .     S
C190   C192    1.420   .     A
C190   C587    1.415   .     S
C190   C589    1.425   .     S
C191   H209    1.078   .     S
C191   C586    1.415   1_554 S
C191   C585    1.390   1_554 S
C192   C196    1.416   .     A
C193   C197    1.410   .     A
C193   C586    1.425   1_554 S
C193   C590    1.417   1_554 S
C194   C195    1.393   .     A
C194   C589    1.417   .     S
C194   C582    1.400   .     S
C195   H207    1.084   .     S
C195   C196    1.388   .     A
C196   F206    1.357   .     S
C197   F204    1.359   .     S
C198   Br221   1.923   .     S
Cu199  Cu200   2.687   .     S
Cu199  O213    1.965   .     S
Cu199  O217    1.962   .     S
Cu199  O215    1.931   .     S
Cu199  N212    2.019   .     S
Cu199  O219    1.910   .     S
Cu200  O220    1.931   .     S
Cu200  O214    1.962   .     S
Cu200  O218    1.965   .     S
Cu200  O216    1.910   .     S
Cu200  N211    2.019   .     S
F201   C315    1.364   .     S
F203   N256    1.335   .     S
H210   C233    1.083   .     S
N211   F246    1.335   .     S
N211   N256    1.283   .     S
C223   O257    1.289   .     A
C223   O258    1.288   .     A
C223   C225    1.431   .     S
C224   C236    1.423   .     A
C224   C232    1.409   .     A
C224   C226    1.478   .     S
C225   Br354   1.945   .     S
C225   C359    1.347   .     S
C226   O260    1.299   .     A
C226   O259    1.301   .     A
C227   C228    1.428   .     S
C228   O262    1.285   .     A
C228   O261    1.293   .     A
C229   C231    1.473   .     S
C229   O263    1.299   .     A
C229   O264    1.299   .     A
C230   C242    1.393   .     A
C230   C634    1.400   1_554 S
C230   H164    1.084   1_655 S
C231   C242    1.412   .     A
C231   C241    1.403   .     A
C232   C233    1.388   .     A
C232   F249    1.358   .     S
C233   C631    1.390   .     S
C234   C236    1.420   .     A
C234   C631    1.415   .     S
C234   C633    1.425   .     S
C235   H253    1.078   .     S
C235   C630    1.415   1_554 S
C235   C629    1.390   1_554 S
C236   C240    1.416   .     A
C237   C241    1.410   .     A
C237   C630    1.425   1_554 S
C237   C634    1.417   1_554 S
C238   C239    1.393   .     A
C238   C633    1.417   .     S
C238   C626    1.400   .     S
C239   H251    1.084   .     S
C239   C240    1.388   .     A
C240   F250    1.357   .     S
C241   F248    1.359   .     S
C242   Br133   1.923   1_655 S
Cu243  Cu244   2.687   .     S
Cu243  O257    1.965   .     S
Cu243  O261    1.962   .     S
Cu243  O259    1.931   .     S
Cu243  N256    2.019   .     S
Cu243  O263    1.910   .     S
Cu244  O264    1.931   .     S
Cu244  O258    1.962   .     S
Cu244  O262    1.965   .     S
Cu244  O260    1.910   .     S
Cu244  N255    2.019   .     S
F245   C359    1.364   .     S
F247   N168    1.335   1_655 S
H254   C145    1.083   1_655 S
N255   F158    1.335   1_655 S
N255   N168    1.283   1_655 S
Br265  C374    1.923   1_455 S
C267   O301    1.289   .     A
C267   O302    1.288   .     A
C267   C269    1.431   .     S
C268   C280    1.423   .     A
C268   C276    1.409   .     A
C268   C270    1.478   .     S
C269   Br2     1.945   1_565 S
C269   C7      1.347   1_565 S
C270   O304    1.299   .     A
C270   O303    1.301   .     A
C271   C272    1.428   .     S
C272   O306    1.285   .     A
C272   O305    1.293   .     A
C273   C275    1.473   .     S
C273   O307    1.299   .     A
C273   O308    1.299   .     A
C274   C286    1.393   .     A
C274   C678    1.400   1_554 S
C274   H340    1.084   .     S
C275   C286    1.412   .     A
C275   C285    1.403   .     A
C276   C277    1.388   .     A
C276   F293    1.358   .     S
C277   C675    1.390   .     S
C277   H386    1.083   1_455 S
C278   C280    1.420   .     A
C278   C675    1.415   .     S
C278   C677    1.425   .     S
C279   H297    1.078   .     S
C279   C674    1.415   1_554 S
C279   C673    1.390   1_554 S
C280   C284    1.416   .     A
C281   C285    1.410   .     A
C281   C674    1.425   1_554 S
C281   C678    1.417   1_554 S
C282   C283    1.393   .     A
C282   C677    1.417   .     S
C282   C670    1.400   .     S
C283   H295    1.084   .     S
C283   C284    1.388   .     A
C284   F294    1.357   .     S
C285   F292    1.359   .     S
C286   Br309   1.923   .     S
Cu287  Cu288   2.687   .     S
Cu287  O301    1.965   .     S
Cu287  O305    1.962   .     S
Cu287  O303    1.931   .     S
Cu287  N300    2.019   .     S
Cu287  O307    1.910   .     S
Cu288  O308    1.931   .     S
Cu288  O302    1.962   .     S
Cu288  O306    1.965   .     S
Cu288  O304    1.910   .     S
Cu288  N299    2.019   .     S
F289   C7      1.364   1_565 S
F290   N387    1.335   1_455 S
F291   N344    1.335   .     S
H296   C362    1.084   1_455 S
H298   C321    1.083   .     S
N299   F334    1.335   .     S
N299   N344    1.283   .     S
N300   N387    1.283   1_455 S
N300   F379    1.335   1_455 S
C311   O345    1.289   .     A
C311   O346    1.288   .     A
C311   C313    1.431   .     S
C312   C324    1.423   .     A
C312   C320    1.409   .     A
C312   C314    1.478   .     S
C313   Br46    1.945   1_565 S
C313   C51     1.347   1_565 S
C314   O348    1.299   .     A
C314   O347    1.301   .     A
C315   C316    1.428   .     S
C316   O350    1.285   .     A
C316   O349    1.293   .     A
C317   C319    1.473   .     S
C317   O351    1.299   .     A
C317   O352    1.299   .     A
C318   C330    1.393   .     A
C318   C722    1.400   1_554 S
C318   H384    1.084   .     S
C319   C330    1.412   .     A
C319   C329    1.403   .     A
C320   C321    1.388   .     A
C320   F337    1.358   .     S
C321   C719    1.390   .     S
C322   C324    1.420   .     A
C322   C719    1.415   .     S
C322   C721    1.425   .     S
C323   H341    1.078   .     S
C323   C718    1.415   1_554 S
C323   C717    1.390   1_554 S
C324   C328    1.416   .     A
C325   C329    1.410   .     A
C325   C718    1.425   1_554 S
C325   C722    1.417   1_554 S
C326   C327    1.393   .     A
C326   C721    1.417   .     S
C326   C714    1.400   .     S
C327   H339    1.084   .     S
C327   C328    1.388   .     A
C328   F338    1.357   .     S
C329   F336    1.359   .     S
C330   Br353   1.923   .     S
Cu331  Cu332   2.687   .     S
Cu331  O345    1.965   .     S
Cu331  O349    1.962   .     S
Cu331  O347    1.931   .     S
Cu331  N344    2.019   .     S
Cu331  O351    1.910   .     S
Cu332  O352    1.931   .     S
Cu332  O346    1.962   .     S
Cu332  O350    1.965   .     S
Cu332  O348    1.910   .     S
Cu332  N343    2.019   .     S
F333   C51     1.364   1_565 S
F335   N388    1.335   .     S
H342   C365    1.083   .     S
N343   F378    1.335   .     S
N343   N388    1.283   .     S
C355   O389    1.289   .     A
C355   O390    1.288   .     A
C355   C357    1.431   .     S
C356   C368    1.423   .     A
C356   C364    1.409   .     A
C356   C358    1.478   .     S
C357   Br90    1.945   1_565 S
C357   C95     1.347   1_565 S
C358   O392    1.299   .     A
C358   O391    1.301   .     A
C359   C360    1.428   .     S
C360   O394    1.285   .     A
C360   O393    1.293   .     A
C361   C363    1.473   .     S
C361   O395    1.299   .     A
C361   O396    1.299   .     A
C362   C374    1.393   .     A
C362   C766    1.400   1_554 S
C362   H296    1.084   1_655 S
C363   C374    1.412   .     A
C363   C373    1.403   .     A
C364   C365    1.388   .     A
C364   F381    1.358   .     S
C365   C763    1.390   .     S
C366   C368    1.420   .     A
C366   C763    1.415   .     S
C366   C765    1.425   .     S
C367   H385    1.078   .     S
C367   C762    1.415   1_554 S
C367   C761    1.390   1_554 S
C368   C372    1.416   .     A
C369   C373    1.410   .     A
C369   C762    1.425   1_554 S
C369   C766    1.417   1_554 S
C370   C371    1.393   .     A
C370   C765    1.417   .     S
C370   C758    1.400   .     S
C371   H383    1.084   .     S
C371   C372    1.388   .     A
C372   F382    1.357   .     S
C373   F380    1.359   .     S
C374   Br265   1.923   1_655 S
Cu375  Cu376   2.687   .     S
Cu375  O389    1.965   .     S
Cu375  O393    1.962   .     S
Cu375  O391    1.931   .     S
Cu375  N388    2.019   .     S
Cu375  O395    1.910   .     S
Cu376  O396    1.931   .     S
Cu376  O390    1.962   .     S
Cu376  O394    1.965   .     S
Cu376  O392    1.910   .     S
Cu376  N387    2.019   .     S
F377   C95     1.364   1_565 S
F379   N300    1.335   1_655 S
H386   C277    1.083   1_655 S
N387   F290    1.335   1_655 S
N387   N300    1.283   1_655 S
Br397  C506    1.923   1_455 S
Br398  C665    1.945   1_545 S
C399   O433    1.289   .     A
C399   O434    1.288   .     A
C399   C401    1.431   .     S
C400   C412    1.423   .     A
C400   C408    1.409   .     A
C400   C402    1.478   .     S
C401   Br530   1.945   .     S
C401   C535    1.347   .     S
C402   O436    1.299   .     A
C402   O435    1.301   .     A
C403   C404    1.428   .     S
C403   C665    1.347   1_545 S
C403   F685    1.364   1_545 S
C404   O438    1.285   .     A
C404   O437    1.293   .     A
C405   C407    1.473   .     S
C405   O439    1.299   .     A
C405   O440    1.299   .     A
C406   C418    1.393   .     A
C406   H472    1.084   .     S
C407   C418    1.412   .     A
C407   C417    1.403   .     A
C408   C409    1.388   .     A
C408   F425    1.358   .     S
C409   C15     1.390   1_556 S
C409   H518    1.083   1_455 S
C410   C412    1.420   .     A
C410   C15     1.415   1_556 S
C410   C17     1.425   1_556 S
C411   H429    1.078   .     S
C412   C416    1.416   .     A
C413   C417    1.410   .     A
C414   C415    1.393   .     A
C414   C17     1.417   1_556 S
C414   C10     1.400   1_556 S
C415   H427    1.084   .     S
C415   C416    1.388   .     A
C416   F426    1.357   .     S
C417   F424    1.359   .     S
C418   Br441   1.923   .     S
Cu419  Cu420   2.687   .     S
Cu419  O433    1.965   .     S
Cu419  O437    1.962   .     S
Cu419  O435    1.931   .     S
Cu419  N432    2.019   .     S
Cu419  O439    1.910   .     S
Cu420  O440    1.931   .     S
Cu420  O434    1.962   .     S
Cu420  O438    1.965   .     S
Cu420  O436    1.910   .     S
Cu420  N431    2.019   .     S
F421   C535    1.364   .     S
F422   N519    1.335   1_455 S
F423   N476    1.335   .     S
H428   C494    1.084   1_455 S
H430   C453    1.083   .     S
N431   F466    1.335   .     S
N431   N476    1.283   .     S
N432   N519    1.283   1_455 S
N432   F511    1.335   1_455 S
Br442  C709    1.945   1_545 S
C443   O477    1.289   .     A
C443   O478    1.288   .     A
C443   C445    1.431   .     S
C444   C456    1.423   .     A
C444   C452    1.409   .     A
C444   C446    1.478   .     S
C445   Br574   1.945   .     S
C445   C579    1.347   .     S
C446   O480    1.299   .     A
C446   O479    1.301   .     A
C447   C448    1.428   .     S
C447   C709    1.347   1_545 S
C447   F729    1.364   1_545 S
C448   O482    1.285   .     A
C448   O481    1.293   .     A
C449   C451    1.473   .     S
C449   O483    1.299   .     A
C449   O484    1.299   .     A
C450   C462    1.393   .     A
C450   H516    1.084   .     S
C451   C462    1.412   .     A
C451   C461    1.403   .     A
C452   C453    1.388   .     A
C452   F469    1.358   .     S
C453   C59     1.390   1_556 S
C454   C456    1.420   .     A
C454   C59     1.415   1_556 S
C454   C61     1.425   1_556 S
C455   H473    1.078   .     S
C456   C460    1.416   .     A
C457   C461    1.410   .     A
C458   C459    1.393   .     A
C458   C61     1.417   1_556 S
C458   C54     1.400   1_556 S
C459   H471    1.084   .     S
C459   C460    1.388   .     A
C460   F470    1.357   .     S
C461   F468    1.359   .     S
C462   Br485   1.923   .     S
Cu463  Cu464   2.687   .     S
Cu463  O477    1.965   .     S
Cu463  O481    1.962   .     S
Cu463  O479    1.931   .     S
Cu463  N476    2.019   .     S
Cu463  O483    1.910   .     S
Cu464  O484    1.931   .     S
Cu464  O478    1.962   .     S
Cu464  O482    1.965   .     S
Cu464  O480    1.910   .     S
Cu464  N475    2.019   .     S
F465   C579    1.364   .     S
F467   N520    1.335   .     S
H474   C497    1.083   .     S
N475   F510    1.335   .     S
N475   N520    1.283   .     S
Br486  C753    1.945   1_545 S
C487   O521    1.289   .     A
C487   O522    1.288   .     A
C487   C489    1.431   .     S
C488   C500    1.423   .     A
C488   C496    1.409   .     A
C488   C490    1.478   .     S
C489   Br618   1.945   .     S
C489   C623    1.347   .     S
C490   O524    1.299   .     A
C490   O523    1.301   .     A
C491   C492    1.428   .     S
C491   C753    1.347   1_545 S
C491   F773    1.364   1_545 S
C492   O526    1.285   .     A
C492   O525    1.293   .     A
C493   C495    1.473   .     S
C493   O527    1.299   .     A
C493   O528    1.299   .     A
C494   C506    1.393   .     A
C494   H428    1.084   1_655 S
C495   C506    1.412   .     A
C495   C505    1.403   .     A
C496   C497    1.388   .     A
C496   F513    1.358   .     S
C497   C103    1.390   1_556 S
C498   C500    1.420   .     A
C498   C103    1.415   1_556 S
C498   C105    1.425   1_556 S
C499   H517    1.078   .     S
C500   C504    1.416   .     A
C501   C505    1.410   .     A
C502   C503    1.393   .     A
C502   C105    1.417   1_556 S
C502   C98     1.400   1_556 S
C503   H515    1.084   .     S
C503   C504    1.388   .     A
C504   F514    1.357   .     S
C505   F512    1.359   .     S
C506   Br397   1.923   1_655 S
Cu507  Cu508   2.687   .     S
Cu507  O521    1.965   .     S
Cu507  O525    1.962   .     S
Cu507  O523    1.931   .     S
Cu507  N520    2.019   .     S
Cu507  O527    1.910   .     S
Cu508  O528    1.931   .     S
Cu508  O522    1.962   .     S
Cu508  O526    1.965   .     S
Cu508  O524    1.910   .     S
Cu508  N519    2.019   .     S
F509   C623    1.364   .     S
F511   N432    1.335   1_655 S
H518   C409    1.083   1_655 S
N519   F422    1.335   1_655 S
N519   N432    1.283   1_655 S
Br529  C638    1.923   1_455 S
C531   O565    1.289   .     A
C531   O566    1.288   .     A
C531   C533    1.431   .     S
C532   C544    1.423   .     A
C532   C540    1.409   .     A
C532   C534    1.478   .     S
C533   Br662   1.945   .     S
C533   C667    1.347   .     S
C534   O568    1.299   .     A
C534   O567    1.301   .     A
C535   C536    1.428   .     S
C536   O570    1.285   .     A
C536   O569    1.293   .     A
C537   C539    1.473   .     S
C537   O571    1.299   .     A
C537   O572    1.299   .     A
C538   C550    1.393   .     A
C538   H604    1.084   .     S
C539   C550    1.412   .     A
C539   C549    1.403   .     A
C540   C541    1.388   .     A
C540   F557    1.358   .     S
C541   C147    1.390   1_556 S
C541   H650    1.083   1_455 S
C542   C544    1.420   .     A
C542   C147    1.415   1_556 S
C542   C149    1.425   1_556 S
C543   H561    1.078   .     S
C544   C548    1.416   .     A
C545   C549    1.410   .     A
C546   C547    1.393   .     A
C546   C149    1.417   1_556 S
C546   C142    1.400   1_556 S
C547   H559    1.084   .     S
C547   C548    1.388   .     A
C548   F558    1.357   .     S
C549   F556    1.359   .     S
C550   Br573   1.923   .     S
Cu551  Cu552   2.687   .     S
Cu551  O565    1.965   .     S
Cu551  O569    1.962   .     S
Cu551  O567    1.931   .     S
Cu551  N564    2.019   .     S
Cu551  O571    1.910   .     S
Cu552  O572    1.931   .     S
Cu552  O566    1.962   .     S
Cu552  O570    1.965   .     S
Cu552  O568    1.910   .     S
Cu552  N563    2.019   .     S
F553   C667    1.364   .     S
F554   N651    1.335   1_455 S
F555   N608    1.335   .     S
H560   C626    1.084   1_455 S
H562   C585    1.083   .     S
N563   F598    1.335   .     S
N563   N608    1.283   .     S
N564   N651    1.283   1_455 S
N564   F643    1.335   1_455 S
C575   O609    1.289   .     A
C575   O610    1.288   .     A
C575   C577    1.431   .     S
C576   C588    1.423   .     A
C576   C584    1.409   .     A
C576   C578    1.478   .     S
C577   Br706   1.945   .     S
C577   C711    1.347   .     S
C578   O612    1.299   .     A
C578   O611    1.301   .     A
C579   C580    1.428   .     S
C580   O614    1.285   .     A
C580   O613    1.293   .     A
C581   C583    1.473   .     S
C581   O615    1.299   .     A
C581   O616    1.299   .     A
C582   C594    1.393   .     A
C582   H648    1.084   .     S
C583   C594    1.412   .     A
C583   C593    1.403   .     A
C584   C585    1.388   .     A
C584   F601    1.358   .     S
C585   C191    1.390   1_556 S
C586   C588    1.420   .     A
C586   C191    1.415   1_556 S
C586   C193    1.425   1_556 S
C587   H605    1.078   .     S
C588   C592    1.416   .     A
C589   C593    1.410   .     A
C590   C591    1.393   .     A
C590   C193    1.417   1_556 S
C590   C186    1.400   1_556 S
C591   H603    1.084   .     S
C591   C592    1.388   .     A
C592   F602    1.357   .     S
C593   F600    1.359   .     S
C594   Br617   1.923   .     S
Cu595  Cu596   2.687   .     S
Cu595  O609    1.965   .     S
Cu595  O613    1.962   .     S
Cu595  O611    1.931   .     S
Cu595  N608    2.019   .     S
Cu595  O615    1.910   .     S
Cu596  O616    1.931   .     S
Cu596  O610    1.962   .     S
Cu596  O614    1.965   .     S
Cu596  O612    1.910   .     S
Cu596  N607    2.019   .     S
F597   C711    1.364   .     S
F599   N652    1.335   .     S
H606   C629    1.083   .     S
N607   F642    1.335   .     S
N607   N652    1.283   .     S
C619   O653    1.289   .     A
C619   O654    1.288   .     A
C619   C621    1.431   .     S
C620   C632    1.423   .     A
C620   C628    1.409   .     A
C620   C622    1.478   .     S
C621   Br750   1.945   .     S
C621   C755    1.347   .     S
C622   O656    1.299   .     A
C622   O655    1.301   .     A
C623   C624    1.428   .     S
C624   O658    1.285   .     A
C624   O657    1.293   .     A
C625   C627    1.473   .     S
C625   O659    1.299   .     A
C625   O660    1.299   .     A
C626   C638    1.393   .     A
C626   H560    1.084   1_655 S
C627   C638    1.412   .     A
C627   C637    1.403   .     A
C628   C629    1.388   .     A
C628   F645    1.358   .     S
C629   C235    1.390   1_556 S
C630   C632    1.420   .     A
C630   C235    1.415   1_556 S
C630   C237    1.425   1_556 S
C631   H649    1.078   .     S
C632   C636    1.416   .     A
C633   C637    1.410   .     A
C634   C635    1.393   .     A
C634   C237    1.417   1_556 S
C634   C230    1.400   1_556 S
C635   H647    1.084   .     S
C635   C636    1.388   .     A
C636   F646    1.357   .     S
C637   F644    1.359   .     S
C638   Br529   1.923   1_655 S
Cu639  Cu640   2.687   .     S
Cu639  O653    1.965   .     S
Cu639  O657    1.962   .     S
Cu639  O655    1.931   .     S
Cu639  N652    2.019   .     S
Cu639  O659    1.910   .     S
Cu640  O660    1.931   .     S
Cu640  O654    1.962   .     S
Cu640  O658    1.965   .     S
Cu640  O656    1.910   .     S
Cu640  N651    2.019   .     S
F641   C755    1.364   .     S
F643   N564    1.335   1_655 S
H650   C541    1.083   1_655 S
N651   F554    1.335   1_655 S
N651   N564    1.283   1_655 S
Br661  C770    1.923   1_455 S
C663   O697    1.289   .     A
C663   O698    1.288   .     A
C663   C665    1.431   .     S
C664   C676    1.423   .     A
C664   C672    1.409   .     A
C664   C666    1.478   .     S
C665   Br398   1.945   1_565 S
C665   C403    1.347   1_565 S
C666   O700    1.299   .     A
C666   O699    1.301   .     A
C667   C668    1.428   .     S
C668   O702    1.285   .     A
C668   O701    1.293   .     A
C669   C671    1.473   .     S
C669   O703    1.299   .     A
C669   O704    1.299   .     A
C670   C682    1.393   .     A
C670   H736    1.084   .     S
C671   C682    1.412   .     A
C671   C681    1.403   .     A
C672   C673    1.388   .     A
C672   F689    1.358   .     S
C673   C279    1.390   1_556 S
C673   H782    1.083   1_455 S
C674   C676    1.420   .     A
C674   C279    1.415   1_556 S
C674   C281    1.425   1_556 S
C675   H693    1.078   .     S
C676   C680    1.416   .     A
C677   C681    1.410   .     A
C678   C679    1.393   .     A
C678   C281    1.417   1_556 S
C678   C274    1.400   1_556 S
C679   H691    1.084   .     S
C679   C680    1.388   .     A
C680   F690    1.357   .     S
C681   F688    1.359   .     S
C682   Br705   1.923   .     S
Cu683  Cu684   2.687   .     S
Cu683  O697    1.965   .     S
Cu683  O701    1.962   .     S
Cu683  O699    1.931   .     S
Cu683  N696    2.019   .     S
Cu683  O703    1.910   .     S
Cu684  O704    1.931   .     S
Cu684  O698    1.962   .     S
Cu684  O702    1.965   .     S
Cu684  O700    1.910   .     S
Cu684  N695    2.019   .     S
F685   C403    1.364   1_565 S
F686   N783    1.335   1_455 S
F687   N740    1.335   .     S
H692   C758    1.084   1_455 S
H694   C717    1.083   .     S
N695   F730    1.335   .     S
N695   N740    1.283   .     S
N696   N783    1.283   1_455 S
N696   F775    1.335   1_455 S
C707   O741    1.289   .     A
C707   O742    1.288   .     A
C707   C709    1.431   .     S
C708   C720    1.423   .     A
C708   C716    1.409   .     A
C708   C710    1.478   .     S
C709   Br442   1.945   1_565 S
C709   C447    1.347   1_565 S
C710   O744    1.299   .     A
C710   O743    1.301   .     A
C711   C712    1.428   .     S
C712   O746    1.285   .     A
C712   O745    1.293   .     A
C713   C715    1.473   .     S
C713   O747    1.299   .     A
C713   O748    1.299   .     A
C714   C726    1.393   .     A
C714   H780    1.084   .     S
C715   C726    1.412   .     A
C715   C725    1.403   .     A
C716   C717    1.388   .     A
C716   F733    1.358   .     S
C717   C323    1.390   1_556 S
C718   C720    1.420   .     A
C718   C323    1.415   1_556 S
C718   C325    1.425   1_556 S
C719   H737    1.078   .     S
C720   C724    1.416   .     A
C721   C725    1.410   .     A
C722   C723    1.393   .     A
C722   C325    1.417   1_556 S
C722   C318    1.400   1_556 S
C723   H735    1.084   .     S
C723   C724    1.388   .     A
C724   F734    1.357   .     S
C725   F732    1.359   .     S
C726   Br749   1.923   .     S
Cu727  Cu728   2.687   .     S
Cu727  O741    1.965   .     S
Cu727  O745    1.962   .     S
Cu727  O743    1.931   .     S
Cu727  N740    2.019   .     S
Cu727  O747    1.910   .     S
Cu728  O748    1.931   .     S
Cu728  O742    1.962   .     S
Cu728  O746    1.965   .     S
Cu728  O744    1.910   .     S
Cu728  N739    2.019   .     S
F729   C447    1.364   1_565 S
F731   N784    1.335   .     S
H738   C761    1.083   .     S
N739   F774    1.335   .     S
N739   N784    1.283   .     S
C751   O785    1.289   .     A
C751   O786    1.288   .     A
C751   C753    1.431   .     S
C752   C764    1.423   .     A
C752   C760    1.409   .     A
C752   C754    1.478   .     S
C753   Br486   1.945   1_565 S
C753   C491    1.347   1_565 S
C754   O788    1.299   .     A
C754   O787    1.301   .     A
C755   C756    1.428   .     S
C756   O790    1.285   .     A
C756   O789    1.293   .     A
C757   C759    1.473   .     S
C757   O791    1.299   .     A
C757   O792    1.299   .     A
C758   C770    1.393   .     A
C758   H692    1.084   1_655 S
C759   C770    1.412   .     A
C759   C769    1.403   .     A
C760   C761    1.388   .     A
C760   F777    1.358   .     S
C761   C367    1.390   1_556 S
C762   C764    1.420   .     A
C762   C367    1.415   1_556 S
C762   C369    1.425   1_556 S
C763   H781    1.078   .     S
C764   C768    1.416   .     A
C765   C769    1.410   .     A
C766   C767    1.393   .     A
C766   C369    1.417   1_556 S
C766   C362    1.400   1_556 S
C767   H779    1.084   .     S
C767   C768    1.388   .     A
C768   F778    1.357   .     S
C769   F776    1.359   .     S
C770   Br661   1.923   1_655 S
Cu771  Cu772   2.687   .     S
Cu771  O785    1.965   .     S
Cu771  O789    1.962   .     S
Cu771  O787    1.931   .     S
Cu771  N784    2.019   .     S
Cu771  O791    1.910   .     S
Cu772  O792    1.931   .     S
Cu772  O786    1.962   .     S
Cu772  O790    1.965   .     S
Cu772  O788    1.910   .     S
Cu772  N783    2.019   .     S
F773   C491    1.364   1_565 S
F775   N696    1.335   1_655 S
H782   C673    1.083   1_655 S
N783   F686    1.335   1_655 S
N783   N696    1.283   1_655 S
