data_str_m3_o2_o10_pcu_sym.147
_audit_creation_date              2020-01-03
_audit_creation_method            'Materials Studio'
_symmetry_space_group_name_H-M    'P1'
_symmetry_Int_Tables_number       1
_symmetry_cell_setting            triclinic
loop_
_symmetry_equiv_pos_as_xyz
  x,y,z
_cell_length_a                    25.7450
_cell_length_b                    29.7640
_cell_length_c                    28.4769
_cell_angle_alpha                 88.4770
_cell_angle_beta                  98.0941
_cell_angle_gamma                 91.3992
loop_
_atom_site_label
_atom_site_type_symbol
_atom_site_fract_x
_atom_site_fract_y
_atom_site_fract_z
_atom_site_U_iso_or_equiv
_atom_site_adp_type
_atom_site_occupancy
C1     C     0.16849   0.16352   0.25091   0.00000  Uiso   1.00
C2     C     0.16647   0.33613   0.24934   0.00000  Uiso   1.00
C3     C     0.14303   0.21443   0.05081   0.00000  Uiso   1.00
C4     C     0.20750   0.27200   0.45160   0.00000  Uiso   1.00
C5     C     0.14256   0.21566   0.10020   0.00000  Uiso   1.00
C6     C     0.20587   0.27211   0.40188   0.00000  Uiso   1.00
C7     C     0.19176   0.28406   0.10393   0.00000  Uiso   1.00
C8     C     0.12795   0.22730   0.39428   0.00000  Uiso   1.00
C9     C     0.19105   0.28460   0.05432   0.00000  Uiso   1.00
C10    C     0.12754   0.22814   0.44370   0.00000  Uiso   1.00
C11    C     0.16732   0.24946   0.02674   0.00000  Uiso   1.00
C12    C     0.16770   0.24988   0.47353   0.00000  Uiso   1.00
C13    C     0.06712   0.25011   0.23767   0.00000  Uiso   1.00
C14    C     0.26621   0.25036   0.26230   0.00000  Uiso   1.00
C15    C     0.01216   0.25021   0.23094   0.00000  Uiso   1.00
C16    C     0.32116   0.25115   0.26894   0.00000  Uiso   1.00
C17    C     0.17636   0.04103   0.28829   0.00000  Uiso   1.00
C18    C     0.15274   0.45716   0.21406   0.00000  Uiso   1.00
C19    C     0.16832   0.08674   0.29131   0.00000  Uiso   1.00
C20    C     0.14154   0.41127   0.21511   0.00000  Uiso   1.00
C21    C     0.17846   0.11538   0.25292   0.00000  Uiso   1.00
C22    C     0.17311   0.38414   0.24832   0.00000  Uiso   1.00
C23    C     0.19967   0.09776   0.21449   0.00000  Uiso   1.00
C24    C     0.21529   0.40234   0.27882   0.00000  Uiso   1.00
C25    C     0.20864   0.05205   0.21222   0.00000  Uiso   1.00
C26    C     0.22650   0.44825   0.27763   0.00000  Uiso   1.00
C27    C     0.19563   0.02384   0.24919   0.00000  Uiso   1.00
C28    C     0.19405   0.47550   0.24540   0.00000  Uiso   1.00
H29    H     0.32519   0.24920   0.19477   0.00000  Uiso   1.00
H30    H     0.00809   0.25247   0.30507   0.00000  Uiso   1.00
H31    H     0.16676   0.01820   0.31632   0.00000  Uiso   1.00
H32    H     0.12771   0.47931   0.19046   0.00000  Uiso   1.00
H33    H     0.20968   0.31245   0.03750   0.00000  Uiso   1.00
H34    H     0.09579   0.21131   0.45874   0.00000  Uiso   1.00
N35    N     0.16667   0.24999   0.12624   0.00000  Uiso   1.00
N36    N     0.16667   0.25001   0.37377   0.00000  Uiso   1.00
O37    O     0.16667   0.18454   0.28974   0.00000  Uiso   1.00
O38    O     0.16666   0.31547   0.21026   0.00000  Uiso   1.00
O39    O     0.16667   0.18453   0.21026   0.00000  Uiso   1.00
O40    O     0.16666   0.31547   0.28974   0.00000  Uiso   1.00
O41    O     0.09058   0.25000   0.28045   0.00000  Uiso   1.00
O42    O     0.24275   0.25000   0.21956   0.00000  Uiso   1.00
O43    O     0.09058   0.25000   0.20097   0.00000  Uiso   1.00
O44    O     0.24275   0.25001   0.29904   0.00000  Uiso   1.00
Zn45   Zn    0.16667   0.25001   0.30307   0.00000  Uiso   1.00
Zn46   Zn    0.16667   0.25000   0.19693   0.00000  Uiso   1.00
C47    C     0.14919   0.10228   0.33472   0.00000  Uiso   1.00
H48    H     0.16530   0.13239   0.35219   0.00000  Uiso   1.00
O49    O     0.11627   0.08020   0.35277   0.00000  Uiso   1.00
C50    C     0.09549   0.39275   0.18349   0.00000  Uiso   1.00
H51    H     0.08208   0.35828   0.18794   0.00000  Uiso   1.00
O52    O     0.07151   0.41601   0.15212   0.00000  Uiso   1.00
H53    H     0.20928   0.11979   0.18590   0.00000  Uiso   1.00
H54    H     0.23986   0.38038   0.30305   0.00000  Uiso   1.00
C55    C     0.23098   0.03407   0.17131   0.00000  Uiso   1.00
H56    H     0.24001   0.49872   0.17037   0.00000  Uiso   1.00
O57    O     0.23985   0.05859   0.13815   0.00000  Uiso   1.00
C58    C     0.27159   0.46738   0.30986   0.00000  Uiso   1.00
H59    H     0.28193   0.00285   0.30759   0.00000  Uiso   1.00
O60    O     0.29800   0.44369   0.33924   0.00000  Uiso   1.00
H61    H     0.12494   0.18571   0.03202   0.00000  Uiso   1.00
H62    H     0.24029   0.28876   0.47249   0.00000  Uiso   1.00
H63    H     0.12339   0.18865   0.11779   0.00000  Uiso   1.00
H64    H     0.23655   0.28950   0.38582   0.00000  Uiso   1.00
C65    C     0.22198   0.32003   0.13112   0.00000  Uiso   1.00
H66    H     0.23991   0.31415   0.16718   0.00000  Uiso   1.00
O67    O     0.22851   0.35695   0.11282   0.00000  Uiso   1.00
C68    C     0.08685   0.19995   0.36588   0.00000  Uiso   1.00
H69    H     0.09290   0.18684   0.33229   0.00000  Uiso   1.00
O70    O     0.04542   0.19059   0.38047   0.00000  Uiso   1.00
C71    C     0.50182   0.16352   0.25091   0.00000  Uiso   1.00
C72    C     0.49980   0.33613   0.24934   0.00000  Uiso   1.00
C73    C     0.47637   0.21443   0.05081   0.00000  Uiso   1.00
C74    C     0.54083   0.27200   0.45160   0.00000  Uiso   1.00
C75    C     0.47590   0.21566   0.10020   0.00000  Uiso   1.00
C76    C     0.53920   0.27211   0.40188   0.00000  Uiso   1.00
C77    C     0.52510   0.28406   0.10393   0.00000  Uiso   1.00
C78    C     0.46128   0.22730   0.39428   0.00000  Uiso   1.00
C79    C     0.52438   0.28460   0.05432   0.00000  Uiso   1.00
C80    C     0.46088   0.22814   0.44370   0.00000  Uiso   1.00
C81    C     0.50066   0.24946   0.02674   0.00000  Uiso   1.00
C82    C     0.50104   0.24988   0.47353   0.00000  Uiso   1.00
C83    C     0.40045   0.25011   0.23767   0.00000  Uiso   1.00
C84    C     0.59955   0.25036   0.26230   0.00000  Uiso   1.00
C85    C     0.34550   0.25021   0.23094   0.00000  Uiso   1.00
C86    C     0.65449   0.25115   0.26894   0.00000  Uiso   1.00
C87    C     0.50970   0.04103   0.28829   0.00000  Uiso   1.00
C88    C     0.48607   0.45716   0.21406   0.00000  Uiso   1.00
C89    C     0.50166   0.08674   0.29131   0.00000  Uiso   1.00
C90    C     0.47488   0.41127   0.21511   0.00000  Uiso   1.00
C91    C     0.51179   0.11538   0.25292   0.00000  Uiso   1.00
C92    C     0.50644   0.38414   0.24832   0.00000  Uiso   1.00
C93    C     0.53300   0.09776   0.21449   0.00000  Uiso   1.00
C94    C     0.54862   0.40234   0.27882   0.00000  Uiso   1.00
C95    C     0.54197   0.05205   0.21222   0.00000  Uiso   1.00
C96    C     0.55983   0.44825   0.27763   0.00000  Uiso   1.00
C97    C     0.52896   0.02384   0.24919   0.00000  Uiso   1.00
C98    C     0.52739   0.47550   0.24540   0.00000  Uiso   1.00
H99    H     0.65853   0.24920   0.19477   0.00000  Uiso   1.00
H100   H     0.34142   0.25247   0.30507   0.00000  Uiso   1.00
H101   H     0.50009   0.01820   0.31632   0.00000  Uiso   1.00
H102   H     0.46104   0.47931   0.19046   0.00000  Uiso   1.00
H103   H     0.54301   0.31245   0.03750   0.00000  Uiso   1.00
H104   H     0.42912   0.21131   0.45874   0.00000  Uiso   1.00
N105   N     0.50000   0.24999   0.12624   0.00000  Uiso   1.00
N106   N     0.50000   0.25001   0.37377   0.00000  Uiso   1.00
O107   O     0.50000   0.18454   0.28974   0.00000  Uiso   1.00
O108   O     0.50000   0.31547   0.21026   0.00000  Uiso   1.00
O109   O     0.50000   0.18453   0.21026   0.00000  Uiso   1.00
O110   O     0.50000   0.31547   0.28974   0.00000  Uiso   1.00
O111   O     0.42392   0.25000   0.28045   0.00000  Uiso   1.00
O112   O     0.57608   0.25000   0.21956   0.00000  Uiso   1.00
O113   O     0.42392   0.25000   0.20097   0.00000  Uiso   1.00
O114   O     0.57608   0.25001   0.29904   0.00000  Uiso   1.00
Zn115  Zn    0.50000   0.25001   0.30307   0.00000  Uiso   1.00
Zn116  Zn    0.50000   0.25000   0.19693   0.00000  Uiso   1.00
C117   C     0.48252   0.10228   0.33472   0.00000  Uiso   1.00
H118   H     0.49864   0.13239   0.35219   0.00000  Uiso   1.00
O119   O     0.44961   0.08020   0.35277   0.00000  Uiso   1.00
C120   C     0.42882   0.39275   0.18349   0.00000  Uiso   1.00
H121   H     0.41542   0.35828   0.18794   0.00000  Uiso   1.00
O122   O     0.40484   0.41601   0.15212   0.00000  Uiso   1.00
H123   H     0.54261   0.11979   0.18590   0.00000  Uiso   1.00
H124   H     0.57319   0.38038   0.30305   0.00000  Uiso   1.00
C125   C     0.56431   0.03407   0.17131   0.00000  Uiso   1.00
H126   H     0.57334   0.49872   0.17037   0.00000  Uiso   1.00
O127   O     0.57318   0.05859   0.13815   0.00000  Uiso   1.00
C128   C     0.60492   0.46738   0.30986   0.00000  Uiso   1.00
H129   H     0.61526   0.00285   0.30759   0.00000  Uiso   1.00
O130   O     0.63133   0.44369   0.33924   0.00000  Uiso   1.00
H131   H     0.45828   0.18571   0.03202   0.00000  Uiso   1.00
H132   H     0.57362   0.28876   0.47249   0.00000  Uiso   1.00
H133   H     0.45672   0.18865   0.11779   0.00000  Uiso   1.00
H134   H     0.56988   0.28950   0.38582   0.00000  Uiso   1.00
C135   C     0.55532   0.32003   0.13112   0.00000  Uiso   1.00
H136   H     0.57324   0.31415   0.16718   0.00000  Uiso   1.00
O137   O     0.56184   0.35695   0.11282   0.00000  Uiso   1.00
C138   C     0.42019   0.19995   0.36588   0.00000  Uiso   1.00
H139   H     0.42623   0.18684   0.33229   0.00000  Uiso   1.00
O140   O     0.37875   0.19059   0.38047   0.00000  Uiso   1.00
C141   C     0.83516   0.16352   0.25091   0.00000  Uiso   1.00
C142   C     0.83313   0.33613   0.24934   0.00000  Uiso   1.00
C143   C     0.80970   0.21443   0.05081   0.00000  Uiso   1.00
C144   C     0.87416   0.27200   0.45160   0.00000  Uiso   1.00
C145   C     0.80923   0.21566   0.10020   0.00000  Uiso   1.00
C146   C     0.87253   0.27211   0.40188   0.00000  Uiso   1.00
C147   C     0.85843   0.28406   0.10393   0.00000  Uiso   1.00
C148   C     0.79462   0.22730   0.39428   0.00000  Uiso   1.00
C149   C     0.85771   0.28460   0.05432   0.00000  Uiso   1.00
C150   C     0.79421   0.22814   0.44370   0.00000  Uiso   1.00
C151   C     0.83399   0.24946   0.02674   0.00000  Uiso   1.00
C152   C     0.83437   0.24988   0.47353   0.00000  Uiso   1.00
C153   C     0.73378   0.25011   0.23767   0.00000  Uiso   1.00
C154   C     0.93288   0.25036   0.26230   0.00000  Uiso   1.00
C155   C     0.67883   0.25021   0.23094   0.00000  Uiso   1.00
C156   C     0.98782   0.25115   0.26894   0.00000  Uiso   1.00
C157   C     0.84303   0.04103   0.28829   0.00000  Uiso   1.00
C158   C     0.81941   0.45716   0.21406   0.00000  Uiso   1.00
C159   C     0.83499   0.08674   0.29131   0.00000  Uiso   1.00
C160   C     0.80821   0.41127   0.21511   0.00000  Uiso   1.00
C161   C     0.84512   0.11538   0.25292   0.00000  Uiso   1.00
C162   C     0.83977   0.38414   0.24832   0.00000  Uiso   1.00
C163   C     0.86633   0.09776   0.21449   0.00000  Uiso   1.00
C164   C     0.88196   0.40234   0.27882   0.00000  Uiso   1.00
C165   C     0.87531   0.05205   0.21222   0.00000  Uiso   1.00
C166   C     0.89316   0.44825   0.27763   0.00000  Uiso   1.00
C167   C     0.86230   0.02384   0.24919   0.00000  Uiso   1.00
C168   C     0.86072   0.47550   0.24540   0.00000  Uiso   1.00
H169   H     0.99186   0.24920   0.19477   0.00000  Uiso   1.00
H170   H     0.67476   0.25247   0.30507   0.00000  Uiso   1.00
H171   H     0.83343   0.01820   0.31632   0.00000  Uiso   1.00
H172   H     0.79437   0.47931   0.19046   0.00000  Uiso   1.00
H173   H     0.87635   0.31245   0.03750   0.00000  Uiso   1.00
H174   H     0.76246   0.21131   0.45874   0.00000  Uiso   1.00
N175   N     0.83333   0.24999   0.12624   0.00000  Uiso   1.00
N176   N     0.83333   0.25001   0.37377   0.00000  Uiso   1.00
O177   O     0.83334   0.18454   0.28974   0.00000  Uiso   1.00
O178   O     0.83333   0.31547   0.21026   0.00000  Uiso   1.00
O179   O     0.83334   0.18453   0.21026   0.00000  Uiso   1.00
O180   O     0.83333   0.31547   0.28974   0.00000  Uiso   1.00
O181   O     0.75725   0.25000   0.28045   0.00000  Uiso   1.00
O182   O     0.90942   0.25000   0.21956   0.00000  Uiso   1.00
O183   O     0.75725   0.25000   0.20097   0.00000  Uiso   1.00
O184   O     0.90942   0.25001   0.29904   0.00000  Uiso   1.00
Zn185  Zn    0.83333   0.25001   0.30307   0.00000  Uiso   1.00
Zn186  Zn    0.83333   0.25000   0.19693   0.00000  Uiso   1.00
C187   C     0.81585   0.10228   0.33472   0.00000  Uiso   1.00
H188   H     0.83197   0.13239   0.35219   0.00000  Uiso   1.00
O189   O     0.78294   0.08020   0.35277   0.00000  Uiso   1.00
C190   C     0.76216   0.39275   0.18349   0.00000  Uiso   1.00
H191   H     0.74875   0.35828   0.18794   0.00000  Uiso   1.00
O192   O     0.73817   0.41601   0.15212   0.00000  Uiso   1.00
H193   H     0.87595   0.11979   0.18590   0.00000  Uiso   1.00
H194   H     0.90653   0.38038   0.30305   0.00000  Uiso   1.00
C195   C     0.89765   0.03407   0.17131   0.00000  Uiso   1.00
H196   H     0.90668   0.49872   0.17037   0.00000  Uiso   1.00
O197   O     0.90652   0.05859   0.13815   0.00000  Uiso   1.00
C198   C     0.93825   0.46738   0.30986   0.00000  Uiso   1.00
H199   H     0.94859   0.00285   0.30759   0.00000  Uiso   1.00
O200   O     0.96467   0.44369   0.33924   0.00000  Uiso   1.00
H201   H     0.79161   0.18571   0.03202   0.00000  Uiso   1.00
H202   H     0.90696   0.28876   0.47249   0.00000  Uiso   1.00
H203   H     0.79006   0.18865   0.11779   0.00000  Uiso   1.00
H204   H     0.90322   0.28950   0.38582   0.00000  Uiso   1.00
C205   C     0.88865   0.32003   0.13112   0.00000  Uiso   1.00
H206   H     0.90658   0.31415   0.16718   0.00000  Uiso   1.00
O207   O     0.89518   0.35695   0.11282   0.00000  Uiso   1.00
C208   C     0.75352   0.19995   0.36588   0.00000  Uiso   1.00
H209   H     0.75956   0.18684   0.33229   0.00000  Uiso   1.00
O210   O     0.71208   0.19059   0.38047   0.00000  Uiso   1.00
C211   C     0.16849   0.66352   0.25091   0.00000  Uiso   1.00
C212   C     0.16647   0.83613   0.24934   0.00000  Uiso   1.00
C213   C     0.14303   0.71443   0.05081   0.00000  Uiso   1.00
C214   C     0.20750   0.77200   0.45160   0.00000  Uiso   1.00
C215   C     0.14256   0.71566   0.10020   0.00000  Uiso   1.00
C216   C     0.20587   0.77211   0.40188   0.00000  Uiso   1.00
C217   C     0.19176   0.78406   0.10393   0.00000  Uiso   1.00
C218   C     0.12795   0.72730   0.39428   0.00000  Uiso   1.00
C219   C     0.19105   0.78460   0.05432   0.00000  Uiso   1.00
C220   C     0.12754   0.72814   0.44370   0.00000  Uiso   1.00
C221   C     0.16732   0.74946   0.02674   0.00000  Uiso   1.00
C222   C     0.16770   0.74988   0.47353   0.00000  Uiso   1.00
C223   C     0.06712   0.75011   0.23767   0.00000  Uiso   1.00
C224   C     0.26621   0.75036   0.26230   0.00000  Uiso   1.00
C225   C     0.01216   0.75021   0.23094   0.00000  Uiso   1.00
C226   C     0.32116   0.75115   0.26894   0.00000  Uiso   1.00
C227   C     0.17636   0.54103   0.28829   0.00000  Uiso   1.00
C228   C     0.15274   0.95716   0.21406   0.00000  Uiso   1.00
C229   C     0.16832   0.58674   0.29131   0.00000  Uiso   1.00
C230   C     0.14154   0.91127   0.21511   0.00000  Uiso   1.00
C231   C     0.17846   0.61538   0.25292   0.00000  Uiso   1.00
C232   C     0.17311   0.88414   0.24832   0.00000  Uiso   1.00
C233   C     0.19967   0.59776   0.21449   0.00000  Uiso   1.00
C234   C     0.21529   0.90234   0.27882   0.00000  Uiso   1.00
C235   C     0.20864   0.55205   0.21222   0.00000  Uiso   1.00
C236   C     0.22650   0.94825   0.27763   0.00000  Uiso   1.00
C237   C     0.19563   0.52384   0.24919   0.00000  Uiso   1.00
C238   C     0.19405   0.97550   0.24540   0.00000  Uiso   1.00
H239   H     0.32519   0.74920   0.19477   0.00000  Uiso   1.00
H240   H     0.00809   0.75247   0.30507   0.00000  Uiso   1.00
H241   H     0.16676   0.51820   0.31632   0.00000  Uiso   1.00
H242   H     0.12771   0.97931   0.19046   0.00000  Uiso   1.00
H243   H     0.20968   0.81245   0.03750   0.00000  Uiso   1.00
H244   H     0.09579   0.71131   0.45874   0.00000  Uiso   1.00
N245   N     0.16667   0.74999   0.12624   0.00000  Uiso   1.00
N246   N     0.16667   0.75001   0.37377   0.00000  Uiso   1.00
O247   O     0.16667   0.68454   0.28974   0.00000  Uiso   1.00
O248   O     0.16666   0.81547   0.21026   0.00000  Uiso   1.00
O249   O     0.16667   0.68453   0.21026   0.00000  Uiso   1.00
O250   O     0.16666   0.81547   0.28974   0.00000  Uiso   1.00
O251   O     0.09058   0.75000   0.28045   0.00000  Uiso   1.00
O252   O     0.24275   0.75000   0.21956   0.00000  Uiso   1.00
O253   O     0.09058   0.75000   0.20097   0.00000  Uiso   1.00
O254   O     0.24275   0.75001   0.29904   0.00000  Uiso   1.00
Zn255  Zn    0.16667   0.75001   0.30307   0.00000  Uiso   1.00
Zn256  Zn    0.16667   0.75000   0.19693   0.00000  Uiso   1.00
C257   C     0.14919   0.60228   0.33472   0.00000  Uiso   1.00
H258   H     0.16530   0.63239   0.35219   0.00000  Uiso   1.00
O259   O     0.11627   0.58020   0.35277   0.00000  Uiso   1.00
C260   C     0.09549   0.89275   0.18349   0.00000  Uiso   1.00
H261   H     0.08208   0.85828   0.18794   0.00000  Uiso   1.00
O262   O     0.07151   0.91601   0.15212   0.00000  Uiso   1.00
H263   H     0.20928   0.61979   0.18590   0.00000  Uiso   1.00
H264   H     0.23986   0.88038   0.30305   0.00000  Uiso   1.00
C265   C     0.23098   0.53407   0.17131   0.00000  Uiso   1.00
H266   H     0.24001   0.99872   0.17037   0.00000  Uiso   1.00
O267   O     0.23985   0.55859   0.13815   0.00000  Uiso   1.00
C268   C     0.27159   0.96738   0.30986   0.00000  Uiso   1.00
H269   H     0.28193   0.50285   0.30759   0.00000  Uiso   1.00
O270   O     0.29800   0.94369   0.33924   0.00000  Uiso   1.00
H271   H     0.12494   0.68571   0.03202   0.00000  Uiso   1.00
H272   H     0.24029   0.78876   0.47249   0.00000  Uiso   1.00
H273   H     0.12339   0.68865   0.11779   0.00000  Uiso   1.00
H274   H     0.23655   0.78950   0.38582   0.00000  Uiso   1.00
C275   C     0.22198   0.82003   0.13112   0.00000  Uiso   1.00
H276   H     0.23991   0.81415   0.16718   0.00000  Uiso   1.00
O277   O     0.22851   0.85695   0.11282   0.00000  Uiso   1.00
C278   C     0.08685   0.69995   0.36588   0.00000  Uiso   1.00
H279   H     0.09290   0.68684   0.33229   0.00000  Uiso   1.00
O280   O     0.04542   0.69059   0.38047   0.00000  Uiso   1.00
C281   C     0.50182   0.66352   0.25091   0.00000  Uiso   1.00
C282   C     0.49980   0.83613   0.24934   0.00000  Uiso   1.00
C283   C     0.47637   0.71443   0.05081   0.00000  Uiso   1.00
C284   C     0.54083   0.77200   0.45160   0.00000  Uiso   1.00
C285   C     0.47590   0.71566   0.10020   0.00000  Uiso   1.00
C286   C     0.53920   0.77211   0.40188   0.00000  Uiso   1.00
C287   C     0.52510   0.78406   0.10393   0.00000  Uiso   1.00
C288   C     0.46128   0.72730   0.39428   0.00000  Uiso   1.00
C289   C     0.52438   0.78460   0.05432   0.00000  Uiso   1.00
C290   C     0.46088   0.72814   0.44370   0.00000  Uiso   1.00
C291   C     0.50066   0.74946   0.02674   0.00000  Uiso   1.00
C292   C     0.50104   0.74988   0.47353   0.00000  Uiso   1.00
C293   C     0.40045   0.75011   0.23767   0.00000  Uiso   1.00
C294   C     0.59955   0.75036   0.26230   0.00000  Uiso   1.00
C295   C     0.34550   0.75021   0.23094   0.00000  Uiso   1.00
C296   C     0.65449   0.75115   0.26894   0.00000  Uiso   1.00
C297   C     0.50970   0.54103   0.28829   0.00000  Uiso   1.00
C298   C     0.48607   0.95716   0.21406   0.00000  Uiso   1.00
C299   C     0.50166   0.58674   0.29131   0.00000  Uiso   1.00
C300   C     0.47488   0.91127   0.21511   0.00000  Uiso   1.00
C301   C     0.51179   0.61538   0.25292   0.00000  Uiso   1.00
C302   C     0.50644   0.88414   0.24832   0.00000  Uiso   1.00
C303   C     0.53300   0.59776   0.21449   0.00000  Uiso   1.00
C304   C     0.54862   0.90234   0.27882   0.00000  Uiso   1.00
C305   C     0.54197   0.55205   0.21222   0.00000  Uiso   1.00
C306   C     0.55983   0.94825   0.27763   0.00000  Uiso   1.00
C307   C     0.52896   0.52384   0.24919   0.00000  Uiso   1.00
C308   C     0.52739   0.97550   0.24540   0.00000  Uiso   1.00
H309   H     0.65853   0.74920   0.19477   0.00000  Uiso   1.00
H310   H     0.34142   0.75247   0.30507   0.00000  Uiso   1.00
H311   H     0.50009   0.51820   0.31632   0.00000  Uiso   1.00
H312   H     0.46104   0.97931   0.19046   0.00000  Uiso   1.00
H313   H     0.54301   0.81245   0.03750   0.00000  Uiso   1.00
H314   H     0.42912   0.71131   0.45874   0.00000  Uiso   1.00
N315   N     0.50000   0.74999   0.12624   0.00000  Uiso   1.00
N316   N     0.50000   0.75001   0.37377   0.00000  Uiso   1.00
O317   O     0.50000   0.68454   0.28974   0.00000  Uiso   1.00
O318   O     0.50000   0.81547   0.21026   0.00000  Uiso   1.00
O319   O     0.50000   0.68453   0.21026   0.00000  Uiso   1.00
O320   O     0.50000   0.81547   0.28974   0.00000  Uiso   1.00
O321   O     0.42392   0.75000   0.28045   0.00000  Uiso   1.00
O322   O     0.57608   0.75000   0.21956   0.00000  Uiso   1.00
O323   O     0.42392   0.75000   0.20097   0.00000  Uiso   1.00
O324   O     0.57608   0.75001   0.29904   0.00000  Uiso   1.00
Zn325  Zn    0.50000   0.75001   0.30307   0.00000  Uiso   1.00
Zn326  Zn    0.50000   0.75000   0.19693   0.00000  Uiso   1.00
C327   C     0.48252   0.60228   0.33472   0.00000  Uiso   1.00
H328   H     0.49864   0.63239   0.35219   0.00000  Uiso   1.00
O329   O     0.44961   0.58020   0.35277   0.00000  Uiso   1.00
C330   C     0.42882   0.89275   0.18349   0.00000  Uiso   1.00
H331   H     0.41542   0.85828   0.18794   0.00000  Uiso   1.00
O332   O     0.40484   0.91601   0.15212   0.00000  Uiso   1.00
H333   H     0.54261   0.61979   0.18590   0.00000  Uiso   1.00
H334   H     0.57319   0.88038   0.30305   0.00000  Uiso   1.00
C335   C     0.56431   0.53407   0.17131   0.00000  Uiso   1.00
H336   H     0.57334   0.99872   0.17037   0.00000  Uiso   1.00
O337   O     0.57318   0.55859   0.13815   0.00000  Uiso   1.00
C338   C     0.60492   0.96738   0.30986   0.00000  Uiso   1.00
H339   H     0.61526   0.50285   0.30759   0.00000  Uiso   1.00
O340   O     0.63133   0.94369   0.33924   0.00000  Uiso   1.00
H341   H     0.45828   0.68571   0.03202   0.00000  Uiso   1.00
H342   H     0.57362   0.78876   0.47249   0.00000  Uiso   1.00
H343   H     0.45672   0.68865   0.11779   0.00000  Uiso   1.00
H344   H     0.56988   0.78950   0.38582   0.00000  Uiso   1.00
C345   C     0.55532   0.82003   0.13112   0.00000  Uiso   1.00
H346   H     0.57324   0.81415   0.16718   0.00000  Uiso   1.00
O347   O     0.56184   0.85695   0.11282   0.00000  Uiso   1.00
C348   C     0.42019   0.69995   0.36588   0.00000  Uiso   1.00
H349   H     0.42623   0.68684   0.33229   0.00000  Uiso   1.00
O350   O     0.37875   0.69059   0.38047   0.00000  Uiso   1.00
C351   C     0.83516   0.66352   0.25091   0.00000  Uiso   1.00
C352   C     0.83313   0.83613   0.24934   0.00000  Uiso   1.00
C353   C     0.80970   0.71443   0.05081   0.00000  Uiso   1.00
C354   C     0.87416   0.77200   0.45160   0.00000  Uiso   1.00
C355   C     0.80923   0.71566   0.10020   0.00000  Uiso   1.00
C356   C     0.87253   0.77211   0.40188   0.00000  Uiso   1.00
C357   C     0.85843   0.78406   0.10393   0.00000  Uiso   1.00
C358   C     0.79462   0.72730   0.39428   0.00000  Uiso   1.00
C359   C     0.85771   0.78460   0.05432   0.00000  Uiso   1.00
C360   C     0.79421   0.72814   0.44370   0.00000  Uiso   1.00
C361   C     0.83399   0.74946   0.02674   0.00000  Uiso   1.00
C362   C     0.83437   0.74988   0.47353   0.00000  Uiso   1.00
C363   C     0.73378   0.75011   0.23767   0.00000  Uiso   1.00
C364   C     0.93288   0.75036   0.26230   0.00000  Uiso   1.00
C365   C     0.67883   0.75021   0.23094   0.00000  Uiso   1.00
C366   C     0.98782   0.75115   0.26894   0.00000  Uiso   1.00
C367   C     0.84303   0.54103   0.28829   0.00000  Uiso   1.00
C368   C     0.81941   0.95716   0.21406   0.00000  Uiso   1.00
C369   C     0.83499   0.58674   0.29131   0.00000  Uiso   1.00
C370   C     0.80821   0.91127   0.21511   0.00000  Uiso   1.00
C371   C     0.84512   0.61538   0.25292   0.00000  Uiso   1.00
C372   C     0.83977   0.88414   0.24832   0.00000  Uiso   1.00
C373   C     0.86633   0.59776   0.21449   0.00000  Uiso   1.00
C374   C     0.88196   0.90234   0.27882   0.00000  Uiso   1.00
C375   C     0.87531   0.55205   0.21222   0.00000  Uiso   1.00
C376   C     0.89316   0.94825   0.27763   0.00000  Uiso   1.00
C377   C     0.86230   0.52384   0.24919   0.00000  Uiso   1.00
C378   C     0.86072   0.97550   0.24540   0.00000  Uiso   1.00
H379   H     0.99186   0.74920   0.19477   0.00000  Uiso   1.00
H380   H     0.67476   0.75247   0.30507   0.00000  Uiso   1.00
H381   H     0.83343   0.51820   0.31632   0.00000  Uiso   1.00
H382   H     0.79437   0.97931   0.19046   0.00000  Uiso   1.00
H383   H     0.87635   0.81245   0.03750   0.00000  Uiso   1.00
H384   H     0.76246   0.71131   0.45874   0.00000  Uiso   1.00
N385   N     0.83333   0.74999   0.12624   0.00000  Uiso   1.00
N386   N     0.83333   0.75001   0.37377   0.00000  Uiso   1.00
O387   O     0.83334   0.68454   0.28974   0.00000  Uiso   1.00
O388   O     0.83333   0.81547   0.21026   0.00000  Uiso   1.00
O389   O     0.83334   0.68453   0.21026   0.00000  Uiso   1.00
O390   O     0.83333   0.81547   0.28974   0.00000  Uiso   1.00
O391   O     0.75725   0.75000   0.28045   0.00000  Uiso   1.00
O392   O     0.90942   0.75000   0.21956   0.00000  Uiso   1.00
O393   O     0.75725   0.75000   0.20097   0.00000  Uiso   1.00
O394   O     0.90942   0.75001   0.29904   0.00000  Uiso   1.00
Zn395  Zn    0.83333   0.75001   0.30307   0.00000  Uiso   1.00
Zn396  Zn    0.83333   0.75000   0.19693   0.00000  Uiso   1.00
C397   C     0.81585   0.60228   0.33472   0.00000  Uiso   1.00
H398   H     0.83197   0.63239   0.35219   0.00000  Uiso   1.00
O399   O     0.78294   0.58020   0.35277   0.00000  Uiso   1.00
C400   C     0.76216   0.89275   0.18349   0.00000  Uiso   1.00
H401   H     0.74875   0.85828   0.18794   0.00000  Uiso   1.00
O402   O     0.73817   0.91601   0.15212   0.00000  Uiso   1.00
H403   H     0.87595   0.61979   0.18590   0.00000  Uiso   1.00
H404   H     0.90653   0.88038   0.30305   0.00000  Uiso   1.00
C405   C     0.89765   0.53407   0.17131   0.00000  Uiso   1.00
H406   H     0.90668   0.99872   0.17037   0.00000  Uiso   1.00
O407   O     0.90652   0.55859   0.13815   0.00000  Uiso   1.00
C408   C     0.93825   0.96738   0.30986   0.00000  Uiso   1.00
H409   H     0.94859   0.50285   0.30759   0.00000  Uiso   1.00
O410   O     0.96467   0.94369   0.33924   0.00000  Uiso   1.00
H411   H     0.79161   0.68571   0.03202   0.00000  Uiso   1.00
H412   H     0.90696   0.78876   0.47249   0.00000  Uiso   1.00
H413   H     0.79006   0.68865   0.11779   0.00000  Uiso   1.00
H414   H     0.90322   0.78950   0.38582   0.00000  Uiso   1.00
C415   C     0.88865   0.82003   0.13112   0.00000  Uiso   1.00
H416   H     0.90658   0.81415   0.16718   0.00000  Uiso   1.00
O417   O     0.89518   0.85695   0.11282   0.00000  Uiso   1.00
C418   C     0.75352   0.69995   0.36588   0.00000  Uiso   1.00
H419   H     0.75956   0.68684   0.33229   0.00000  Uiso   1.00
O420   O     0.71208   0.69059   0.38047   0.00000  Uiso   1.00
C421   C     0.16849   0.16352   0.75091   0.00000  Uiso   1.00
C422   C     0.16647   0.33613   0.74934   0.00000  Uiso   1.00
C423   C     0.14303   0.21443   0.55081   0.00000  Uiso   1.00
C424   C     0.20750   0.27200   0.95160   0.00000  Uiso   1.00
C425   C     0.14256   0.21566   0.60020   0.00000  Uiso   1.00
C426   C     0.20587   0.27211   0.90188   0.00000  Uiso   1.00
C427   C     0.19176   0.28406   0.60393   0.00000  Uiso   1.00
C428   C     0.12795   0.22730   0.89428   0.00000  Uiso   1.00
C429   C     0.19105   0.28460   0.55432   0.00000  Uiso   1.00
C430   C     0.12754   0.22814   0.94370   0.00000  Uiso   1.00
C431   C     0.16732   0.24946   0.52674   0.00000  Uiso   1.00
C432   C     0.16770   0.24988   0.97353   0.00000  Uiso   1.00
C433   C     0.06712   0.25011   0.73767   0.00000  Uiso   1.00
C434   C     0.26621   0.25036   0.76230   0.00000  Uiso   1.00
C435   C     0.01216   0.25021   0.73094   0.00000  Uiso   1.00
C436   C     0.32116   0.25115   0.76894   0.00000  Uiso   1.00
C437   C     0.17636   0.04103   0.78829   0.00000  Uiso   1.00
C438   C     0.15274   0.45716   0.71406   0.00000  Uiso   1.00
C439   C     0.16832   0.08674   0.79131   0.00000  Uiso   1.00
C440   C     0.14154   0.41127   0.71511   0.00000  Uiso   1.00
C441   C     0.17846   0.11538   0.75292   0.00000  Uiso   1.00
C442   C     0.17311   0.38414   0.74832   0.00000  Uiso   1.00
C443   C     0.19967   0.09776   0.71449   0.00000  Uiso   1.00
C444   C     0.21529   0.40234   0.77882   0.00000  Uiso   1.00
C445   C     0.20864   0.05205   0.71222   0.00000  Uiso   1.00
C446   C     0.22650   0.44825   0.77763   0.00000  Uiso   1.00
C447   C     0.19563   0.02384   0.74919   0.00000  Uiso   1.00
C448   C     0.19405   0.47550   0.74540   0.00000  Uiso   1.00
H449   H     0.32519   0.24920   0.69477   0.00000  Uiso   1.00
H450   H     0.00809   0.25247   0.80507   0.00000  Uiso   1.00
H451   H     0.16676   0.01820   0.81632   0.00000  Uiso   1.00
H452   H     0.12771   0.47931   0.69046   0.00000  Uiso   1.00
H453   H     0.20968   0.31245   0.53750   0.00000  Uiso   1.00
H454   H     0.09579   0.21131   0.95874   0.00000  Uiso   1.00
N455   N     0.16667   0.24999   0.62624   0.00000  Uiso   1.00
N456   N     0.16667   0.25001   0.87377   0.00000  Uiso   1.00
O457   O     0.16667   0.18454   0.78974   0.00000  Uiso   1.00
O458   O     0.16666   0.31547   0.71026   0.00000  Uiso   1.00
O459   O     0.16667   0.18453   0.71026   0.00000  Uiso   1.00
O460   O     0.16666   0.31547   0.78974   0.00000  Uiso   1.00
O461   O     0.09058   0.25000   0.78045   0.00000  Uiso   1.00
O462   O     0.24275   0.25000   0.71956   0.00000  Uiso   1.00
O463   O     0.09058   0.25000   0.70097   0.00000  Uiso   1.00
O464   O     0.24275   0.25001   0.79904   0.00000  Uiso   1.00
Zn465  Zn    0.16667   0.25001   0.80307   0.00000  Uiso   1.00
Zn466  Zn    0.16667   0.25000   0.69693   0.00000  Uiso   1.00
C467   C     0.14919   0.10228   0.83472   0.00000  Uiso   1.00
H468   H     0.16530   0.13239   0.85219   0.00000  Uiso   1.00
O469   O     0.11627   0.08020   0.85277   0.00000  Uiso   1.00
C470   C     0.09549   0.39275   0.68349   0.00000  Uiso   1.00
H471   H     0.08208   0.35828   0.68794   0.00000  Uiso   1.00
O472   O     0.07151   0.41601   0.65212   0.00000  Uiso   1.00
H473   H     0.20928   0.11979   0.68590   0.00000  Uiso   1.00
H474   H     0.23986   0.38038   0.80305   0.00000  Uiso   1.00
C475   C     0.23098   0.03407   0.67131   0.00000  Uiso   1.00
H476   H     0.24001   0.49872   0.67037   0.00000  Uiso   1.00
O477   O     0.23985   0.05859   0.63815   0.00000  Uiso   1.00
C478   C     0.27159   0.46738   0.80986   0.00000  Uiso   1.00
H479   H     0.28193   0.00285   0.80759   0.00000  Uiso   1.00
O480   O     0.29800   0.44369   0.83924   0.00000  Uiso   1.00
H481   H     0.12494   0.18571   0.53202   0.00000  Uiso   1.00
H482   H     0.24029   0.28876   0.97249   0.00000  Uiso   1.00
H483   H     0.12339   0.18865   0.61779   0.00000  Uiso   1.00
H484   H     0.23655   0.28950   0.88582   0.00000  Uiso   1.00
C485   C     0.22198   0.32003   0.63112   0.00000  Uiso   1.00
H486   H     0.23991   0.31415   0.66718   0.00000  Uiso   1.00
O487   O     0.22851   0.35695   0.61282   0.00000  Uiso   1.00
C488   C     0.08685   0.19995   0.86588   0.00000  Uiso   1.00
H489   H     0.09290   0.18684   0.83229   0.00000  Uiso   1.00
O490   O     0.04542   0.19059   0.88047   0.00000  Uiso   1.00
C491   C     0.50182   0.16352   0.75091   0.00000  Uiso   1.00
C492   C     0.49980   0.33613   0.74934   0.00000  Uiso   1.00
C493   C     0.47637   0.21443   0.55081   0.00000  Uiso   1.00
C494   C     0.54083   0.27200   0.95160   0.00000  Uiso   1.00
C495   C     0.47590   0.21566   0.60020   0.00000  Uiso   1.00
C496   C     0.53920   0.27211   0.90188   0.00000  Uiso   1.00
C497   C     0.52510   0.28406   0.60393   0.00000  Uiso   1.00
C498   C     0.46128   0.22730   0.89428   0.00000  Uiso   1.00
C499   C     0.52438   0.28460   0.55432   0.00000  Uiso   1.00
C500   C     0.46088   0.22814   0.94370   0.00000  Uiso   1.00
C501   C     0.50066   0.24946   0.52674   0.00000  Uiso   1.00
C502   C     0.50104   0.24988   0.97353   0.00000  Uiso   1.00
C503   C     0.40045   0.25011   0.73767   0.00000  Uiso   1.00
C504   C     0.59955   0.25036   0.76230   0.00000  Uiso   1.00
C505   C     0.34550   0.25021   0.73094   0.00000  Uiso   1.00
C506   C     0.65449   0.25115   0.76894   0.00000  Uiso   1.00
C507   C     0.50970   0.04103   0.78829   0.00000  Uiso   1.00
C508   C     0.48607   0.45716   0.71406   0.00000  Uiso   1.00
C509   C     0.50166   0.08674   0.79131   0.00000  Uiso   1.00
C510   C     0.47488   0.41127   0.71511   0.00000  Uiso   1.00
C511   C     0.51179   0.11538   0.75292   0.00000  Uiso   1.00
C512   C     0.50644   0.38414   0.74832   0.00000  Uiso   1.00
C513   C     0.53300   0.09776   0.71449   0.00000  Uiso   1.00
C514   C     0.54862   0.40234   0.77882   0.00000  Uiso   1.00
C515   C     0.54197   0.05205   0.71222   0.00000  Uiso   1.00
C516   C     0.55983   0.44825   0.77763   0.00000  Uiso   1.00
C517   C     0.52896   0.02384   0.74919   0.00000  Uiso   1.00
C518   C     0.52739   0.47550   0.74540   0.00000  Uiso   1.00
H519   H     0.65853   0.24920   0.69477   0.00000  Uiso   1.00
H520   H     0.34142   0.25247   0.80507   0.00000  Uiso   1.00
H521   H     0.50009   0.01820   0.81632   0.00000  Uiso   1.00
H522   H     0.46104   0.47931   0.69046   0.00000  Uiso   1.00
H523   H     0.54301   0.31245   0.53750   0.00000  Uiso   1.00
H524   H     0.42912   0.21131   0.95874   0.00000  Uiso   1.00
N525   N     0.50000   0.24999   0.62624   0.00000  Uiso   1.00
N526   N     0.50000   0.25001   0.87377   0.00000  Uiso   1.00
O527   O     0.50000   0.18454   0.78974   0.00000  Uiso   1.00
O528   O     0.50000   0.31547   0.71026   0.00000  Uiso   1.00
O529   O     0.50000   0.18453   0.71026   0.00000  Uiso   1.00
O530   O     0.50000   0.31547   0.78974   0.00000  Uiso   1.00
O531   O     0.42392   0.25000   0.78045   0.00000  Uiso   1.00
O532   O     0.57608   0.25000   0.71956   0.00000  Uiso   1.00
O533   O     0.42392   0.25000   0.70097   0.00000  Uiso   1.00
O534   O     0.57608   0.25001   0.79904   0.00000  Uiso   1.00
Zn535  Zn    0.50000   0.25001   0.80307   0.00000  Uiso   1.00
Zn536  Zn    0.50000   0.25000   0.69693   0.00000  Uiso   1.00
C537   C     0.48252   0.10228   0.83472   0.00000  Uiso   1.00
H538   H     0.49864   0.13239   0.85219   0.00000  Uiso   1.00
O539   O     0.44961   0.08020   0.85277   0.00000  Uiso   1.00
C540   C     0.42882   0.39275   0.68349   0.00000  Uiso   1.00
H541   H     0.41542   0.35828   0.68794   0.00000  Uiso   1.00
O542   O     0.40484   0.41601   0.65212   0.00000  Uiso   1.00
H543   H     0.54261   0.11979   0.68590   0.00000  Uiso   1.00
H544   H     0.57319   0.38038   0.80305   0.00000  Uiso   1.00
C545   C     0.56431   0.03407   0.67131   0.00000  Uiso   1.00
H546   H     0.57334   0.49872   0.67037   0.00000  Uiso   1.00
O547   O     0.57318   0.05859   0.63815   0.00000  Uiso   1.00
C548   C     0.60492   0.46738   0.80986   0.00000  Uiso   1.00
H549   H     0.61526   0.00285   0.80759   0.00000  Uiso   1.00
O550   O     0.63133   0.44369   0.83924   0.00000  Uiso   1.00
H551   H     0.45828   0.18571   0.53202   0.00000  Uiso   1.00
H552   H     0.57362   0.28876   0.97249   0.00000  Uiso   1.00
H553   H     0.45672   0.18865   0.61779   0.00000  Uiso   1.00
H554   H     0.56988   0.28950   0.88582   0.00000  Uiso   1.00
C555   C     0.55532   0.32003   0.63112   0.00000  Uiso   1.00
H556   H     0.57324   0.31415   0.66718   0.00000  Uiso   1.00
O557   O     0.56184   0.35695   0.61282   0.00000  Uiso   1.00
C558   C     0.42019   0.19995   0.86588   0.00000  Uiso   1.00
H559   H     0.42623   0.18684   0.83229   0.00000  Uiso   1.00
O560   O     0.37875   0.19059   0.88047   0.00000  Uiso   1.00
C561   C     0.83516   0.16352   0.75091   0.00000  Uiso   1.00
C562   C     0.83313   0.33613   0.74934   0.00000  Uiso   1.00
C563   C     0.80970   0.21443   0.55081   0.00000  Uiso   1.00
C564   C     0.87416   0.27200   0.95160   0.00000  Uiso   1.00
C565   C     0.80923   0.21566   0.60020   0.00000  Uiso   1.00
C566   C     0.87253   0.27211   0.90188   0.00000  Uiso   1.00
C567   C     0.85843   0.28406   0.60393   0.00000  Uiso   1.00
C568   C     0.79462   0.22730   0.89428   0.00000  Uiso   1.00
C569   C     0.85771   0.28460   0.55432   0.00000  Uiso   1.00
C570   C     0.79421   0.22814   0.94370   0.00000  Uiso   1.00
C571   C     0.83399   0.24946   0.52674   0.00000  Uiso   1.00
C572   C     0.83437   0.24988   0.97353   0.00000  Uiso   1.00
C573   C     0.73378   0.25011   0.73767   0.00000  Uiso   1.00
C574   C     0.93288   0.25036   0.76230   0.00000  Uiso   1.00
C575   C     0.67883   0.25021   0.73094   0.00000  Uiso   1.00
C576   C     0.98782   0.25115   0.76894   0.00000  Uiso   1.00
C577   C     0.84303   0.04103   0.78829   0.00000  Uiso   1.00
C578   C     0.81941   0.45716   0.71406   0.00000  Uiso   1.00
C579   C     0.83499   0.08674   0.79131   0.00000  Uiso   1.00
C580   C     0.80821   0.41127   0.71511   0.00000  Uiso   1.00
C581   C     0.84512   0.11538   0.75292   0.00000  Uiso   1.00
C582   C     0.83977   0.38414   0.74832   0.00000  Uiso   1.00
C583   C     0.86633   0.09776   0.71449   0.00000  Uiso   1.00
C584   C     0.88196   0.40234   0.77882   0.00000  Uiso   1.00
C585   C     0.87531   0.05205   0.71222   0.00000  Uiso   1.00
C586   C     0.89316   0.44825   0.77763   0.00000  Uiso   1.00
C587   C     0.86230   0.02384   0.74919   0.00000  Uiso   1.00
C588   C     0.86072   0.47550   0.74540   0.00000  Uiso   1.00
H589   H     0.99186   0.24920   0.69477   0.00000  Uiso   1.00
H590   H     0.67476   0.25247   0.80507   0.00000  Uiso   1.00
H591   H     0.83343   0.01820   0.81632   0.00000  Uiso   1.00
H592   H     0.79437   0.47931   0.69046   0.00000  Uiso   1.00
H593   H     0.87635   0.31245   0.53750   0.00000  Uiso   1.00
H594   H     0.76246   0.21131   0.95874   0.00000  Uiso   1.00
N595   N     0.83333   0.24999   0.62624   0.00000  Uiso   1.00
N596   N     0.83333   0.25001   0.87377   0.00000  Uiso   1.00
O597   O     0.83334   0.18454   0.78974   0.00000  Uiso   1.00
O598   O     0.83333   0.31547   0.71026   0.00000  Uiso   1.00
O599   O     0.83334   0.18453   0.71026   0.00000  Uiso   1.00
O600   O     0.83333   0.31547   0.78974   0.00000  Uiso   1.00
O601   O     0.75725   0.25000   0.78045   0.00000  Uiso   1.00
O602   O     0.90942   0.25000   0.71956   0.00000  Uiso   1.00
O603   O     0.75725   0.25000   0.70097   0.00000  Uiso   1.00
O604   O     0.90942   0.25001   0.79904   0.00000  Uiso   1.00
Zn605  Zn    0.83333   0.25001   0.80307   0.00000  Uiso   1.00
Zn606  Zn    0.83333   0.25000   0.69693   0.00000  Uiso   1.00
C607   C     0.81585   0.10228   0.83472   0.00000  Uiso   1.00
H608   H     0.83197   0.13239   0.85219   0.00000  Uiso   1.00
O609   O     0.78294   0.08020   0.85277   0.00000  Uiso   1.00
C610   C     0.76216   0.39275   0.68349   0.00000  Uiso   1.00
H611   H     0.74875   0.35828   0.68794   0.00000  Uiso   1.00
O612   O     0.73817   0.41601   0.65212   0.00000  Uiso   1.00
H613   H     0.87595   0.11979   0.68590   0.00000  Uiso   1.00
H614   H     0.90653   0.38038   0.80305   0.00000  Uiso   1.00
C615   C     0.89765   0.03407   0.67131   0.00000  Uiso   1.00
H616   H     0.90668   0.49872   0.67037   0.00000  Uiso   1.00
O617   O     0.90652   0.05859   0.63815   0.00000  Uiso   1.00
C618   C     0.93825   0.46738   0.80986   0.00000  Uiso   1.00
H619   H     0.94859   0.00285   0.80759   0.00000  Uiso   1.00
O620   O     0.96467   0.44369   0.83924   0.00000  Uiso   1.00
H621   H     0.79161   0.18571   0.53202   0.00000  Uiso   1.00
H622   H     0.90696   0.28876   0.97249   0.00000  Uiso   1.00
H623   H     0.79006   0.18865   0.61779   0.00000  Uiso   1.00
H624   H     0.90322   0.28950   0.88582   0.00000  Uiso   1.00
C625   C     0.88865   0.32003   0.63112   0.00000  Uiso   1.00
H626   H     0.90658   0.31415   0.66718   0.00000  Uiso   1.00
O627   O     0.89518   0.35695   0.61282   0.00000  Uiso   1.00
C628   C     0.75352   0.19995   0.86588   0.00000  Uiso   1.00
H629   H     0.75956   0.18684   0.83229   0.00000  Uiso   1.00
O630   O     0.71208   0.19059   0.88047   0.00000  Uiso   1.00
C631   C     0.16849   0.66352   0.75091   0.00000  Uiso   1.00
C632   C     0.16647   0.83613   0.74934   0.00000  Uiso   1.00
C633   C     0.14303   0.71443   0.55081   0.00000  Uiso   1.00
C634   C     0.20750   0.77200   0.95160   0.00000  Uiso   1.00
C635   C     0.14256   0.71566   0.60020   0.00000  Uiso   1.00
C636   C     0.20587   0.77211   0.90188   0.00000  Uiso   1.00
C637   C     0.19176   0.78406   0.60393   0.00000  Uiso   1.00
C638   C     0.12795   0.72730   0.89428   0.00000  Uiso   1.00
C639   C     0.19105   0.78460   0.55432   0.00000  Uiso   1.00
C640   C     0.12754   0.72814   0.94370   0.00000  Uiso   1.00
C641   C     0.16732   0.74946   0.52674   0.00000  Uiso   1.00
C642   C     0.16770   0.74988   0.97353   0.00000  Uiso   1.00
C643   C     0.06712   0.75011   0.73767   0.00000  Uiso   1.00
C644   C     0.26621   0.75036   0.76230   0.00000  Uiso   1.00
C645   C     0.01216   0.75021   0.73094   0.00000  Uiso   1.00
C646   C     0.32116   0.75115   0.76894   0.00000  Uiso   1.00
C647   C     0.17636   0.54103   0.78829   0.00000  Uiso   1.00
C648   C     0.15274   0.95716   0.71406   0.00000  Uiso   1.00
C649   C     0.16832   0.58674   0.79131   0.00000  Uiso   1.00
C650   C     0.14154   0.91127   0.71511   0.00000  Uiso   1.00
C651   C     0.17846   0.61538   0.75292   0.00000  Uiso   1.00
C652   C     0.17311   0.88414   0.74832   0.00000  Uiso   1.00
C653   C     0.19967   0.59776   0.71449   0.00000  Uiso   1.00
C654   C     0.21529   0.90234   0.77882   0.00000  Uiso   1.00
C655   C     0.20864   0.55205   0.71222   0.00000  Uiso   1.00
C656   C     0.22650   0.94825   0.77763   0.00000  Uiso   1.00
C657   C     0.19563   0.52384   0.74919   0.00000  Uiso   1.00
C658   C     0.19405   0.97550   0.74540   0.00000  Uiso   1.00
H659   H     0.32519   0.74920   0.69477   0.00000  Uiso   1.00
H660   H     0.00809   0.75247   0.80507   0.00000  Uiso   1.00
H661   H     0.16676   0.51820   0.81632   0.00000  Uiso   1.00
H662   H     0.12771   0.97931   0.69046   0.00000  Uiso   1.00
H663   H     0.20968   0.81245   0.53750   0.00000  Uiso   1.00
H664   H     0.09579   0.71131   0.95874   0.00000  Uiso   1.00
N665   N     0.16667   0.74999   0.62624   0.00000  Uiso   1.00
N666   N     0.16667   0.75001   0.87377   0.00000  Uiso   1.00
O667   O     0.16667   0.68454   0.78974   0.00000  Uiso   1.00
O668   O     0.16666   0.81547   0.71026   0.00000  Uiso   1.00
O669   O     0.16667   0.68453   0.71026   0.00000  Uiso   1.00
O670   O     0.16666   0.81547   0.78974   0.00000  Uiso   1.00
O671   O     0.09058   0.75000   0.78045   0.00000  Uiso   1.00
O672   O     0.24275   0.75000   0.71956   0.00000  Uiso   1.00
O673   O     0.09058   0.75000   0.70097   0.00000  Uiso   1.00
O674   O     0.24275   0.75001   0.79904   0.00000  Uiso   1.00
Zn675  Zn    0.16667   0.75001   0.80307   0.00000  Uiso   1.00
Zn676  Zn    0.16667   0.75000   0.69693   0.00000  Uiso   1.00
C677   C     0.14919   0.60228   0.83472   0.00000  Uiso   1.00
H678   H     0.16530   0.63239   0.85219   0.00000  Uiso   1.00
O679   O     0.11627   0.58020   0.85277   0.00000  Uiso   1.00
C680   C     0.09549   0.89275   0.68349   0.00000  Uiso   1.00
H681   H     0.08208   0.85828   0.68794   0.00000  Uiso   1.00
O682   O     0.07151   0.91601   0.65212   0.00000  Uiso   1.00
H683   H     0.20928   0.61979   0.68590   0.00000  Uiso   1.00
H684   H     0.23986   0.88038   0.80305   0.00000  Uiso   1.00
C685   C     0.23098   0.53407   0.67131   0.00000  Uiso   1.00
H686   H     0.24001   0.99872   0.67037   0.00000  Uiso   1.00
O687   O     0.23985   0.55859   0.63815   0.00000  Uiso   1.00
C688   C     0.27159   0.96738   0.80986   0.00000  Uiso   1.00
H689   H     0.28193   0.50285   0.80759   0.00000  Uiso   1.00
O690   O     0.29800   0.94369   0.83924   0.00000  Uiso   1.00
H691   H     0.12494   0.68571   0.53202   0.00000  Uiso   1.00
H692   H     0.24029   0.78876   0.97249   0.00000  Uiso   1.00
H693   H     0.12339   0.68865   0.61779   0.00000  Uiso   1.00
H694   H     0.23655   0.78950   0.88582   0.00000  Uiso   1.00
C695   C     0.22198   0.82003   0.63112   0.00000  Uiso   1.00
H696   H     0.23991   0.81415   0.66718   0.00000  Uiso   1.00
O697   O     0.22851   0.85695   0.61282   0.00000  Uiso   1.00
C698   C     0.08685   0.69995   0.86588   0.00000  Uiso   1.00
H699   H     0.09290   0.68684   0.83229   0.00000  Uiso   1.00
O700   O     0.04542   0.69059   0.88047   0.00000  Uiso   1.00
C701   C     0.50182   0.66352   0.75091   0.00000  Uiso   1.00
C702   C     0.49980   0.83613   0.74934   0.00000  Uiso   1.00
C703   C     0.47637   0.71443   0.55081   0.00000  Uiso   1.00
C704   C     0.54083   0.77200   0.95160   0.00000  Uiso   1.00
C705   C     0.47590   0.71566   0.60020   0.00000  Uiso   1.00
C706   C     0.53920   0.77211   0.90188   0.00000  Uiso   1.00
C707   C     0.52510   0.78406   0.60393   0.00000  Uiso   1.00
C708   C     0.46128   0.72730   0.89428   0.00000  Uiso   1.00
C709   C     0.52438   0.78460   0.55432   0.00000  Uiso   1.00
C710   C     0.46088   0.72814   0.94370   0.00000  Uiso   1.00
C711   C     0.50066   0.74946   0.52674   0.00000  Uiso   1.00
C712   C     0.50104   0.74988   0.97353   0.00000  Uiso   1.00
C713   C     0.40045   0.75011   0.73767   0.00000  Uiso   1.00
C714   C     0.59955   0.75036   0.76230   0.00000  Uiso   1.00
C715   C     0.34550   0.75021   0.73094   0.00000  Uiso   1.00
C716   C     0.65449   0.75115   0.76894   0.00000  Uiso   1.00
C717   C     0.50970   0.54103   0.78829   0.00000  Uiso   1.00
C718   C     0.48607   0.95716   0.71406   0.00000  Uiso   1.00
C719   C     0.50166   0.58674   0.79131   0.00000  Uiso   1.00
C720   C     0.47488   0.91127   0.71511   0.00000  Uiso   1.00
C721   C     0.51179   0.61538   0.75292   0.00000  Uiso   1.00
C722   C     0.50644   0.88414   0.74832   0.00000  Uiso   1.00
C723   C     0.53300   0.59776   0.71449   0.00000  Uiso   1.00
C724   C     0.54862   0.90234   0.77882   0.00000  Uiso   1.00
C725   C     0.54197   0.55205   0.71222   0.00000  Uiso   1.00
C726   C     0.55983   0.94825   0.77763   0.00000  Uiso   1.00
C727   C     0.52896   0.52384   0.74919   0.00000  Uiso   1.00
C728   C     0.52739   0.97550   0.74540   0.00000  Uiso   1.00
H729   H     0.65853   0.74920   0.69477   0.00000  Uiso   1.00
H730   H     0.34142   0.75247   0.80507   0.00000  Uiso   1.00
H731   H     0.50009   0.51820   0.81632   0.00000  Uiso   1.00
H732   H     0.46104   0.97931   0.69046   0.00000  Uiso   1.00
H733   H     0.54301   0.81245   0.53750   0.00000  Uiso   1.00
H734   H     0.42912   0.71131   0.95874   0.00000  Uiso   1.00
N735   N     0.50000   0.74999   0.62624   0.00000  Uiso   1.00
N736   N     0.50000   0.75001   0.87377   0.00000  Uiso   1.00
O737   O     0.50000   0.68454   0.78974   0.00000  Uiso   1.00
O738   O     0.50000   0.81547   0.71026   0.00000  Uiso   1.00
O739   O     0.50000   0.68453   0.71026   0.00000  Uiso   1.00
O740   O     0.50000   0.81547   0.78974   0.00000  Uiso   1.00
O741   O     0.42392   0.75000   0.78045   0.00000  Uiso   1.00
O742   O     0.57608   0.75000   0.71956   0.00000  Uiso   1.00
O743   O     0.42392   0.75000   0.70097   0.00000  Uiso   1.00
O744   O     0.57608   0.75001   0.79904   0.00000  Uiso   1.00
Zn745  Zn    0.50000   0.75001   0.80307   0.00000  Uiso   1.00
Zn746  Zn    0.50000   0.75000   0.69693   0.00000  Uiso   1.00
C747   C     0.48252   0.60228   0.83472   0.00000  Uiso   1.00
H748   H     0.49864   0.63239   0.85219   0.00000  Uiso   1.00
O749   O     0.44961   0.58020   0.85277   0.00000  Uiso   1.00
C750   C     0.42882   0.89275   0.68349   0.00000  Uiso   1.00
H751   H     0.41542   0.85828   0.68794   0.00000  Uiso   1.00
O752   O     0.40484   0.91601   0.65212   0.00000  Uiso   1.00
H753   H     0.54261   0.61979   0.68590   0.00000  Uiso   1.00
H754   H     0.57319   0.88038   0.80305   0.00000  Uiso   1.00
C755   C     0.56431   0.53407   0.67131   0.00000  Uiso   1.00
H756   H     0.57334   0.99872   0.67037   0.00000  Uiso   1.00
O757   O     0.57318   0.55859   0.63815   0.00000  Uiso   1.00
C758   C     0.60492   0.96738   0.80986   0.00000  Uiso   1.00
H759   H     0.61526   0.50285   0.80759   0.00000  Uiso   1.00
O760   O     0.63133   0.94369   0.83924   0.00000  Uiso   1.00
H761   H     0.45828   0.68571   0.53202   0.00000  Uiso   1.00
H762   H     0.57362   0.78876   0.97249   0.00000  Uiso   1.00
H763   H     0.45672   0.68865   0.61779   0.00000  Uiso   1.00
H764   H     0.56988   0.78950   0.88582   0.00000  Uiso   1.00
C765   C     0.55532   0.82003   0.63112   0.00000  Uiso   1.00
H766   H     0.57324   0.81415   0.66718   0.00000  Uiso   1.00
O767   O     0.56184   0.85695   0.61282   0.00000  Uiso   1.00
C768   C     0.42019   0.69995   0.86588   0.00000  Uiso   1.00
H769   H     0.42623   0.68684   0.83229   0.00000  Uiso   1.00
O770   O     0.37875   0.69059   0.88047   0.00000  Uiso   1.00
C771   C     0.83516   0.66352   0.75091   0.00000  Uiso   1.00
C772   C     0.83313   0.83613   0.74934   0.00000  Uiso   1.00
C773   C     0.80970   0.71443   0.55081   0.00000  Uiso   1.00
C774   C     0.87416   0.77200   0.95160   0.00000  Uiso   1.00
C775   C     0.80923   0.71566   0.60020   0.00000  Uiso   1.00
C776   C     0.87253   0.77211   0.90188   0.00000  Uiso   1.00
C777   C     0.85843   0.78406   0.60393   0.00000  Uiso   1.00
C778   C     0.79462   0.72730   0.89428   0.00000  Uiso   1.00
C779   C     0.85771   0.78460   0.55432   0.00000  Uiso   1.00
C780   C     0.79421   0.72814   0.94370   0.00000  Uiso   1.00
C781   C     0.83399   0.74946   0.52674   0.00000  Uiso   1.00
C782   C     0.83437   0.74988   0.97353   0.00000  Uiso   1.00
C783   C     0.73378   0.75011   0.73767   0.00000  Uiso   1.00
C784   C     0.93288   0.75036   0.76230   0.00000  Uiso   1.00
C785   C     0.67883   0.75021   0.73094   0.00000  Uiso   1.00
C786   C     0.98782   0.75115   0.76894   0.00000  Uiso   1.00
C787   C     0.84303   0.54103   0.78829   0.00000  Uiso   1.00
C788   C     0.81941   0.95716   0.71406   0.00000  Uiso   1.00
C789   C     0.83499   0.58674   0.79131   0.00000  Uiso   1.00
C790   C     0.80821   0.91127   0.71511   0.00000  Uiso   1.00
C791   C     0.84512   0.61538   0.75292   0.00000  Uiso   1.00
C792   C     0.83977   0.88414   0.74832   0.00000  Uiso   1.00
C793   C     0.86633   0.59776   0.71449   0.00000  Uiso   1.00
C794   C     0.88196   0.90234   0.77882   0.00000  Uiso   1.00
C795   C     0.87531   0.55205   0.71222   0.00000  Uiso   1.00
C796   C     0.89316   0.94825   0.77763   0.00000  Uiso   1.00
C797   C     0.86230   0.52384   0.74919   0.00000  Uiso   1.00
C798   C     0.86072   0.97550   0.74540   0.00000  Uiso   1.00
H799   H     0.99186   0.74920   0.69477   0.00000  Uiso   1.00
H800   H     0.67476   0.75247   0.80507   0.00000  Uiso   1.00
H801   H     0.83343   0.51820   0.81632   0.00000  Uiso   1.00
H802   H     0.79437   0.97931   0.69046   0.00000  Uiso   1.00
H803   H     0.87635   0.81245   0.53750   0.00000  Uiso   1.00
H804   H     0.76246   0.71131   0.95874   0.00000  Uiso   1.00
N805   N     0.83333   0.74999   0.62624   0.00000  Uiso   1.00
N806   N     0.83333   0.75001   0.87377   0.00000  Uiso   1.00
O807   O     0.83334   0.68454   0.78974   0.00000  Uiso   1.00
O808   O     0.83333   0.81547   0.71026   0.00000  Uiso   1.00
O809   O     0.83334   0.68453   0.71026   0.00000  Uiso   1.00
O810   O     0.83333   0.81547   0.78974   0.00000  Uiso   1.00
O811   O     0.75725   0.75000   0.78045   0.00000  Uiso   1.00
O812   O     0.90942   0.75000   0.71956   0.00000  Uiso   1.00
O813   O     0.75725   0.75000   0.70097   0.00000  Uiso   1.00
O814   O     0.90942   0.75001   0.79904   0.00000  Uiso   1.00
Zn815  Zn    0.83333   0.75001   0.80307   0.00000  Uiso   1.00
Zn816  Zn    0.83333   0.75000   0.69693   0.00000  Uiso   1.00
C817   C     0.81585   0.60228   0.83472   0.00000  Uiso   1.00
H818   H     0.83197   0.63239   0.85219   0.00000  Uiso   1.00
O819   O     0.78294   0.58020   0.85277   0.00000  Uiso   1.00
C820   C     0.76216   0.89275   0.68349   0.00000  Uiso   1.00
H821   H     0.74875   0.85828   0.68794   0.00000  Uiso   1.00
O822   O     0.73817   0.91601   0.65212   0.00000  Uiso   1.00
H823   H     0.87595   0.61979   0.68590   0.00000  Uiso   1.00
H824   H     0.90653   0.88038   0.80305   0.00000  Uiso   1.00
C825   C     0.89765   0.53407   0.67131   0.00000  Uiso   1.00
H826   H     0.90668   0.99872   0.67037   0.00000  Uiso   1.00
O827   O     0.90652   0.55859   0.63815   0.00000  Uiso   1.00
C828   C     0.93825   0.96738   0.80986   0.00000  Uiso   1.00
H829   H     0.94859   0.50285   0.80759   0.00000  Uiso   1.00
O830   O     0.96467   0.94369   0.83924   0.00000  Uiso   1.00
H831   H     0.79161   0.68571   0.53202   0.00000  Uiso   1.00
H832   H     0.90696   0.78876   0.97249   0.00000  Uiso   1.00
H833   H     0.79006   0.68865   0.61779   0.00000  Uiso   1.00
H834   H     0.90322   0.78950   0.88582   0.00000  Uiso   1.00
C835   C     0.88865   0.82003   0.63112   0.00000  Uiso   1.00
H836   H     0.90658   0.81415   0.66718   0.00000  Uiso   1.00
O837   O     0.89518   0.85695   0.61282   0.00000  Uiso   1.00
C838   C     0.75352   0.69995   0.86588   0.00000  Uiso   1.00
H839   H     0.75956   0.68684   0.83229   0.00000  Uiso   1.00
O840   O     0.71208   0.69059   0.88047   0.00000  Uiso   1.00
loop_
_geom_bond_atom_site_label_1
_geom_bond_atom_site_label_2
_geom_bond_distance
_geom_bond_site_symmetry_2
_ccdc_geom_bond_type
C1     C21     1.460   .     S
C1     O37     1.292   .     A
C1     O39     1.297   .     A
C2     C22     1.435   .     S
C2     O38     1.286   .     A
C2     O40     1.289   .     A
C3     C11     1.414   .     A
C3     C5      1.409   .     A
C3     H61     1.081   .     S
C4     H62     1.081   .     S
C4     C6      1.411   .     A
C4     C12     1.414   .     A
C5     N35     1.363   .     A
C5     H63     1.082   .     S
C6     N36     1.364   .     A
C6     H64     1.082   .     S
C7     C65     1.478   .     S
C7     N35     1.378   .     A
C7     C9      1.410   .     A
C8     C68     1.479   .     S
C8     N36     1.379   .     A
C8     C10     1.410   .     A
C9     C11     1.400   .     A
C9     H33     1.082   .     S
C10    H34     1.082   .     S
C10    C12     1.400   .     A
C11    C432    1.516   1_554 S
C12    C431    1.516   .     S
C13    O41     1.281   .     A
C13    C15     1.401   .     S
C13    O43     1.279   .     A
C14    O44     1.279   .     A
C14    O42     1.281   .     A
C14    C16     1.400   .     S
C15    C156    1.326   1_455 S
C15    H169    1.088   1_455 S
C16    C85     1.326   .     S
C16    H100    1.087   .     S
C17    H31     1.086   .     S
C17    C27     1.395   .     A
C17    C19     1.388   .     A
C18    H32     1.085   .     S
C18    C20     1.390   .     A
C18    C28     1.398   .     A
C19    C21     1.418   .     A
C19    C47     1.483   .     S
C20    C50     1.488   .     S
C20    C22     1.408   .     A
C21    C23     1.408   .     A
C22    C24     1.399   .     A
C23    H53     1.084   .     S
C23    C25     1.390   .     A
C24    C26     1.390   .     A
C24    H54     1.085   .     S
C25    C55     1.487   .     S
C25    C27     1.401   .     A
C26    C28     1.406   .     A
C26    C58     1.486   .     S
C27    C238    1.445   1_545 S
C28    C237    1.445   .     S
H29    C85     1.088   .     S
H30    C156    1.087   1_455 S
N35    Zn46    2.013   .     S
N36    Zn45    2.013   .     S
O37    Zn45    1.995   .     S
O38    Zn46    1.995   .     S
O39    Zn46    1.975   .     S
O40    Zn45    1.975   .     S
O41    Zn45    1.974   .     S
O42    Zn46    1.974   .     S
O43    Zn46    1.978   .     S
O44    Zn45    1.978   .     S
C47    H48     1.082   .     S
C47    O49     1.221   .     D
C50    O52     1.221   .     D
C50    H51     1.084   .     S
C55    O57     1.221   .     D
C55    H266    1.085   1_545 S
H56    C265    1.085   .     S
C58    O60     1.221   .     D
C58    H269    1.085   .     S
H59    C268    1.085   1_545 S
C65    H66     1.077   .     S
C65    O67     1.222   .     D
C68    O70     1.222   .     D
C68    H69     1.075   .     S
C71    C91     1.460   .     S
C71    O107    1.292   .     A
C71    O109    1.297   .     A
C72    C92     1.435   .     S
C72    O108    1.286   .     A
C72    O110    1.289   .     A
C73    C81     1.414   .     A
C73    C75     1.409   .     A
C73    H131    1.081   .     S
C74    H132    1.081   .     S
C74    C76     1.411   .     A
C74    C82     1.414   .     A
C75    N105    1.363   .     A
C75    H133    1.082   .     S
C76    N106    1.364   .     A
C76    H134    1.082   .     S
C77    C135    1.478   .     S
C77    N105    1.378   .     A
C77    C79     1.410   .     A
C78    C138    1.479   .     S
C78    N106    1.379   .     A
C78    C80     1.410   .     A
C79    C81     1.400   .     A
C79    H103    1.082   .     S
C80    H104    1.082   .     S
C80    C82     1.400   .     A
C81    C502    1.516   1_554 S
C82    C501    1.516   .     S
C83    O111    1.281   .     A
C83    C85     1.401   .     S
C83    O113    1.279   .     A
C84    O114    1.279   .     A
C84    O112    1.281   .     A
C84    C86     1.400   .     S
C86    C155    1.326   .     S
C86    H170    1.087   .     S
C87    H101    1.086   .     S
C87    C97     1.395   .     A
C87    C89     1.388   .     A
C88    H102    1.085   .     S
C88    C90     1.390   .     A
C88    C98     1.398   .     A
C89    C91     1.418   .     A
C89    C117    1.483   .     S
C90    C120    1.488   .     S
C90    C92     1.408   .     A
C91    C93     1.408   .     A
C92    C94     1.399   .     A
C93    H123    1.084   .     S
C93    C95     1.390   .     A
C94    C96     1.390   .     A
C94    H124    1.085   .     S
C95    C125    1.487   .     S
C95    C97     1.401   .     A
C96    C98     1.406   .     A
C96    C128    1.486   .     S
C97    C308    1.445   1_545 S
C98    C307    1.445   .     S
H99    C155    1.088   .     S
N105   Zn116   2.013   .     S
N106   Zn115   2.013   .     S
O107   Zn115   1.995   .     S
O108   Zn116   1.995   .     S
O109   Zn116   1.975   .     S
O110   Zn115   1.975   .     S
O111   Zn115   1.974   .     S
O112   Zn116   1.974   .     S
O113   Zn116   1.978   .     S
O114   Zn115   1.978   .     S
C117   H118    1.082   .     S
C117   O119    1.221   .     D
C120   O122    1.221   .     D
C120   H121    1.084   .     S
C125   O127    1.221   .     D
C125   H336    1.085   1_545 S
H126   C335    1.085   .     S
C128   O130    1.221   .     D
C128   H339    1.085   .     S
H129   C338    1.085   1_545 S
C135   H136    1.077   .     S
C135   O137    1.222   .     D
C138   O140    1.222   .     D
C138   H139    1.075   .     S
C141   C161    1.460   .     S
C141   O177    1.292   .     A
C141   O179    1.297   .     A
C142   C162    1.435   .     S
C142   O178    1.286   .     A
C142   O180    1.289   .     A
C143   C151    1.414   .     A
C143   C145    1.409   .     A
C143   H201    1.081   .     S
C144   H202    1.081   .     S
C144   C146    1.411   .     A
C144   C152    1.414   .     A
C145   N175    1.363   .     A
C145   H203    1.082   .     S
C146   N176    1.364   .     A
C146   H204    1.082   .     S
C147   C205    1.478   .     S
C147   N175    1.378   .     A
C147   C149    1.410   .     A
C148   C208    1.479   .     S
C148   N176    1.379   .     A
C148   C150    1.410   .     A
C149   C151    1.400   .     A
C149   H173    1.082   .     S
C150   H174    1.082   .     S
C150   C152    1.400   .     A
C151   C572    1.516   1_554 S
C152   C571    1.516   .     S
C153   O181    1.281   .     A
C153   C155    1.401   .     S
C153   O183    1.279   .     A
C154   O184    1.279   .     A
C154   O182    1.281   .     A
C154   C156    1.400   .     S
C156   C15     1.326   1_655 S
C156   H30     1.087   1_655 S
C157   H171    1.086   .     S
C157   C167    1.395   .     A
C157   C159    1.388   .     A
C158   H172    1.085   .     S
C158   C160    1.390   .     A
C158   C168    1.398   .     A
C159   C161    1.418   .     A
C159   C187    1.483   .     S
C160   C190    1.488   .     S
C160   C162    1.408   .     A
C161   C163    1.408   .     A
C162   C164    1.399   .     A
C163   H193    1.084   .     S
C163   C165    1.390   .     A
C164   C166    1.390   .     A
C164   H194    1.085   .     S
C165   C195    1.487   .     S
C165   C167    1.401   .     A
C166   C168    1.406   .     A
C166   C198    1.486   .     S
C167   C378    1.445   1_545 S
C168   C377    1.445   .     S
H169   C15     1.088   1_655 S
N175   Zn186   2.013   .     S
N176   Zn185   2.013   .     S
O177   Zn185   1.995   .     S
O178   Zn186   1.995   .     S
O179   Zn186   1.975   .     S
O180   Zn185   1.975   .     S
O181   Zn185   1.974   .     S
O182   Zn186   1.974   .     S
O183   Zn186   1.978   .     S
O184   Zn185   1.978   .     S
C187   H188    1.082   .     S
C187   O189    1.221   .     D
C190   O192    1.221   .     D
C190   H191    1.084   .     S
C195   O197    1.221   .     D
C195   H406    1.085   1_545 S
H196   C405    1.085   .     S
C198   O200    1.221   .     D
C198   H409    1.085   .     S
H199   C408    1.085   1_545 S
C205   H206    1.077   .     S
C205   O207    1.222   .     D
C208   O210    1.222   .     D
C208   H209    1.075   .     S
C211   C231    1.460   .     S
C211   O247    1.292   .     A
C211   O249    1.297   .     A
C212   C232    1.435   .     S
C212   O248    1.286   .     A
C212   O250    1.289   .     A
C213   C221    1.414   .     A
C213   C215    1.409   .     A
C213   H271    1.081   .     S
C214   H272    1.081   .     S
C214   C216    1.411   .     A
C214   C222    1.414   .     A
C215   N245    1.363   .     A
C215   H273    1.082   .     S
C216   N246    1.364   .     A
C216   H274    1.082   .     S
C217   C275    1.478   .     S
C217   N245    1.378   .     A
C217   C219    1.410   .     A
C218   C278    1.479   .     S
C218   N246    1.379   .     A
C218   C220    1.410   .     A
C219   C221    1.400   .     A
C219   H243    1.082   .     S
C220   H244    1.082   .     S
C220   C222    1.400   .     A
C221   C642    1.516   1_554 S
C222   C641    1.516   .     S
C223   O251    1.281   .     A
C223   C225    1.401   .     S
C223   O253    1.279   .     A
C224   O254    1.279   .     A
C224   O252    1.281   .     A
C224   C226    1.400   .     S
C225   C366    1.326   1_455 S
C225   H379    1.088   1_455 S
C226   C295    1.326   .     S
C226   H310    1.087   .     S
C227   H241    1.086   .     S
C227   C237    1.395   .     A
C227   C229    1.388   .     A
C228   H242    1.085   .     S
C228   C230    1.390   .     A
C228   C238    1.398   .     A
C229   C231    1.418   .     A
C229   C257    1.483   .     S
C230   C260    1.488   .     S
C230   C232    1.408   .     A
C231   C233    1.408   .     A
C232   C234    1.399   .     A
C233   H263    1.084   .     S
C233   C235    1.390   .     A
C234   C236    1.390   .     A
C234   H264    1.085   .     S
C235   C265    1.487   .     S
C235   C237    1.401   .     A
C236   C238    1.406   .     A
C236   C268    1.486   .     S
C238   C27     1.445   1_565 S
H239   C295    1.088   .     S
H240   C366    1.087   1_455 S
N245   Zn256   2.013   .     S
N246   Zn255   2.013   .     S
O247   Zn255   1.995   .     S
O248   Zn256   1.995   .     S
O249   Zn256   1.975   .     S
O250   Zn255   1.975   .     S
O251   Zn255   1.974   .     S
O252   Zn256   1.974   .     S
O253   Zn256   1.978   .     S
O254   Zn255   1.978   .     S
C257   H258    1.082   .     S
C257   O259    1.221   .     D
C260   O262    1.221   .     D
C260   H261    1.084   .     S
C265   O267    1.221   .     D
H266   C55     1.085   1_565 S
C268   O270    1.221   .     D
C268   H59     1.085   1_565 S
C275   H276    1.077   .     S
C275   O277    1.222   .     D
C278   O280    1.222   .     D
C278   H279    1.075   .     S
C281   C301    1.460   .     S
C281   O317    1.292   .     A
C281   O319    1.297   .     A
C282   C302    1.435   .     S
C282   O318    1.286   .     A
C282   O320    1.289   .     A
C283   C291    1.414   .     A
C283   C285    1.409   .     A
C283   H341    1.081   .     S
C284   H342    1.081   .     S
C284   C286    1.411   .     A
C284   C292    1.414   .     A
C285   N315    1.363   .     A
C285   H343    1.082   .     S
C286   N316    1.364   .     A
C286   H344    1.082   .     S
C287   C345    1.478   .     S
C287   N315    1.378   .     A
C287   C289    1.410   .     A
C288   C348    1.479   .     S
C288   N316    1.379   .     A
C288   C290    1.410   .     A
C289   C291    1.400   .     A
C289   H313    1.082   .     S
C290   H314    1.082   .     S
C290   C292    1.400   .     A
C291   C712    1.516   1_554 S
C292   C711    1.516   .     S
C293   O321    1.281   .     A
C293   C295    1.401   .     S
C293   O323    1.279   .     A
C294   O324    1.279   .     A
C294   O322    1.281   .     A
C294   C296    1.400   .     S
C296   C365    1.326   .     S
C296   H380    1.087   .     S
C297   H311    1.086   .     S
C297   C307    1.395   .     A
C297   C299    1.388   .     A
C298   H312    1.085   .     S
C298   C300    1.390   .     A
C298   C308    1.398   .     A
C299   C301    1.418   .     A
C299   C327    1.483   .     S
C300   C330    1.488   .     S
C300   C302    1.408   .     A
C301   C303    1.408   .     A
C302   C304    1.399   .     A
C303   H333    1.084   .     S
C303   C305    1.390   .     A
C304   C306    1.390   .     A
C304   H334    1.085   .     S
C305   C335    1.487   .     S
C305   C307    1.401   .     A
C306   C308    1.406   .     A
C306   C338    1.486   .     S
C308   C97     1.445   1_565 S
H309   C365    1.088   .     S
N315   Zn326   2.013   .     S
N316   Zn325   2.013   .     S
O317   Zn325   1.995   .     S
O318   Zn326   1.995   .     S
O319   Zn326   1.975   .     S
O320   Zn325   1.975   .     S
O321   Zn325   1.974   .     S
O322   Zn326   1.974   .     S
O323   Zn326   1.978   .     S
O324   Zn325   1.978   .     S
C327   H328    1.082   .     S
C327   O329    1.221   .     D
C330   O332    1.221   .     D
C330   H331    1.084   .     S
C335   O337    1.221   .     D
H336   C125    1.085   1_565 S
C338   O340    1.221   .     D
C338   H129    1.085   1_565 S
C345   H346    1.077   .     S
C345   O347    1.222   .     D
C348   O350    1.222   .     D
C348   H349    1.075   .     S
C351   C371    1.460   .     S
C351   O387    1.292   .     A
C351   O389    1.297   .     A
C352   C372    1.435   .     S
C352   O388    1.286   .     A
C352   O390    1.289   .     A
C353   C361    1.414   .     A
C353   C355    1.409   .     A
C353   H411    1.081   .     S
C354   H412    1.081   .     S
C354   C356    1.411   .     A
C354   C362    1.414   .     A
C355   N385    1.363   .     A
C355   H413    1.082   .     S
C356   N386    1.364   .     A
C356   H414    1.082   .     S
C357   C415    1.478   .     S
C357   N385    1.378   .     A
C357   C359    1.410   .     A
C358   C418    1.479   .     S
C358   N386    1.379   .     A
C358   C360    1.410   .     A
C359   C361    1.400   .     A
C359   H383    1.082   .     S
C360   H384    1.082   .     S
C360   C362    1.400   .     A
C361   C782    1.516   1_554 S
C362   C781    1.516   .     S
C363   O391    1.281   .     A
C363   C365    1.401   .     S
C363   O393    1.279   .     A
C364   O394    1.279   .     A
C364   O392    1.281   .     A
C364   C366    1.400   .     S
C366   C225    1.326   1_655 S
C366   H240    1.087   1_655 S
C367   H381    1.086   .     S
C367   C377    1.395   .     A
C367   C369    1.388   .     A
C368   H382    1.085   .     S
C368   C370    1.390   .     A
C368   C378    1.398   .     A
C369   C371    1.418   .     A
C369   C397    1.483   .     S
C370   C400    1.488   .     S
C370   C372    1.408   .     A
C371   C373    1.408   .     A
C372   C374    1.399   .     A
C373   H403    1.084   .     S
C373   C375    1.390   .     A
C374   C376    1.390   .     A
C374   H404    1.085   .     S
C375   C405    1.487   .     S
C375   C377    1.401   .     A
C376   C378    1.406   .     A
C376   C408    1.486   .     S
C378   C167    1.445   1_565 S
H379   C225    1.088   1_655 S
N385   Zn396   2.013   .     S
N386   Zn395   2.013   .     S
O387   Zn395   1.995   .     S
O388   Zn396   1.995   .     S
O389   Zn396   1.975   .     S
O390   Zn395   1.975   .     S
O391   Zn395   1.974   .     S
O392   Zn396   1.974   .     S
O393   Zn396   1.978   .     S
O394   Zn395   1.978   .     S
C397   H398    1.082   .     S
C397   O399    1.221   .     D
C400   O402    1.221   .     D
C400   H401    1.084   .     S
C405   O407    1.221   .     D
H406   C195    1.085   1_565 S
C408   O410    1.221   .     D
C408   H199    1.085   1_565 S
C415   H416    1.077   .     S
C415   O417    1.222   .     D
C418   O420    1.222   .     D
C418   H419    1.075   .     S
C421   C441    1.460   .     S
C421   O457    1.292   .     A
C421   O459    1.297   .     A
C422   C442    1.435   .     S
C422   O458    1.286   .     A
C422   O460    1.289   .     A
C423   C431    1.414   .     A
C423   C425    1.409   .     A
C423   H481    1.081   .     S
C424   H482    1.081   .     S
C424   C426    1.411   .     A
C424   C432    1.414   .     A
C425   N455    1.363   .     A
C425   H483    1.082   .     S
C426   N456    1.364   .     A
C426   H484    1.082   .     S
C427   C485    1.478   .     S
C427   N455    1.378   .     A
C427   C429    1.410   .     A
C428   C488    1.479   .     S
C428   N456    1.379   .     A
C428   C430    1.410   .     A
C429   C431    1.400   .     A
C429   H453    1.082   .     S
C430   H454    1.082   .     S
C430   C432    1.400   .     A
C432   C11     1.516   1_556 S
C433   O461    1.281   .     A
C433   C435    1.401   .     S
C433   O463    1.279   .     A
C434   O464    1.279   .     A
C434   O462    1.281   .     A
C434   C436    1.400   .     S
C435   C576    1.326   1_455 S
C435   H589    1.088   1_455 S
C436   C505    1.326   .     S
C436   H520    1.087   .     S
C437   H451    1.086   .     S
C437   C447    1.395   .     A
C437   C439    1.388   .     A
C438   H452    1.085   .     S
C438   C440    1.390   .     A
C438   C448    1.398   .     A
C439   C441    1.418   .     A
C439   C467    1.483   .     S
C440   C470    1.488   .     S
C440   C442    1.408   .     A
C441   C443    1.408   .     A
C442   C444    1.399   .     A
C443   H473    1.084   .     S
C443   C445    1.390   .     A
C444   C446    1.390   .     A
C444   H474    1.085   .     S
C445   C475    1.487   .     S
C445   C447    1.401   .     A
C446   C448    1.406   .     A
C446   C478    1.486   .     S
C447   C658    1.445   1_545 S
C448   C657    1.445   .     S
H449   C505    1.088   .     S
H450   C576    1.087   1_455 S
N455   Zn466   2.013   .     S
N456   Zn465   2.013   .     S
O457   Zn465   1.995   .     S
O458   Zn466   1.995   .     S
O459   Zn466   1.975   .     S
O460   Zn465   1.975   .     S
O461   Zn465   1.974   .     S
O462   Zn466   1.974   .     S
O463   Zn466   1.978   .     S
O464   Zn465   1.978   .     S
C467   H468    1.082   .     S
C467   O469    1.221   .     D
C470   O472    1.221   .     D
C470   H471    1.084   .     S
C475   O477    1.221   .     D
C475   H686    1.085   1_545 S
H476   C685    1.085   .     S
C478   O480    1.221   .     D
C478   H689    1.085   .     S
H479   C688    1.085   1_545 S
C485   H486    1.077   .     S
C485   O487    1.222   .     D
C488   O490    1.222   .     D
C488   H489    1.075   .     S
C491   C511    1.460   .     S
C491   O527    1.292   .     A
C491   O529    1.297   .     A
C492   C512    1.435   .     S
C492   O528    1.286   .     A
C492   O530    1.289   .     A
C493   C501    1.414   .     A
C493   C495    1.409   .     A
C493   H551    1.081   .     S
C494   H552    1.081   .     S
C494   C496    1.411   .     A
C494   C502    1.414   .     A
C495   N525    1.363   .     A
C495   H553    1.082   .     S
C496   N526    1.364   .     A
C496   H554    1.082   .     S
C497   C555    1.478   .     S
C497   N525    1.378   .     A
C497   C499    1.410   .     A
C498   C558    1.479   .     S
C498   N526    1.379   .     A
C498   C500    1.410   .     A
C499   C501    1.400   .     A
C499   H523    1.082   .     S
C500   H524    1.082   .     S
C500   C502    1.400   .     A
C502   C81     1.516   1_556 S
C503   O531    1.281   .     A
C503   C505    1.401   .     S
C503   O533    1.279   .     A
C504   O534    1.279   .     A
C504   O532    1.281   .     A
C504   C506    1.400   .     S
C506   C575    1.326   .     S
C506   H590    1.087   .     S
C507   H521    1.086   .     S
C507   C517    1.395   .     A
C507   C509    1.388   .     A
C508   H522    1.085   .     S
C508   C510    1.390   .     A
C508   C518    1.398   .     A
C509   C511    1.418   .     A
C509   C537    1.483   .     S
C510   C540    1.488   .     S
C510   C512    1.408   .     A
C511   C513    1.408   .     A
C512   C514    1.399   .     A
C513   H543    1.084   .     S
C513   C515    1.390   .     A
C514   C516    1.390   .     A
C514   H544    1.085   .     S
C515   C545    1.487   .     S
C515   C517    1.401   .     A
C516   C518    1.406   .     A
C516   C548    1.486   .     S
C517   C728    1.445   1_545 S
C518   C727    1.445   .     S
H519   C575    1.088   .     S
N525   Zn536   2.013   .     S
N526   Zn535   2.013   .     S
O527   Zn535   1.995   .     S
O528   Zn536   1.995   .     S
O529   Zn536   1.975   .     S
O530   Zn535   1.975   .     S
O531   Zn535   1.974   .     S
O532   Zn536   1.974   .     S
O533   Zn536   1.978   .     S
O534   Zn535   1.978   .     S
C537   H538    1.082   .     S
C537   O539    1.221   .     D
C540   O542    1.221   .     D
C540   H541    1.084   .     S
C545   O547    1.221   .     D
C545   H756    1.085   1_545 S
H546   C755    1.085   .     S
C548   O550    1.221   .     D
C548   H759    1.085   .     S
H549   C758    1.085   1_545 S
C555   H556    1.077   .     S
C555   O557    1.222   .     D
C558   O560    1.222   .     D
C558   H559    1.075   .     S
C561   C581    1.460   .     S
C561   O597    1.292   .     A
C561   O599    1.297   .     A
C562   C582    1.435   .     S
C562   O598    1.286   .     A
C562   O600    1.289   .     A
C563   C571    1.414   .     A
C563   C565    1.409   .     A
C563   H621    1.081   .     S
C564   H622    1.081   .     S
C564   C566    1.411   .     A
C564   C572    1.414   .     A
C565   N595    1.363   .     A
C565   H623    1.082   .     S
C566   N596    1.364   .     A
C566   H624    1.082   .     S
C567   C625    1.478   .     S
C567   N595    1.378   .     A
C567   C569    1.410   .     A
C568   C628    1.479   .     S
C568   N596    1.379   .     A
C568   C570    1.410   .     A
C569   C571    1.400   .     A
C569   H593    1.082   .     S
C570   H594    1.082   .     S
C570   C572    1.400   .     A
C572   C151    1.516   1_556 S
C573   O601    1.281   .     A
C573   C575    1.401   .     S
C573   O603    1.279   .     A
C574   O604    1.279   .     A
C574   O602    1.281   .     A
C574   C576    1.400   .     S
C576   C435    1.326   1_655 S
C576   H450    1.087   1_655 S
C577   H591    1.086   .     S
C577   C587    1.395   .     A
C577   C579    1.388   .     A
C578   H592    1.085   .     S
C578   C580    1.390   .     A
C578   C588    1.398   .     A
C579   C581    1.418   .     A
C579   C607    1.483   .     S
C580   C610    1.488   .     S
C580   C582    1.408   .     A
C581   C583    1.408   .     A
C582   C584    1.399   .     A
C583   H613    1.084   .     S
C583   C585    1.390   .     A
C584   C586    1.390   .     A
C584   H614    1.085   .     S
C585   C615    1.487   .     S
C585   C587    1.401   .     A
C586   C588    1.406   .     A
C586   C618    1.486   .     S
C587   C798    1.445   1_545 S
C588   C797    1.445   .     S
H589   C435    1.088   1_655 S
N595   Zn606   2.013   .     S
N596   Zn605   2.013   .     S
O597   Zn605   1.995   .     S
O598   Zn606   1.995   .     S
O599   Zn606   1.975   .     S
O600   Zn605   1.975   .     S
O601   Zn605   1.974   .     S
O602   Zn606   1.974   .     S
O603   Zn606   1.978   .     S
O604   Zn605   1.978   .     S
C607   H608    1.082   .     S
C607   O609    1.221   .     D
C610   O612    1.221   .     D
C610   H611    1.084   .     S
C615   O617    1.221   .     D
C615   H826    1.085   1_545 S
H616   C825    1.085   .     S
C618   O620    1.221   .     D
C618   H829    1.085   .     S
H619   C828    1.085   1_545 S
C625   H626    1.077   .     S
C625   O627    1.222   .     D
C628   O630    1.222   .     D
C628   H629    1.075   .     S
C631   C651    1.460   .     S
C631   O667    1.292   .     A
C631   O669    1.297   .     A
C632   C652    1.435   .     S
C632   O668    1.286   .     A
C632   O670    1.289   .     A
C633   C641    1.414   .     A
C633   C635    1.409   .     A
C633   H691    1.081   .     S
C634   H692    1.081   .     S
C634   C636    1.411   .     A
C634   C642    1.414   .     A
C635   N665    1.363   .     A
C635   H693    1.082   .     S
C636   N666    1.364   .     A
C636   H694    1.082   .     S
C637   C695    1.478   .     S
C637   N665    1.378   .     A
C637   C639    1.410   .     A
C638   C698    1.479   .     S
C638   N666    1.379   .     A
C638   C640    1.410   .     A
C639   C641    1.400   .     A
C639   H663    1.082   .     S
C640   H664    1.082   .     S
C640   C642    1.400   .     A
C642   C221    1.516   1_556 S
C643   O671    1.281   .     A
C643   C645    1.401   .     S
C643   O673    1.279   .     A
C644   O674    1.279   .     A
C644   O672    1.281   .     A
C644   C646    1.400   .     S
C645   C786    1.326   1_455 S
C645   H799    1.088   1_455 S
C646   C715    1.326   .     S
C646   H730    1.087   .     S
C647   H661    1.086   .     S
C647   C657    1.395   .     A
C647   C649    1.388   .     A
C648   H662    1.085   .     S
C648   C650    1.390   .     A
C648   C658    1.398   .     A
C649   C651    1.418   .     A
C649   C677    1.483   .     S
C650   C680    1.488   .     S
C650   C652    1.408   .     A
C651   C653    1.408   .     A
C652   C654    1.399   .     A
C653   H683    1.084   .     S
C653   C655    1.390   .     A
C654   C656    1.390   .     A
C654   H684    1.085   .     S
C655   C685    1.487   .     S
C655   C657    1.401   .     A
C656   C658    1.406   .     A
C656   C688    1.486   .     S
C658   C447    1.445   1_565 S
H659   C715    1.088   .     S
H660   C786    1.087   1_455 S
N665   Zn676   2.013   .     S
N666   Zn675   2.013   .     S
O667   Zn675   1.995   .     S
O668   Zn676   1.995   .     S
O669   Zn676   1.975   .     S
O670   Zn675   1.975   .     S
O671   Zn675   1.974   .     S
O672   Zn676   1.974   .     S
O673   Zn676   1.978   .     S
O674   Zn675   1.978   .     S
C677   H678    1.082   .     S
C677   O679    1.221   .     D
C680   O682    1.221   .     D
C680   H681    1.084   .     S
C685   O687    1.221   .     D
H686   C475    1.085   1_565 S
C688   O690    1.221   .     D
C688   H479    1.085   1_565 S
C695   H696    1.077   .     S
C695   O697    1.222   .     D
C698   O700    1.222   .     D
C698   H699    1.075   .     S
C701   C721    1.460   .     S
C701   O737    1.292   .     A
C701   O739    1.297   .     A
C702   C722    1.435   .     S
C702   O738    1.286   .     A
C702   O740    1.289   .     A
C703   C711    1.414   .     A
C703   C705    1.409   .     A
C703   H761    1.081   .     S
C704   H762    1.081   .     S
C704   C706    1.411   .     A
C704   C712    1.414   .     A
C705   N735    1.363   .     A
C705   H763    1.082   .     S
C706   N736    1.364   .     A
C706   H764    1.082   .     S
C707   C765    1.478   .     S
C707   N735    1.378   .     A
C707   C709    1.410   .     A
C708   C768    1.479   .     S
C708   N736    1.379   .     A
C708   C710    1.410   .     A
C709   C711    1.400   .     A
C709   H733    1.082   .     S
C710   H734    1.082   .     S
C710   C712    1.400   .     A
C712   C291    1.516   1_556 S
C713   O741    1.281   .     A
C713   C715    1.401   .     S
C713   O743    1.279   .     A
C714   O744    1.279   .     A
C714   O742    1.281   .     A
C714   C716    1.400   .     S
C716   C785    1.326   .     S
C716   H800    1.087   .     S
C717   H731    1.086   .     S
C717   C727    1.395   .     A
C717   C719    1.388   .     A
C718   H732    1.085   .     S
C718   C720    1.390   .     A
C718   C728    1.398   .     A
C719   C721    1.418   .     A
C719   C747    1.483   .     S
C720   C750    1.488   .     S
C720   C722    1.408   .     A
C721   C723    1.408   .     A
C722   C724    1.399   .     A
C723   H753    1.084   .     S
C723   C725    1.390   .     A
C724   C726    1.390   .     A
C724   H754    1.085   .     S
C725   C755    1.487   .     S
C725   C727    1.401   .     A
C726   C728    1.406   .     A
C726   C758    1.486   .     S
C728   C517    1.445   1_565 S
H729   C785    1.088   .     S
N735   Zn746   2.013   .     S
N736   Zn745   2.013   .     S
O737   Zn745   1.995   .     S
O738   Zn746   1.995   .     S
O739   Zn746   1.975   .     S
O740   Zn745   1.975   .     S
O741   Zn745   1.974   .     S
O742   Zn746   1.974   .     S
O743   Zn746   1.978   .     S
O744   Zn745   1.978   .     S
C747   H748    1.082   .     S
C747   O749    1.221   .     D
C750   O752    1.221   .     D
C750   H751    1.084   .     S
C755   O757    1.221   .     D
H756   C545    1.085   1_565 S
C758   O760    1.221   .     D
C758   H549    1.085   1_565 S
C765   H766    1.077   .     S
C765   O767    1.222   .     D
C768   O770    1.222   .     D
C768   H769    1.075   .     S
C771   C791    1.460   .     S
C771   O807    1.292   .     A
C771   O809    1.297   .     A
C772   C792    1.435   .     S
C772   O808    1.286   .     A
C772   O810    1.289   .     A
C773   C781    1.414   .     A
C773   C775    1.409   .     A
C773   H831    1.081   .     S
C774   H832    1.081   .     S
C774   C776    1.411   .     A
C774   C782    1.414   .     A
C775   N805    1.363   .     A
C775   H833    1.082   .     S
C776   N806    1.364   .     A
C776   H834    1.082   .     S
C777   C835    1.478   .     S
C777   N805    1.378   .     A
C777   C779    1.410   .     A
C778   C838    1.479   .     S
C778   N806    1.379   .     A
C778   C780    1.410   .     A
C779   C781    1.400   .     A
C779   H803    1.082   .     S
C780   H804    1.082   .     S
C780   C782    1.400   .     A
C782   C361    1.516   1_556 S
C783   O811    1.281   .     A
C783   C785    1.401   .     S
C783   O813    1.279   .     A
C784   O814    1.279   .     A
C784   O812    1.281   .     A
C784   C786    1.400   .     S
C786   C645    1.326   1_655 S
C786   H660    1.087   1_655 S
C787   H801    1.086   .     S
C787   C797    1.395   .     A
C787   C789    1.388   .     A
C788   H802    1.085   .     S
C788   C790    1.390   .     A
C788   C798    1.398   .     A
C789   C791    1.418   .     A
C789   C817    1.483   .     S
C790   C820    1.488   .     S
C790   C792    1.408   .     A
C791   C793    1.408   .     A
C792   C794    1.399   .     A
C793   H823    1.084   .     S
C793   C795    1.390   .     A
C794   C796    1.390   .     A
C794   H824    1.085   .     S
C795   C825    1.487   .     S
C795   C797    1.401   .     A
C796   C798    1.406   .     A
C796   C828    1.486   .     S
C798   C587    1.445   1_565 S
H799   C645    1.088   1_655 S
N805   Zn816   2.013   .     S
N806   Zn815   2.013   .     S
O807   Zn815   1.995   .     S
O808   Zn816   1.995   .     S
O809   Zn816   1.975   .     S
O810   Zn815   1.975   .     S
O811   Zn815   1.974   .     S
O812   Zn816   1.974   .     S
O813   Zn816   1.978   .     S
O814   Zn815   1.978   .     S
C817   H818    1.082   .     S
C817   O819    1.221   .     D
C820   O822    1.221   .     D
C820   H821    1.084   .     S
C825   O827    1.221   .     D
H826   C615    1.085   1_565 S
C828   O830    1.221   .     D
C828   H619    1.085   1_565 S
C835   H836    1.077   .     S
C835   O837    1.222   .     D
C838   O840    1.222   .     D
C838   H839    1.075   .     S
