data_str_m1_o10_o18_pcu_sym.127
_audit_creation_date              2020-01-03
_audit_creation_method            'Materials Studio'
_symmetry_space_group_name_H-M    'P1'
_symmetry_Int_Tables_number       1
_symmetry_cell_setting            triclinic
loop_
_symmetry_equiv_pos_as_xyz
  x,y,z
_cell_length_a                    32.4822
_cell_length_b                    32.5806
_cell_length_c                    35.6174
_cell_angle_alpha                 97.7771
_cell_angle_beta                  73.1701
_cell_angle_gamma                 98.6757
loop_
_atom_site_label
_atom_site_type_symbol
_atom_site_fract_x
_atom_site_fract_y
_atom_site_fract_z
_atom_site_U_iso_or_equiv
_atom_site_adp_type
_atom_site_occupancy
C1     C     0.05252   0.15981   0.25877   0.00000  Uiso   1.00
C2     C     0.18781   0.12297   0.46213   0.00000  Uiso   1.00
C3     C     0.20840   0.10231   0.48175   0.00000  Uiso   1.00
C4     C     0.28112   0.17359   0.24120   0.00000  Uiso   1.00
C5     C     0.20311   0.11218   0.02198   0.00000  Uiso   1.00
C6     C     0.17390   0.14086   0.04337   0.00000  Uiso   1.00
C7     C     0.22668   0.09357   0.04103   0.00000  Uiso   1.00
C8     C     0.22282   0.10399   0.08123   0.00000  Uiso   1.00
C9     C     0.17429   0.15457   0.08239   0.00000  Uiso   1.00
C10    C     0.32711   0.17642   0.23773   0.00000  Uiso   1.00
C11    C     0.00712   0.15726   0.26212   0.00000  Uiso   1.00
C12    C     0.09400   0.20748   0.41986   0.00000  Uiso   1.00
C13    C     0.17814   0.32136   0.23306   0.00000  Uiso   1.00
C14    C     0.15359   0.01210   0.26192   0.00000  Uiso   1.00
C15    C     0.15543   0.05619   0.25956   0.00000  Uiso   1.00
C16    C     0.17630   0.27752   0.24006   0.00000  Uiso   1.00
C17    C     0.18829   0.14520   0.14405   0.00000  Uiso   1.00
C18    C     0.14611   0.18809   0.35618   0.00000  Uiso   1.00
C19    C     0.13384   0.19325   0.39969   0.00000  Uiso   1.00
C20    C     0.19705   0.13554   0.10158   0.00000  Uiso   1.00
C21    C     0.07927   0.20918   0.46065   0.00000  Uiso   1.00
C22    C     0.04537   0.21114   0.04515   0.00000  Uiso   1.00
C23    C     0.15949   0.18136   0.42141   0.00000  Uiso   1.00
C24    C     0.20592   0.00680   0.19509   0.00000  Uiso   1.00
C25    C     0.23116   0.31077   0.16221   0.00000  Uiso   1.00
C26    C     0.24603   0.08098   0.10162   0.00000  Uiso   1.00
C27    C     0.28880   0.10580   0.10486   0.00000  Uiso   1.00
C28    C     0.20754   0.18589   0.40530   0.00000  Uiso   1.00
C29    C     0.08514   0.16571   0.08637   0.00000  Uiso   1.00
C30    C     0.14075   0.17559   0.46201   0.00000  Uiso   1.00
C31    C     0.10209   0.19316   0.48247   0.00000  Uiso   1.00
C32    C     0.15959   0.15267   0.48250   0.00000  Uiso   1.00
C33    C     0.14712   0.15639   0.02426   0.00000  Uiso   1.00
C34    C     0.10770   0.17344   0.04474   0.00000  Uiso   1.00
C35    C     0.08578   0.19239   0.02380   0.00000  Uiso   1.00
H36    H     0.24783   0.07063   0.02463   0.00000  Uiso   1.00
H37    H     0.01515   0.26307   0.06084   0.00000  Uiso   1.00
H38    H     0.25725   0.29978   0.17129   0.00000  Uiso   1.00
H39    H     0.20908   0.28399   0.15367   0.00000  Uiso   1.00
H40    H     0.24685   0.32795   0.13586   0.00000  Uiso   1.00
H41    H     0.18430   0.02039   0.18221   0.00000  Uiso   1.00
H42    H     0.22950   0.03266   0.20280   0.00000  Uiso   1.00
H43    H     0.31086   0.11005   0.07498   0.00000  Uiso   1.00
H44    H     0.28338   0.13680   0.12145   0.00000  Uiso   1.00
H45    H     0.30454   0.08853   0.12065   0.00000  Uiso   1.00
H46    H     0.22521   0.07438   0.13143   0.00000  Uiso   1.00
H47    H     0.01687   0.19416   0.21530   0.00000  Uiso   1.00
H48    H     0.25289   0.05021   0.08497   0.00000  Uiso   1.00
H49    H     0.26076   0.16472   0.36685   0.00000  Uiso   1.00
H50    H     0.05619   0.18958   0.14134   0.00000  Uiso   1.00
H51    H     0.31803   0.13940   0.28480   0.00000  Uiso   1.00
H52    H     0.13505   0.00035   0.28977   0.00000  Uiso   1.00
H53    H     0.15712   0.18029   0.09848   0.00000  Uiso   1.00
H54    H     0.22964   0.07957   0.46510   0.00000  Uiso   1.00
H55    H     0.04858   0.22115   0.47452   0.00000  Uiso   1.00
H56    H     0.07390   0.21739   0.40404   0.00000  Uiso   1.00
H57    H     0.19260   0.11385   0.43102   0.00000  Uiso   1.00
O58    O     0.16667   0.16667   0.25000   0.00000  Uiso   1.00
O59    O     0.15693   0.12393   0.16625   0.00000  Uiso   1.00
O60    O     0.12687   0.20646   0.33749   0.00000  Uiso   1.00
O61    O     0.21088   0.17493   0.15877   0.00000  Uiso   1.00
O62    O     0.17198   0.16135   0.33749   0.00000  Uiso   1.00
O63    O     0.01320   0.18921   0.06212   0.00000  Uiso   1.00
O64    O     0.04435   0.25393   0.04549   0.00000  Uiso   1.00
O65    O     0.22928   0.21343   0.42049   0.00000  Uiso   1.00
O66    O     0.22805   0.15820   0.37446   0.00000  Uiso   1.00
O67    O     0.07890   0.13025   0.09620   0.00000  Uiso   1.00
O68    O     0.07110   0.19890   0.11416   0.00000  Uiso   1.00
O69    O     0.17849   0.08101   0.27821   0.00000  Uiso   1.00
O70    O     0.14581   0.26136   0.26767   0.00000  Uiso   1.00
O71    O     0.07452   0.13251   0.23607   0.00000  Uiso   1.00
O72    O     0.26785   0.19179   0.21806   0.00000  Uiso   1.00
O73    O     0.06990   0.18960   0.27820   0.00000  Uiso   1.00
O74    O     0.25440   0.15277   0.26768   0.00000  Uiso   1.00
O75    O     0.13800   0.06903   0.23607   0.00000  Uiso   1.00
O76    O     0.20437   0.25527   0.21806   0.00000  Uiso   1.00
Zn77   Zn    0.19244   0.14090   0.28278   0.00000  Uiso   1.00
Zn78   Zn    0.13459   0.12378   0.22258   0.00000  Uiso   1.00
Zn79   Zn    0.21166   0.19664   0.21188   0.00000  Uiso   1.00
Zn80   Zn    0.12798   0.20535   0.28277   0.00000  Uiso   1.00
C81    C     0.38586   0.15981   0.25877   0.00000  Uiso   1.00
C82    C     0.52115   0.12297   0.46213   0.00000  Uiso   1.00
C83    C     0.54173   0.10231   0.48175   0.00000  Uiso   1.00
C84    C     0.61445   0.17359   0.24120   0.00000  Uiso   1.00
C85    C     0.53644   0.11218   0.02198   0.00000  Uiso   1.00
C86    C     0.50723   0.14086   0.04337   0.00000  Uiso   1.00
C87    C     0.56001   0.09357   0.04103   0.00000  Uiso   1.00
C88    C     0.55615   0.10399   0.08123   0.00000  Uiso   1.00
C89    C     0.50763   0.15457   0.08239   0.00000  Uiso   1.00
C90    C     0.66045   0.17642   0.23773   0.00000  Uiso   1.00
C91    C     0.34045   0.15726   0.26212   0.00000  Uiso   1.00
C92    C     0.42733   0.20748   0.41986   0.00000  Uiso   1.00
C93    C     0.51148   0.32136   0.23306   0.00000  Uiso   1.00
C94    C     0.48692   0.01210   0.26192   0.00000  Uiso   1.00
C95    C     0.48876   0.05619   0.25956   0.00000  Uiso   1.00
C96    C     0.50964   0.27752   0.24006   0.00000  Uiso   1.00
C97    C     0.52162   0.14520   0.14405   0.00000  Uiso   1.00
C98    C     0.47945   0.18809   0.35618   0.00000  Uiso   1.00
C99    C     0.46717   0.19325   0.39969   0.00000  Uiso   1.00
C100   C     0.53039   0.13554   0.10158   0.00000  Uiso   1.00
C101   C     0.41260   0.20918   0.46065   0.00000  Uiso   1.00
C102   C     0.37871   0.21114   0.04515   0.00000  Uiso   1.00
C103   C     0.49282   0.18136   0.42141   0.00000  Uiso   1.00
C104   C     0.53925   0.00680   0.19509   0.00000  Uiso   1.00
C105   C     0.56450   0.31077   0.16221   0.00000  Uiso   1.00
C106   C     0.57936   0.08098   0.10162   0.00000  Uiso   1.00
C107   C     0.62213   0.10580   0.10486   0.00000  Uiso   1.00
C108   C     0.54087   0.18589   0.40530   0.00000  Uiso   1.00
C109   C     0.41847   0.16571   0.08637   0.00000  Uiso   1.00
C110   C     0.47409   0.17559   0.46201   0.00000  Uiso   1.00
C111   C     0.43542   0.19316   0.48247   0.00000  Uiso   1.00
C112   C     0.49293   0.15267   0.48250   0.00000  Uiso   1.00
C113   C     0.48045   0.15639   0.02426   0.00000  Uiso   1.00
C114   C     0.44103   0.17344   0.04474   0.00000  Uiso   1.00
C115   C     0.41911   0.19239   0.02380   0.00000  Uiso   1.00
H116   H     0.58116   0.07063   0.02463   0.00000  Uiso   1.00
H117   H     0.34849   0.26307   0.06084   0.00000  Uiso   1.00
H118   H     0.59059   0.29978   0.17129   0.00000  Uiso   1.00
H119   H     0.54242   0.28399   0.15367   0.00000  Uiso   1.00
H120   H     0.58018   0.32795   0.13586   0.00000  Uiso   1.00
H121   H     0.51764   0.02039   0.18221   0.00000  Uiso   1.00
H122   H     0.56283   0.03266   0.20280   0.00000  Uiso   1.00
H123   H     0.64419   0.11005   0.07498   0.00000  Uiso   1.00
H124   H     0.61672   0.13680   0.12145   0.00000  Uiso   1.00
H125   H     0.63787   0.08853   0.12065   0.00000  Uiso   1.00
H126   H     0.55854   0.07438   0.13143   0.00000  Uiso   1.00
H127   H     0.35020   0.19416   0.21530   0.00000  Uiso   1.00
H128   H     0.58622   0.05021   0.08497   0.00000  Uiso   1.00
H129   H     0.59409   0.16472   0.36685   0.00000  Uiso   1.00
H130   H     0.38952   0.18958   0.14134   0.00000  Uiso   1.00
H131   H     0.65136   0.13940   0.28480   0.00000  Uiso   1.00
H132   H     0.46839   0.00035   0.28977   0.00000  Uiso   1.00
H133   H     0.49046   0.18029   0.09848   0.00000  Uiso   1.00
H134   H     0.56297   0.07957   0.46510   0.00000  Uiso   1.00
H135   H     0.38192   0.22115   0.47452   0.00000  Uiso   1.00
H136   H     0.40724   0.21739   0.40404   0.00000  Uiso   1.00
H137   H     0.52594   0.11385   0.43102   0.00000  Uiso   1.00
O138   O     0.50000   0.16667   0.25000   0.00000  Uiso   1.00
O139   O     0.49027   0.12393   0.16625   0.00000  Uiso   1.00
O140   O     0.46020   0.20646   0.33749   0.00000  Uiso   1.00
O141   O     0.54421   0.17493   0.15877   0.00000  Uiso   1.00
O142   O     0.50532   0.16135   0.33749   0.00000  Uiso   1.00
O143   O     0.34653   0.18921   0.06212   0.00000  Uiso   1.00
O144   O     0.37769   0.25393   0.04549   0.00000  Uiso   1.00
O145   O     0.56261   0.21343   0.42049   0.00000  Uiso   1.00
O146   O     0.56138   0.15820   0.37446   0.00000  Uiso   1.00
O147   O     0.41223   0.13025   0.09620   0.00000  Uiso   1.00
O148   O     0.40443   0.19890   0.11416   0.00000  Uiso   1.00
O149   O     0.51182   0.08101   0.27821   0.00000  Uiso   1.00
O150   O     0.47914   0.26136   0.26767   0.00000  Uiso   1.00
O151   O     0.40785   0.13251   0.23607   0.00000  Uiso   1.00
O152   O     0.60119   0.19179   0.21806   0.00000  Uiso   1.00
O153   O     0.40323   0.18960   0.27820   0.00000  Uiso   1.00
O154   O     0.58773   0.15277   0.26768   0.00000  Uiso   1.00
O155   O     0.47133   0.06903   0.23607   0.00000  Uiso   1.00
O156   O     0.53771   0.25527   0.21806   0.00000  Uiso   1.00
Zn157  Zn    0.52577   0.14090   0.28278   0.00000  Uiso   1.00
Zn158  Zn    0.46792   0.12378   0.22258   0.00000  Uiso   1.00
Zn159  Zn    0.54500   0.19664   0.21188   0.00000  Uiso   1.00
Zn160  Zn    0.46131   0.20535   0.28277   0.00000  Uiso   1.00
C161   C     0.71919   0.15981   0.25877   0.00000  Uiso   1.00
C162   C     0.85448   0.12297   0.46213   0.00000  Uiso   1.00
C163   C     0.87506   0.10231   0.48175   0.00000  Uiso   1.00
C164   C     0.94778   0.17359   0.24120   0.00000  Uiso   1.00
C165   C     0.86977   0.11218   0.02198   0.00000  Uiso   1.00
C166   C     0.84057   0.14086   0.04337   0.00000  Uiso   1.00
C167   C     0.89335   0.09357   0.04103   0.00000  Uiso   1.00
C168   C     0.88949   0.10399   0.08123   0.00000  Uiso   1.00
C169   C     0.84096   0.15457   0.08239   0.00000  Uiso   1.00
C170   C     0.99378   0.17642   0.23773   0.00000  Uiso   1.00
C171   C     0.67379   0.15726   0.26212   0.00000  Uiso   1.00
C172   C     0.76067   0.20748   0.41986   0.00000  Uiso   1.00
C173   C     0.84481   0.32136   0.23306   0.00000  Uiso   1.00
C174   C     0.82026   0.01210   0.26192   0.00000  Uiso   1.00
C175   C     0.82210   0.05619   0.25956   0.00000  Uiso   1.00
C176   C     0.84297   0.27752   0.24006   0.00000  Uiso   1.00
C177   C     0.85496   0.14520   0.14405   0.00000  Uiso   1.00
C178   C     0.81278   0.18809   0.35618   0.00000  Uiso   1.00
C179   C     0.80051   0.19325   0.39969   0.00000  Uiso   1.00
C180   C     0.86372   0.13554   0.10158   0.00000  Uiso   1.00
C181   C     0.74593   0.20918   0.46065   0.00000  Uiso   1.00
C182   C     0.71204   0.21114   0.04515   0.00000  Uiso   1.00
C183   C     0.82616   0.18136   0.42141   0.00000  Uiso   1.00
C184   C     0.87259   0.00680   0.19509   0.00000  Uiso   1.00
C185   C     0.89783   0.31077   0.16221   0.00000  Uiso   1.00
C186   C     0.91270   0.08098   0.10162   0.00000  Uiso   1.00
C187   C     0.95547   0.10580   0.10486   0.00000  Uiso   1.00
C188   C     0.87420   0.18589   0.40530   0.00000  Uiso   1.00
C189   C     0.75181   0.16571   0.08637   0.00000  Uiso   1.00
C190   C     0.80742   0.17559   0.46201   0.00000  Uiso   1.00
C191   C     0.76875   0.19316   0.48247   0.00000  Uiso   1.00
C192   C     0.82626   0.15267   0.48250   0.00000  Uiso   1.00
C193   C     0.81378   0.15639   0.02426   0.00000  Uiso   1.00
C194   C     0.77436   0.17344   0.04474   0.00000  Uiso   1.00
C195   C     0.75244   0.19239   0.02380   0.00000  Uiso   1.00
H196   H     0.91449   0.07063   0.02463   0.00000  Uiso   1.00
H197   H     0.68182   0.26307   0.06084   0.00000  Uiso   1.00
H198   H     0.92392   0.29978   0.17129   0.00000  Uiso   1.00
H199   H     0.87575   0.28399   0.15367   0.00000  Uiso   1.00
H200   H     0.91352   0.32795   0.13586   0.00000  Uiso   1.00
H201   H     0.85097   0.02039   0.18221   0.00000  Uiso   1.00
H202   H     0.89616   0.03266   0.20280   0.00000  Uiso   1.00
H203   H     0.97752   0.11005   0.07498   0.00000  Uiso   1.00
H204   H     0.95005   0.13680   0.12145   0.00000  Uiso   1.00
H205   H     0.97121   0.08853   0.12065   0.00000  Uiso   1.00
H206   H     0.89187   0.07438   0.13143   0.00000  Uiso   1.00
H207   H     0.68354   0.19416   0.21530   0.00000  Uiso   1.00
H208   H     0.91956   0.05021   0.08497   0.00000  Uiso   1.00
H209   H     0.92742   0.16472   0.36685   0.00000  Uiso   1.00
H210   H     0.72285   0.18958   0.14134   0.00000  Uiso   1.00
H211   H     0.98470   0.13940   0.28480   0.00000  Uiso   1.00
H212   H     0.80172   0.00035   0.28977   0.00000  Uiso   1.00
H213   H     0.82379   0.18029   0.09848   0.00000  Uiso   1.00
H214   H     0.89631   0.07957   0.46510   0.00000  Uiso   1.00
H215   H     0.71525   0.22115   0.47452   0.00000  Uiso   1.00
H216   H     0.74057   0.21739   0.40404   0.00000  Uiso   1.00
H217   H     0.85927   0.11385   0.43102   0.00000  Uiso   1.00
O218   O     0.83333   0.16667   0.25000   0.00000  Uiso   1.00
O219   O     0.82360   0.12393   0.16625   0.00000  Uiso   1.00
O220   O     0.79354   0.20646   0.33749   0.00000  Uiso   1.00
O221   O     0.87755   0.17493   0.15877   0.00000  Uiso   1.00
O222   O     0.83865   0.16135   0.33749   0.00000  Uiso   1.00
O223   O     0.67986   0.18921   0.06212   0.00000  Uiso   1.00
O224   O     0.71102   0.25393   0.04549   0.00000  Uiso   1.00
O225   O     0.89594   0.21343   0.42049   0.00000  Uiso   1.00
O226   O     0.89472   0.15820   0.37446   0.00000  Uiso   1.00
O227   O     0.74556   0.13025   0.09620   0.00000  Uiso   1.00
O228   O     0.73776   0.19890   0.11416   0.00000  Uiso   1.00
O229   O     0.84515   0.08101   0.27821   0.00000  Uiso   1.00
O230   O     0.81247   0.26136   0.26767   0.00000  Uiso   1.00
O231   O     0.74119   0.13251   0.23607   0.00000  Uiso   1.00
O232   O     0.93452   0.19179   0.21806   0.00000  Uiso   1.00
O233   O     0.73656   0.18960   0.27820   0.00000  Uiso   1.00
O234   O     0.92106   0.15277   0.26768   0.00000  Uiso   1.00
O235   O     0.80467   0.06903   0.23607   0.00000  Uiso   1.00
O236   O     0.87104   0.25527   0.21806   0.00000  Uiso   1.00
Zn237  Zn    0.85910   0.14090   0.28278   0.00000  Uiso   1.00
Zn238  Zn    0.80125   0.12378   0.22258   0.00000  Uiso   1.00
Zn239  Zn    0.87833   0.19664   0.21188   0.00000  Uiso   1.00
Zn240  Zn    0.79465   0.20535   0.28277   0.00000  Uiso   1.00
C241   C     0.05252   0.49315   0.25877   0.00000  Uiso   1.00
C242   C     0.18781   0.45630   0.46213   0.00000  Uiso   1.00
C243   C     0.20840   0.43564   0.48175   0.00000  Uiso   1.00
C244   C     0.28112   0.50692   0.24120   0.00000  Uiso   1.00
C245   C     0.20311   0.44551   0.02198   0.00000  Uiso   1.00
C246   C     0.17390   0.47419   0.04337   0.00000  Uiso   1.00
C247   C     0.22668   0.42690   0.04103   0.00000  Uiso   1.00
C248   C     0.22282   0.43732   0.08123   0.00000  Uiso   1.00
C249   C     0.17429   0.48790   0.08239   0.00000  Uiso   1.00
C250   C     0.32711   0.50975   0.23773   0.00000  Uiso   1.00
C251   C     0.00712   0.49060   0.26212   0.00000  Uiso   1.00
C252   C     0.09400   0.54081   0.41986   0.00000  Uiso   1.00
C253   C     0.17814   0.65470   0.23306   0.00000  Uiso   1.00
C254   C     0.15359   0.34544   0.26192   0.00000  Uiso   1.00
C255   C     0.15543   0.38952   0.25956   0.00000  Uiso   1.00
C256   C     0.17630   0.61085   0.24006   0.00000  Uiso   1.00
C257   C     0.18829   0.47853   0.14405   0.00000  Uiso   1.00
C258   C     0.14611   0.52142   0.35618   0.00000  Uiso   1.00
C259   C     0.13384   0.52658   0.39969   0.00000  Uiso   1.00
C260   C     0.19705   0.46887   0.10158   0.00000  Uiso   1.00
C261   C     0.07927   0.54251   0.46065   0.00000  Uiso   1.00
C262   C     0.04537   0.54447   0.04515   0.00000  Uiso   1.00
C263   C     0.15949   0.51469   0.42141   0.00000  Uiso   1.00
C264   C     0.20592   0.34013   0.19509   0.00000  Uiso   1.00
C265   C     0.23116   0.64410   0.16221   0.00000  Uiso   1.00
C266   C     0.24603   0.41432   0.10162   0.00000  Uiso   1.00
C267   C     0.28880   0.43913   0.10486   0.00000  Uiso   1.00
C268   C     0.20754   0.51923   0.40530   0.00000  Uiso   1.00
C269   C     0.08514   0.49904   0.08637   0.00000  Uiso   1.00
C270   C     0.14075   0.50892   0.46201   0.00000  Uiso   1.00
C271   C     0.10209   0.52649   0.48247   0.00000  Uiso   1.00
C272   C     0.15959   0.48600   0.48250   0.00000  Uiso   1.00
C273   C     0.14712   0.48972   0.02426   0.00000  Uiso   1.00
C274   C     0.10770   0.50677   0.04474   0.00000  Uiso   1.00
C275   C     0.08578   0.52572   0.02380   0.00000  Uiso   1.00
H276   H     0.24783   0.40396   0.02463   0.00000  Uiso   1.00
H277   H     0.01515   0.59640   0.06084   0.00000  Uiso   1.00
H278   H     0.25725   0.63312   0.17129   0.00000  Uiso   1.00
H279   H     0.20908   0.61732   0.15367   0.00000  Uiso   1.00
H280   H     0.24685   0.66128   0.13586   0.00000  Uiso   1.00
H281   H     0.18430   0.35372   0.18221   0.00000  Uiso   1.00
H282   H     0.22950   0.36599   0.20280   0.00000  Uiso   1.00
H283   H     0.31086   0.44338   0.07498   0.00000  Uiso   1.00
H284   H     0.28338   0.47013   0.12145   0.00000  Uiso   1.00
H285   H     0.30454   0.42186   0.12065   0.00000  Uiso   1.00
H286   H     0.22521   0.40772   0.13143   0.00000  Uiso   1.00
H287   H     0.01687   0.52750   0.21530   0.00000  Uiso   1.00
H288   H     0.25289   0.38354   0.08497   0.00000  Uiso   1.00
H289   H     0.26076   0.49805   0.36685   0.00000  Uiso   1.00
H290   H     0.05619   0.52291   0.14134   0.00000  Uiso   1.00
H291   H     0.31803   0.47273   0.28480   0.00000  Uiso   1.00
H292   H     0.13505   0.33368   0.28977   0.00000  Uiso   1.00
H293   H     0.15712   0.51363   0.09848   0.00000  Uiso   1.00
H294   H     0.22964   0.41290   0.46510   0.00000  Uiso   1.00
H295   H     0.04858   0.55448   0.47452   0.00000  Uiso   1.00
H296   H     0.07390   0.55072   0.40404   0.00000  Uiso   1.00
H297   H     0.19260   0.44718   0.43102   0.00000  Uiso   1.00
O298   O     0.16667   0.50000   0.25000   0.00000  Uiso   1.00
O299   O     0.15693   0.45726   0.16625   0.00000  Uiso   1.00
O300   O     0.12687   0.53979   0.33749   0.00000  Uiso   1.00
O301   O     0.21088   0.50826   0.15877   0.00000  Uiso   1.00
O302   O     0.17198   0.49468   0.33749   0.00000  Uiso   1.00
O303   O     0.01320   0.52255   0.06212   0.00000  Uiso   1.00
O304   O     0.04435   0.58726   0.04549   0.00000  Uiso   1.00
O305   O     0.22928   0.54676   0.42049   0.00000  Uiso   1.00
O306   O     0.22805   0.49153   0.37446   0.00000  Uiso   1.00
O307   O     0.07890   0.46358   0.09620   0.00000  Uiso   1.00
O308   O     0.07110   0.53224   0.11416   0.00000  Uiso   1.00
O309   O     0.17849   0.41434   0.27821   0.00000  Uiso   1.00
O310   O     0.14581   0.59469   0.26767   0.00000  Uiso   1.00
O311   O     0.07452   0.46584   0.23607   0.00000  Uiso   1.00
O312   O     0.26785   0.52512   0.21806   0.00000  Uiso   1.00
O313   O     0.06990   0.52293   0.27820   0.00000  Uiso   1.00
O314   O     0.25440   0.48610   0.26768   0.00000  Uiso   1.00
O315   O     0.13800   0.40236   0.23607   0.00000  Uiso   1.00
O316   O     0.20437   0.58860   0.21806   0.00000  Uiso   1.00
Zn317  Zn    0.19244   0.47423   0.28278   0.00000  Uiso   1.00
Zn318  Zn    0.13459   0.45711   0.22258   0.00000  Uiso   1.00
Zn319  Zn    0.21166   0.52997   0.21188   0.00000  Uiso   1.00
Zn320  Zn    0.12798   0.53868   0.28277   0.00000  Uiso   1.00
C321   C     0.38586   0.49315   0.25877   0.00000  Uiso   1.00
C322   C     0.52115   0.45630   0.46213   0.00000  Uiso   1.00
C323   C     0.54173   0.43564   0.48175   0.00000  Uiso   1.00
C324   C     0.61445   0.50692   0.24120   0.00000  Uiso   1.00
C325   C     0.53644   0.44551   0.02198   0.00000  Uiso   1.00
C326   C     0.50723   0.47419   0.04337   0.00000  Uiso   1.00
C327   C     0.56001   0.42690   0.04103   0.00000  Uiso   1.00
C328   C     0.55615   0.43732   0.08123   0.00000  Uiso   1.00
C329   C     0.50763   0.48790   0.08239   0.00000  Uiso   1.00
C330   C     0.66045   0.50975   0.23773   0.00000  Uiso   1.00
C331   C     0.34045   0.49060   0.26212   0.00000  Uiso   1.00
C332   C     0.42733   0.54081   0.41986   0.00000  Uiso   1.00
C333   C     0.51148   0.65470   0.23306   0.00000  Uiso   1.00
C334   C     0.48692   0.34544   0.26192   0.00000  Uiso   1.00
C335   C     0.48876   0.38952   0.25956   0.00000  Uiso   1.00
C336   C     0.50964   0.61085   0.24006   0.00000  Uiso   1.00
C337   C     0.52162   0.47853   0.14405   0.00000  Uiso   1.00
C338   C     0.47945   0.52142   0.35618   0.00000  Uiso   1.00
C339   C     0.46717   0.52658   0.39969   0.00000  Uiso   1.00
C340   C     0.53039   0.46887   0.10158   0.00000  Uiso   1.00
C341   C     0.41260   0.54251   0.46065   0.00000  Uiso   1.00
C342   C     0.37871   0.54447   0.04515   0.00000  Uiso   1.00
C343   C     0.49282   0.51469   0.42141   0.00000  Uiso   1.00
C344   C     0.53925   0.34013   0.19509   0.00000  Uiso   1.00
C345   C     0.56450   0.64410   0.16221   0.00000  Uiso   1.00
C346   C     0.57936   0.41432   0.10162   0.00000  Uiso   1.00
C347   C     0.62213   0.43913   0.10486   0.00000  Uiso   1.00
C348   C     0.54087   0.51923   0.40530   0.00000  Uiso   1.00
C349   C     0.41847   0.49904   0.08637   0.00000  Uiso   1.00
C350   C     0.47409   0.50892   0.46201   0.00000  Uiso   1.00
C351   C     0.43542   0.52649   0.48247   0.00000  Uiso   1.00
C352   C     0.49293   0.48600   0.48250   0.00000  Uiso   1.00
C353   C     0.48045   0.48972   0.02426   0.00000  Uiso   1.00
C354   C     0.44103   0.50677   0.04474   0.00000  Uiso   1.00
C355   C     0.41911   0.52572   0.02380   0.00000  Uiso   1.00
H356   H     0.58116   0.40396   0.02463   0.00000  Uiso   1.00
H357   H     0.34849   0.59640   0.06084   0.00000  Uiso   1.00
H358   H     0.59059   0.63312   0.17129   0.00000  Uiso   1.00
H359   H     0.54242   0.61732   0.15367   0.00000  Uiso   1.00
H360   H     0.58018   0.66128   0.13586   0.00000  Uiso   1.00
H361   H     0.51764   0.35372   0.18221   0.00000  Uiso   1.00
H362   H     0.56283   0.36599   0.20280   0.00000  Uiso   1.00
H363   H     0.64419   0.44338   0.07498   0.00000  Uiso   1.00
H364   H     0.61672   0.47013   0.12145   0.00000  Uiso   1.00
H365   H     0.63787   0.42186   0.12065   0.00000  Uiso   1.00
H366   H     0.55854   0.40772   0.13143   0.00000  Uiso   1.00
H367   H     0.35020   0.52750   0.21530   0.00000  Uiso   1.00
H368   H     0.58622   0.38354   0.08497   0.00000  Uiso   1.00
H369   H     0.59409   0.49805   0.36685   0.00000  Uiso   1.00
H370   H     0.38952   0.52291   0.14134   0.00000  Uiso   1.00
H371   H     0.65136   0.47273   0.28480   0.00000  Uiso   1.00
H372   H     0.46839   0.33368   0.28977   0.00000  Uiso   1.00
H373   H     0.49046   0.51363   0.09848   0.00000  Uiso   1.00
H374   H     0.56297   0.41290   0.46510   0.00000  Uiso   1.00
H375   H     0.38192   0.55448   0.47452   0.00000  Uiso   1.00
H376   H     0.40724   0.55072   0.40404   0.00000  Uiso   1.00
H377   H     0.52594   0.44718   0.43102   0.00000  Uiso   1.00
O378   O     0.50000   0.50000   0.25000   0.00000  Uiso   1.00
O379   O     0.49027   0.45726   0.16625   0.00000  Uiso   1.00
O380   O     0.46020   0.53979   0.33749   0.00000  Uiso   1.00
O381   O     0.54421   0.50826   0.15877   0.00000  Uiso   1.00
O382   O     0.50532   0.49468   0.33749   0.00000  Uiso   1.00
O383   O     0.34653   0.52255   0.06212   0.00000  Uiso   1.00
O384   O     0.37769   0.58726   0.04549   0.00000  Uiso   1.00
O385   O     0.56261   0.54676   0.42049   0.00000  Uiso   1.00
O386   O     0.56138   0.49153   0.37446   0.00000  Uiso   1.00
O387   O     0.41223   0.46358   0.09620   0.00000  Uiso   1.00
O388   O     0.40443   0.53224   0.11416   0.00000  Uiso   1.00
O389   O     0.51182   0.41434   0.27821   0.00000  Uiso   1.00
O390   O     0.47914   0.59469   0.26767   0.00000  Uiso   1.00
O391   O     0.40785   0.46584   0.23607   0.00000  Uiso   1.00
O392   O     0.60119   0.52512   0.21806   0.00000  Uiso   1.00
O393   O     0.40323   0.52293   0.27820   0.00000  Uiso   1.00
O394   O     0.58773   0.48610   0.26768   0.00000  Uiso   1.00
O395   O     0.47133   0.40236   0.23607   0.00000  Uiso   1.00
O396   O     0.53771   0.58860   0.21806   0.00000  Uiso   1.00
Zn397  Zn    0.52577   0.47423   0.28278   0.00000  Uiso   1.00
Zn398  Zn    0.46792   0.45711   0.22258   0.00000  Uiso   1.00
Zn399  Zn    0.54500   0.52997   0.21188   0.00000  Uiso   1.00
Zn400  Zn    0.46131   0.53868   0.28277   0.00000  Uiso   1.00
C401   C     0.71919   0.49315   0.25877   0.00000  Uiso   1.00
C402   C     0.85448   0.45630   0.46213   0.00000  Uiso   1.00
C403   C     0.87506   0.43564   0.48175   0.00000  Uiso   1.00
C404   C     0.94778   0.50692   0.24120   0.00000  Uiso   1.00
C405   C     0.86977   0.44551   0.02198   0.00000  Uiso   1.00
C406   C     0.84057   0.47419   0.04337   0.00000  Uiso   1.00
C407   C     0.89335   0.42690   0.04103   0.00000  Uiso   1.00
C408   C     0.88949   0.43732   0.08123   0.00000  Uiso   1.00
C409   C     0.84096   0.48790   0.08239   0.00000  Uiso   1.00
C410   C     0.99378   0.50975   0.23773   0.00000  Uiso   1.00
C411   C     0.67379   0.49060   0.26212   0.00000  Uiso   1.00
C412   C     0.76067   0.54081   0.41986   0.00000  Uiso   1.00
C413   C     0.84481   0.65470   0.23306   0.00000  Uiso   1.00
C414   C     0.82026   0.34544   0.26192   0.00000  Uiso   1.00
C415   C     0.82210   0.38952   0.25956   0.00000  Uiso   1.00
C416   C     0.84297   0.61085   0.24006   0.00000  Uiso   1.00
C417   C     0.85496   0.47853   0.14405   0.00000  Uiso   1.00
C418   C     0.81278   0.52142   0.35618   0.00000  Uiso   1.00
C419   C     0.80051   0.52658   0.39969   0.00000  Uiso   1.00
C420   C     0.86372   0.46887   0.10158   0.00000  Uiso   1.00
C421   C     0.74593   0.54251   0.46065   0.00000  Uiso   1.00
C422   C     0.71204   0.54447   0.04515   0.00000  Uiso   1.00
C423   C     0.82616   0.51469   0.42141   0.00000  Uiso   1.00
C424   C     0.87259   0.34013   0.19509   0.00000  Uiso   1.00
C425   C     0.89783   0.64410   0.16221   0.00000  Uiso   1.00
C426   C     0.91270   0.41432   0.10162   0.00000  Uiso   1.00
C427   C     0.95547   0.43913   0.10486   0.00000  Uiso   1.00
C428   C     0.87420   0.51923   0.40530   0.00000  Uiso   1.00
C429   C     0.75181   0.49904   0.08637   0.00000  Uiso   1.00
C430   C     0.80742   0.50892   0.46201   0.00000  Uiso   1.00
C431   C     0.76875   0.52649   0.48247   0.00000  Uiso   1.00
C432   C     0.82626   0.48600   0.48250   0.00000  Uiso   1.00
C433   C     0.81378   0.48972   0.02426   0.00000  Uiso   1.00
C434   C     0.77436   0.50677   0.04474   0.00000  Uiso   1.00
C435   C     0.75244   0.52572   0.02380   0.00000  Uiso   1.00
H436   H     0.91449   0.40396   0.02463   0.00000  Uiso   1.00
H437   H     0.68182   0.59640   0.06084   0.00000  Uiso   1.00
H438   H     0.92392   0.63312   0.17129   0.00000  Uiso   1.00
H439   H     0.87575   0.61732   0.15367   0.00000  Uiso   1.00
H440   H     0.91352   0.66128   0.13586   0.00000  Uiso   1.00
H441   H     0.85097   0.35372   0.18221   0.00000  Uiso   1.00
H442   H     0.89616   0.36599   0.20280   0.00000  Uiso   1.00
H443   H     0.97752   0.44338   0.07498   0.00000  Uiso   1.00
H444   H     0.95005   0.47013   0.12145   0.00000  Uiso   1.00
H445   H     0.97121   0.42186   0.12065   0.00000  Uiso   1.00
H446   H     0.89187   0.40772   0.13143   0.00000  Uiso   1.00
H447   H     0.68354   0.52750   0.21530   0.00000  Uiso   1.00
H448   H     0.91956   0.38354   0.08497   0.00000  Uiso   1.00
H449   H     0.92742   0.49805   0.36685   0.00000  Uiso   1.00
H450   H     0.72285   0.52291   0.14134   0.00000  Uiso   1.00
H451   H     0.98470   0.47273   0.28480   0.00000  Uiso   1.00
H452   H     0.80172   0.33368   0.28977   0.00000  Uiso   1.00
H453   H     0.82379   0.51363   0.09848   0.00000  Uiso   1.00
H454   H     0.89631   0.41290   0.46510   0.00000  Uiso   1.00
H455   H     0.71525   0.55448   0.47452   0.00000  Uiso   1.00
H456   H     0.74057   0.55072   0.40404   0.00000  Uiso   1.00
H457   H     0.85927   0.44718   0.43102   0.00000  Uiso   1.00
O458   O     0.83333   0.50000   0.25000   0.00000  Uiso   1.00
O459   O     0.82360   0.45726   0.16625   0.00000  Uiso   1.00
O460   O     0.79354   0.53979   0.33749   0.00000  Uiso   1.00
O461   O     0.87755   0.50826   0.15877   0.00000  Uiso   1.00
O462   O     0.83865   0.49468   0.33749   0.00000  Uiso   1.00
O463   O     0.67986   0.52255   0.06212   0.00000  Uiso   1.00
O464   O     0.71102   0.58726   0.04549   0.00000  Uiso   1.00
O465   O     0.89594   0.54676   0.42049   0.00000  Uiso   1.00
O466   O     0.89472   0.49153   0.37446   0.00000  Uiso   1.00
O467   O     0.74556   0.46358   0.09620   0.00000  Uiso   1.00
O468   O     0.73776   0.53224   0.11416   0.00000  Uiso   1.00
O469   O     0.84515   0.41434   0.27821   0.00000  Uiso   1.00
O470   O     0.81247   0.59469   0.26767   0.00000  Uiso   1.00
O471   O     0.74119   0.46584   0.23607   0.00000  Uiso   1.00
O472   O     0.93452   0.52512   0.21806   0.00000  Uiso   1.00
O473   O     0.73656   0.52293   0.27820   0.00000  Uiso   1.00
O474   O     0.92106   0.48610   0.26768   0.00000  Uiso   1.00
O475   O     0.80467   0.40236   0.23607   0.00000  Uiso   1.00
O476   O     0.87104   0.58860   0.21806   0.00000  Uiso   1.00
Zn477  Zn    0.85910   0.47423   0.28278   0.00000  Uiso   1.00
Zn478  Zn    0.80125   0.45711   0.22258   0.00000  Uiso   1.00
Zn479  Zn    0.87833   0.52997   0.21188   0.00000  Uiso   1.00
Zn480  Zn    0.79465   0.53868   0.28277   0.00000  Uiso   1.00
C481   C     0.05252   0.82648   0.25877   0.00000  Uiso   1.00
C482   C     0.18781   0.78964   0.46213   0.00000  Uiso   1.00
C483   C     0.20840   0.76898   0.48175   0.00000  Uiso   1.00
C484   C     0.28112   0.84026   0.24120   0.00000  Uiso   1.00
C485   C     0.20311   0.77885   0.02198   0.00000  Uiso   1.00
C486   C     0.17390   0.80753   0.04337   0.00000  Uiso   1.00
C487   C     0.22668   0.76024   0.04103   0.00000  Uiso   1.00
C488   C     0.22282   0.77065   0.08123   0.00000  Uiso   1.00
C489   C     0.17429   0.82124   0.08239   0.00000  Uiso   1.00
C490   C     0.32711   0.84309   0.23773   0.00000  Uiso   1.00
C491   C     0.00712   0.82393   0.26212   0.00000  Uiso   1.00
C492   C     0.09400   0.87415   0.41986   0.00000  Uiso   1.00
C493   C     0.17814   0.98803   0.23306   0.00000  Uiso   1.00
C494   C     0.15359   0.67877   0.26192   0.00000  Uiso   1.00
C495   C     0.15543   0.72286   0.25956   0.00000  Uiso   1.00
C496   C     0.17630   0.94419   0.24006   0.00000  Uiso   1.00
C497   C     0.18829   0.81186   0.14405   0.00000  Uiso   1.00
C498   C     0.14611   0.85476   0.35618   0.00000  Uiso   1.00
C499   C     0.13384   0.85992   0.39969   0.00000  Uiso   1.00
C500   C     0.19705   0.80221   0.10158   0.00000  Uiso   1.00
C501   C     0.07927   0.87585   0.46065   0.00000  Uiso   1.00
C502   C     0.04537   0.87781   0.04515   0.00000  Uiso   1.00
C503   C     0.15949   0.84802   0.42141   0.00000  Uiso   1.00
C504   C     0.20592   0.67347   0.19509   0.00000  Uiso   1.00
C505   C     0.23116   0.97744   0.16221   0.00000  Uiso   1.00
C506   C     0.24603   0.74765   0.10162   0.00000  Uiso   1.00
C507   C     0.28880   0.77246   0.10486   0.00000  Uiso   1.00
C508   C     0.20754   0.85256   0.40530   0.00000  Uiso   1.00
C509   C     0.08514   0.83238   0.08637   0.00000  Uiso   1.00
C510   C     0.14075   0.84226   0.46201   0.00000  Uiso   1.00
C511   C     0.10209   0.85982   0.48247   0.00000  Uiso   1.00
C512   C     0.15959   0.81933   0.48250   0.00000  Uiso   1.00
C513   C     0.14712   0.82305   0.02426   0.00000  Uiso   1.00
C514   C     0.10770   0.84011   0.04474   0.00000  Uiso   1.00
C515   C     0.08578   0.85906   0.02380   0.00000  Uiso   1.00
H516   H     0.24783   0.73729   0.02463   0.00000  Uiso   1.00
H517   H     0.01515   0.92974   0.06084   0.00000  Uiso   1.00
H518   H     0.25725   0.96645   0.17129   0.00000  Uiso   1.00
H519   H     0.20908   0.95066   0.15367   0.00000  Uiso   1.00
H520   H     0.24685   0.99461   0.13586   0.00000  Uiso   1.00
H521   H     0.18430   0.68705   0.18221   0.00000  Uiso   1.00
H522   H     0.22950   0.69933   0.20280   0.00000  Uiso   1.00
H523   H     0.31086   0.77671   0.07498   0.00000  Uiso   1.00
H524   H     0.28338   0.80346   0.12145   0.00000  Uiso   1.00
H525   H     0.30454   0.75520   0.12065   0.00000  Uiso   1.00
H526   H     0.22521   0.74105   0.13143   0.00000  Uiso   1.00
H527   H     0.01687   0.86083   0.21530   0.00000  Uiso   1.00
H528   H     0.25289   0.71688   0.08497   0.00000  Uiso   1.00
H529   H     0.26076   0.83138   0.36685   0.00000  Uiso   1.00
H530   H     0.05619   0.85625   0.14134   0.00000  Uiso   1.00
H531   H     0.31803   0.80607   0.28480   0.00000  Uiso   1.00
H532   H     0.13505   0.66701   0.28977   0.00000  Uiso   1.00
H533   H     0.15712   0.84696   0.09848   0.00000  Uiso   1.00
H534   H     0.22964   0.74624   0.46510   0.00000  Uiso   1.00
H535   H     0.04858   0.88782   0.47452   0.00000  Uiso   1.00
H536   H     0.07390   0.88406   0.40404   0.00000  Uiso   1.00
H537   H     0.19260   0.78052   0.43102   0.00000  Uiso   1.00
O538   O     0.16667   0.83333   0.25000   0.00000  Uiso   1.00
O539   O     0.15693   0.79060   0.16625   0.00000  Uiso   1.00
O540   O     0.12687   0.87313   0.33749   0.00000  Uiso   1.00
O541   O     0.21088   0.84159   0.15877   0.00000  Uiso   1.00
O542   O     0.17198   0.82802   0.33749   0.00000  Uiso   1.00
O543   O     0.01320   0.85588   0.06212   0.00000  Uiso   1.00
O544   O     0.04435   0.92060   0.04549   0.00000  Uiso   1.00
O545   O     0.22928   0.88010   0.42049   0.00000  Uiso   1.00
O546   O     0.22805   0.82486   0.37446   0.00000  Uiso   1.00
O547   O     0.07890   0.79692   0.09620   0.00000  Uiso   1.00
O548   O     0.07110   0.86557   0.11416   0.00000  Uiso   1.00
O549   O     0.17849   0.74768   0.27821   0.00000  Uiso   1.00
O550   O     0.14581   0.92803   0.26767   0.00000  Uiso   1.00
O551   O     0.07452   0.79917   0.23607   0.00000  Uiso   1.00
O552   O     0.26785   0.85845   0.21806   0.00000  Uiso   1.00
O553   O     0.06990   0.85627   0.27820   0.00000  Uiso   1.00
O554   O     0.25440   0.81944   0.26768   0.00000  Uiso   1.00
O555   O     0.13800   0.73570   0.23607   0.00000  Uiso   1.00
O556   O     0.20437   0.92193   0.21806   0.00000  Uiso   1.00
Zn557  Zn    0.19244   0.80756   0.28278   0.00000  Uiso   1.00
Zn558  Zn    0.13459   0.79044   0.22258   0.00000  Uiso   1.00
Zn559  Zn    0.21166   0.86331   0.21188   0.00000  Uiso   1.00
Zn560  Zn    0.12798   0.87202   0.28277   0.00000  Uiso   1.00
C561   C     0.38586   0.82648   0.25877   0.00000  Uiso   1.00
C562   C     0.52115   0.78964   0.46213   0.00000  Uiso   1.00
C563   C     0.54173   0.76898   0.48175   0.00000  Uiso   1.00
C564   C     0.61445   0.84026   0.24120   0.00000  Uiso   1.00
C565   C     0.53644   0.77885   0.02198   0.00000  Uiso   1.00
C566   C     0.50723   0.80753   0.04337   0.00000  Uiso   1.00
C567   C     0.56001   0.76024   0.04103   0.00000  Uiso   1.00
C568   C     0.55615   0.77065   0.08123   0.00000  Uiso   1.00
C569   C     0.50763   0.82124   0.08239   0.00000  Uiso   1.00
C570   C     0.66045   0.84309   0.23773   0.00000  Uiso   1.00
C571   C     0.34045   0.82393   0.26212   0.00000  Uiso   1.00
C572   C     0.42733   0.87415   0.41986   0.00000  Uiso   1.00
C573   C     0.51148   0.98803   0.23306   0.00000  Uiso   1.00
C574   C     0.48692   0.67877   0.26192   0.00000  Uiso   1.00
C575   C     0.48876   0.72286   0.25956   0.00000  Uiso   1.00
C576   C     0.50964   0.94419   0.24006   0.00000  Uiso   1.00
C577   C     0.52162   0.81186   0.14405   0.00000  Uiso   1.00
C578   C     0.47945   0.85476   0.35618   0.00000  Uiso   1.00
C579   C     0.46717   0.85992   0.39969   0.00000  Uiso   1.00
C580   C     0.53039   0.80221   0.10158   0.00000  Uiso   1.00
C581   C     0.41260   0.87585   0.46065   0.00000  Uiso   1.00
C582   C     0.37871   0.87781   0.04515   0.00000  Uiso   1.00
C583   C     0.49282   0.84802   0.42141   0.00000  Uiso   1.00
C584   C     0.53925   0.67347   0.19509   0.00000  Uiso   1.00
C585   C     0.56450   0.97744   0.16221   0.00000  Uiso   1.00
C586   C     0.57936   0.74765   0.10162   0.00000  Uiso   1.00
C587   C     0.62213   0.77246   0.10486   0.00000  Uiso   1.00
C588   C     0.54087   0.85256   0.40530   0.00000  Uiso   1.00
C589   C     0.41847   0.83238   0.08637   0.00000  Uiso   1.00
C590   C     0.47409   0.84226   0.46201   0.00000  Uiso   1.00
C591   C     0.43542   0.85982   0.48247   0.00000  Uiso   1.00
C592   C     0.49293   0.81933   0.48250   0.00000  Uiso   1.00
C593   C     0.48045   0.82305   0.02426   0.00000  Uiso   1.00
C594   C     0.44103   0.84011   0.04474   0.00000  Uiso   1.00
C595   C     0.41911   0.85906   0.02380   0.00000  Uiso   1.00
H596   H     0.58116   0.73729   0.02463   0.00000  Uiso   1.00
H597   H     0.34849   0.92974   0.06084   0.00000  Uiso   1.00
H598   H     0.59059   0.96645   0.17129   0.00000  Uiso   1.00
H599   H     0.54242   0.95066   0.15367   0.00000  Uiso   1.00
H600   H     0.58018   0.99461   0.13586   0.00000  Uiso   1.00
H601   H     0.51764   0.68705   0.18221   0.00000  Uiso   1.00
H602   H     0.56283   0.69933   0.20280   0.00000  Uiso   1.00
H603   H     0.64419   0.77671   0.07498   0.00000  Uiso   1.00
H604   H     0.61672   0.80346   0.12145   0.00000  Uiso   1.00
H605   H     0.63787   0.75520   0.12065   0.00000  Uiso   1.00
H606   H     0.55854   0.74105   0.13143   0.00000  Uiso   1.00
H607   H     0.35020   0.86083   0.21530   0.00000  Uiso   1.00
H608   H     0.58622   0.71688   0.08497   0.00000  Uiso   1.00
H609   H     0.59409   0.83138   0.36685   0.00000  Uiso   1.00
H610   H     0.38952   0.85625   0.14134   0.00000  Uiso   1.00
H611   H     0.65136   0.80607   0.28480   0.00000  Uiso   1.00
H612   H     0.46839   0.66701   0.28977   0.00000  Uiso   1.00
H613   H     0.49046   0.84696   0.09848   0.00000  Uiso   1.00
H614   H     0.56297   0.74624   0.46510   0.00000  Uiso   1.00
H615   H     0.38192   0.88782   0.47452   0.00000  Uiso   1.00
H616   H     0.40724   0.88406   0.40404   0.00000  Uiso   1.00
H617   H     0.52594   0.78052   0.43102   0.00000  Uiso   1.00
O618   O     0.50000   0.83333   0.25000   0.00000  Uiso   1.00
O619   O     0.49027   0.79060   0.16625   0.00000  Uiso   1.00
O620   O     0.46020   0.87313   0.33749   0.00000  Uiso   1.00
O621   O     0.54421   0.84159   0.15877   0.00000  Uiso   1.00
O622   O     0.50532   0.82802   0.33749   0.00000  Uiso   1.00
O623   O     0.34653   0.85588   0.06212   0.00000  Uiso   1.00
O624   O     0.37769   0.92060   0.04549   0.00000  Uiso   1.00
O625   O     0.56261   0.88010   0.42049   0.00000  Uiso   1.00
O626   O     0.56138   0.82486   0.37446   0.00000  Uiso   1.00
O627   O     0.41223   0.79692   0.09620   0.00000  Uiso   1.00
O628   O     0.40443   0.86557   0.11416   0.00000  Uiso   1.00
O629   O     0.51182   0.74768   0.27821   0.00000  Uiso   1.00
O630   O     0.47914   0.92803   0.26767   0.00000  Uiso   1.00
O631   O     0.40785   0.79917   0.23607   0.00000  Uiso   1.00
O632   O     0.60119   0.85845   0.21806   0.00000  Uiso   1.00
O633   O     0.40323   0.85627   0.27820   0.00000  Uiso   1.00
O634   O     0.58773   0.81944   0.26768   0.00000  Uiso   1.00
O635   O     0.47133   0.73570   0.23607   0.00000  Uiso   1.00
O636   O     0.53771   0.92193   0.21806   0.00000  Uiso   1.00
Zn637  Zn    0.52577   0.80756   0.28278   0.00000  Uiso   1.00
Zn638  Zn    0.46792   0.79044   0.22258   0.00000  Uiso   1.00
Zn639  Zn    0.54500   0.86331   0.21188   0.00000  Uiso   1.00
Zn640  Zn    0.46131   0.87202   0.28277   0.00000  Uiso   1.00
C641   C     0.71919   0.82648   0.25877   0.00000  Uiso   1.00
C642   C     0.85448   0.78964   0.46213   0.00000  Uiso   1.00
C643   C     0.87506   0.76898   0.48175   0.00000  Uiso   1.00
C644   C     0.94778   0.84026   0.24120   0.00000  Uiso   1.00
C645   C     0.86977   0.77885   0.02198   0.00000  Uiso   1.00
C646   C     0.84057   0.80753   0.04337   0.00000  Uiso   1.00
C647   C     0.89335   0.76024   0.04103   0.00000  Uiso   1.00
C648   C     0.88949   0.77065   0.08123   0.00000  Uiso   1.00
C649   C     0.84096   0.82124   0.08239   0.00000  Uiso   1.00
C650   C     0.99378   0.84309   0.23773   0.00000  Uiso   1.00
C651   C     0.67379   0.82393   0.26212   0.00000  Uiso   1.00
C652   C     0.76067   0.87415   0.41986   0.00000  Uiso   1.00
C653   C     0.84481   0.98803   0.23306   0.00000  Uiso   1.00
C654   C     0.82026   0.67877   0.26192   0.00000  Uiso   1.00
C655   C     0.82210   0.72286   0.25956   0.00000  Uiso   1.00
C656   C     0.84297   0.94419   0.24006   0.00000  Uiso   1.00
C657   C     0.85496   0.81186   0.14405   0.00000  Uiso   1.00
C658   C     0.81278   0.85476   0.35618   0.00000  Uiso   1.00
C659   C     0.80051   0.85992   0.39969   0.00000  Uiso   1.00
C660   C     0.86372   0.80221   0.10158   0.00000  Uiso   1.00
C661   C     0.74593   0.87585   0.46065   0.00000  Uiso   1.00
C662   C     0.71204   0.87781   0.04515   0.00000  Uiso   1.00
C663   C     0.82616   0.84802   0.42141   0.00000  Uiso   1.00
C664   C     0.87259   0.67347   0.19509   0.00000  Uiso   1.00
C665   C     0.89783   0.97744   0.16221   0.00000  Uiso   1.00
C666   C     0.91270   0.74765   0.10162   0.00000  Uiso   1.00
C667   C     0.95547   0.77246   0.10486   0.00000  Uiso   1.00
C668   C     0.87420   0.85256   0.40530   0.00000  Uiso   1.00
C669   C     0.75181   0.83238   0.08637   0.00000  Uiso   1.00
C670   C     0.80742   0.84226   0.46201   0.00000  Uiso   1.00
C671   C     0.76875   0.85982   0.48247   0.00000  Uiso   1.00
C672   C     0.82626   0.81933   0.48250   0.00000  Uiso   1.00
C673   C     0.81378   0.82305   0.02426   0.00000  Uiso   1.00
C674   C     0.77436   0.84011   0.04474   0.00000  Uiso   1.00
C675   C     0.75244   0.85906   0.02380   0.00000  Uiso   1.00
H676   H     0.91449   0.73729   0.02463   0.00000  Uiso   1.00
H677   H     0.68182   0.92974   0.06084   0.00000  Uiso   1.00
H678   H     0.92392   0.96645   0.17129   0.00000  Uiso   1.00
H679   H     0.87575   0.95066   0.15367   0.00000  Uiso   1.00
H680   H     0.91352   0.99461   0.13586   0.00000  Uiso   1.00
H681   H     0.85097   0.68705   0.18221   0.00000  Uiso   1.00
H682   H     0.89616   0.69933   0.20280   0.00000  Uiso   1.00
H683   H     0.97752   0.77671   0.07498   0.00000  Uiso   1.00
H684   H     0.95005   0.80346   0.12145   0.00000  Uiso   1.00
H685   H     0.97121   0.75520   0.12065   0.00000  Uiso   1.00
H686   H     0.89187   0.74105   0.13143   0.00000  Uiso   1.00
H687   H     0.68354   0.86083   0.21530   0.00000  Uiso   1.00
H688   H     0.91956   0.71688   0.08497   0.00000  Uiso   1.00
H689   H     0.92742   0.83138   0.36685   0.00000  Uiso   1.00
H690   H     0.72285   0.85625   0.14134   0.00000  Uiso   1.00
H691   H     0.98470   0.80607   0.28480   0.00000  Uiso   1.00
H692   H     0.80172   0.66701   0.28977   0.00000  Uiso   1.00
H693   H     0.82379   0.84696   0.09848   0.00000  Uiso   1.00
H694   H     0.89631   0.74624   0.46510   0.00000  Uiso   1.00
H695   H     0.71525   0.88782   0.47452   0.00000  Uiso   1.00
H696   H     0.74057   0.88406   0.40404   0.00000  Uiso   1.00
H697   H     0.85927   0.78052   0.43102   0.00000  Uiso   1.00
O698   O     0.83333   0.83333   0.25000   0.00000  Uiso   1.00
O699   O     0.82360   0.79060   0.16625   0.00000  Uiso   1.00
O700   O     0.79354   0.87313   0.33749   0.00000  Uiso   1.00
O701   O     0.87755   0.84159   0.15877   0.00000  Uiso   1.00
O702   O     0.83865   0.82802   0.33749   0.00000  Uiso   1.00
O703   O     0.67986   0.85588   0.06212   0.00000  Uiso   1.00
O704   O     0.71102   0.92060   0.04549   0.00000  Uiso   1.00
O705   O     0.89594   0.88010   0.42049   0.00000  Uiso   1.00
O706   O     0.89472   0.82486   0.37446   0.00000  Uiso   1.00
O707   O     0.74556   0.79692   0.09620   0.00000  Uiso   1.00
O708   O     0.73776   0.86557   0.11416   0.00000  Uiso   1.00
O709   O     0.84515   0.74768   0.27821   0.00000  Uiso   1.00
O710   O     0.81247   0.92803   0.26767   0.00000  Uiso   1.00
O711   O     0.74119   0.79917   0.23607   0.00000  Uiso   1.00
O712   O     0.93452   0.85845   0.21806   0.00000  Uiso   1.00
O713   O     0.73656   0.85627   0.27820   0.00000  Uiso   1.00
O714   O     0.92106   0.81944   0.26768   0.00000  Uiso   1.00
O715   O     0.80467   0.73570   0.23607   0.00000  Uiso   1.00
O716   O     0.87104   0.92193   0.21806   0.00000  Uiso   1.00
Zn717  Zn    0.85910   0.80756   0.28278   0.00000  Uiso   1.00
Zn718  Zn    0.80125   0.79044   0.22258   0.00000  Uiso   1.00
Zn719  Zn    0.87833   0.86331   0.21188   0.00000  Uiso   1.00
Zn720  Zn    0.79465   0.87202   0.28277   0.00000  Uiso   1.00
C721   C     0.05252   0.15981   0.75877   0.00000  Uiso   1.00
C722   C     0.18781   0.12297   0.96213   0.00000  Uiso   1.00
C723   C     0.20840   0.10231   0.98175   0.00000  Uiso   1.00
C724   C     0.28112   0.17359   0.74120   0.00000  Uiso   1.00
C725   C     0.20311   0.11218   0.52198   0.00000  Uiso   1.00
C726   C     0.17390   0.14086   0.54337   0.00000  Uiso   1.00
C727   C     0.22668   0.09357   0.54103   0.00000  Uiso   1.00
C728   C     0.22282   0.10399   0.58123   0.00000  Uiso   1.00
C729   C     0.17429   0.15457   0.58239   0.00000  Uiso   1.00
C730   C     0.32711   0.17642   0.73773   0.00000  Uiso   1.00
C731   C     0.00712   0.15726   0.76212   0.00000  Uiso   1.00
C732   C     0.09400   0.20748   0.91986   0.00000  Uiso   1.00
C733   C     0.17814   0.32136   0.73306   0.00000  Uiso   1.00
C734   C     0.15359   0.01210   0.76192   0.00000  Uiso   1.00
C735   C     0.15543   0.05619   0.75956   0.00000  Uiso   1.00
C736   C     0.17630   0.27752   0.74006   0.00000  Uiso   1.00
C737   C     0.18829   0.14520   0.64405   0.00000  Uiso   1.00
C738   C     0.14611   0.18809   0.85618   0.00000  Uiso   1.00
C739   C     0.13384   0.19325   0.89969   0.00000  Uiso   1.00
C740   C     0.19705   0.13554   0.60158   0.00000  Uiso   1.00
C741   C     0.07927   0.20918   0.96065   0.00000  Uiso   1.00
C742   C     0.04537   0.21114   0.54515   0.00000  Uiso   1.00
C743   C     0.15949   0.18136   0.92141   0.00000  Uiso   1.00
C744   C     0.20592   0.00680   0.69509   0.00000  Uiso   1.00
C745   C     0.23116   0.31077   0.66221   0.00000  Uiso   1.00
C746   C     0.24603   0.08098   0.60162   0.00000  Uiso   1.00
C747   C     0.28880   0.10580   0.60486   0.00000  Uiso   1.00
C748   C     0.20754   0.18589   0.90530   0.00000  Uiso   1.00
C749   C     0.08514   0.16571   0.58637   0.00000  Uiso   1.00
C750   C     0.14075   0.17559   0.96201   0.00000  Uiso   1.00
C751   C     0.10209   0.19316   0.98247   0.00000  Uiso   1.00
C752   C     0.15959   0.15267   0.98250   0.00000  Uiso   1.00
C753   C     0.14712   0.15639   0.52426   0.00000  Uiso   1.00
C754   C     0.10770   0.17344   0.54474   0.00000  Uiso   1.00
C755   C     0.08578   0.19239   0.52380   0.00000  Uiso   1.00
H756   H     0.24783   0.07063   0.52463   0.00000  Uiso   1.00
H757   H     0.01515   0.26307   0.56084   0.00000  Uiso   1.00
H758   H     0.25725   0.29978   0.67129   0.00000  Uiso   1.00
H759   H     0.20908   0.28399   0.65367   0.00000  Uiso   1.00
H760   H     0.24685   0.32795   0.63586   0.00000  Uiso   1.00
H761   H     0.18430   0.02039   0.68221   0.00000  Uiso   1.00
H762   H     0.22950   0.03266   0.70280   0.00000  Uiso   1.00
H763   H     0.31086   0.11005   0.57498   0.00000  Uiso   1.00
H764   H     0.28338   0.13680   0.62145   0.00000  Uiso   1.00
H765   H     0.30454   0.08853   0.62065   0.00000  Uiso   1.00
H766   H     0.22521   0.07438   0.63143   0.00000  Uiso   1.00
H767   H     0.01687   0.19416   0.71530   0.00000  Uiso   1.00
H768   H     0.25289   0.05021   0.58497   0.00000  Uiso   1.00
H769   H     0.26076   0.16472   0.86685   0.00000  Uiso   1.00
H770   H     0.05619   0.18958   0.64134   0.00000  Uiso   1.00
H771   H     0.31803   0.13940   0.78480   0.00000  Uiso   1.00
H772   H     0.13505   0.00035   0.78977   0.00000  Uiso   1.00
H773   H     0.15712   0.18029   0.59848   0.00000  Uiso   1.00
H774   H     0.22964   0.07957   0.96510   0.00000  Uiso   1.00
H775   H     0.04858   0.22115   0.97452   0.00000  Uiso   1.00
H776   H     0.07390   0.21739   0.90404   0.00000  Uiso   1.00
H777   H     0.19260   0.11385   0.93102   0.00000  Uiso   1.00
O778   O     0.16667   0.16667   0.75000   0.00000  Uiso   1.00
O779   O     0.15693   0.12393   0.66625   0.00000  Uiso   1.00
O780   O     0.12687   0.20646   0.83749   0.00000  Uiso   1.00
O781   O     0.21088   0.17493   0.65877   0.00000  Uiso   1.00
O782   O     0.17198   0.16135   0.83749   0.00000  Uiso   1.00
O783   O     0.01320   0.18921   0.56212   0.00000  Uiso   1.00
O784   O     0.04435   0.25393   0.54549   0.00000  Uiso   1.00
O785   O     0.22928   0.21343   0.92049   0.00000  Uiso   1.00
O786   O     0.22805   0.15820   0.87446   0.00000  Uiso   1.00
O787   O     0.07890   0.13025   0.59620   0.00000  Uiso   1.00
O788   O     0.07110   0.19890   0.61416   0.00000  Uiso   1.00
O789   O     0.17849   0.08101   0.77821   0.00000  Uiso   1.00
O790   O     0.14581   0.26136   0.76767   0.00000  Uiso   1.00
O791   O     0.07452   0.13251   0.73607   0.00000  Uiso   1.00
O792   O     0.26785   0.19179   0.71806   0.00000  Uiso   1.00
O793   O     0.06990   0.18960   0.77820   0.00000  Uiso   1.00
O794   O     0.25440   0.15277   0.76768   0.00000  Uiso   1.00
O795   O     0.13800   0.06903   0.73607   0.00000  Uiso   1.00
O796   O     0.20437   0.25527   0.71806   0.00000  Uiso   1.00
Zn797  Zn    0.19244   0.14090   0.78278   0.00000  Uiso   1.00
Zn798  Zn    0.13459   0.12378   0.72258   0.00000  Uiso   1.00
Zn799  Zn    0.21166   0.19664   0.71188   0.00000  Uiso   1.00
Zn800  Zn    0.12798   0.20535   0.78277   0.00000  Uiso   1.00
C801   C     0.38586   0.15981   0.75877   0.00000  Uiso   1.00
C802   C     0.52115   0.12297   0.96213   0.00000  Uiso   1.00
C803   C     0.54173   0.10231   0.98175   0.00000  Uiso   1.00
C804   C     0.61445   0.17359   0.74120   0.00000  Uiso   1.00
C805   C     0.53644   0.11218   0.52198   0.00000  Uiso   1.00
C806   C     0.50723   0.14086   0.54337   0.00000  Uiso   1.00
C807   C     0.56001   0.09357   0.54103   0.00000  Uiso   1.00
C808   C     0.55615   0.10399   0.58123   0.00000  Uiso   1.00
C809   C     0.50763   0.15457   0.58239   0.00000  Uiso   1.00
C810   C     0.66045   0.17642   0.73773   0.00000  Uiso   1.00
C811   C     0.34045   0.15726   0.76212   0.00000  Uiso   1.00
C812   C     0.42733   0.20748   0.91986   0.00000  Uiso   1.00
C813   C     0.51148   0.32136   0.73306   0.00000  Uiso   1.00
C814   C     0.48692   0.01210   0.76192   0.00000  Uiso   1.00
C815   C     0.48876   0.05619   0.75956   0.00000  Uiso   1.00
C816   C     0.50964   0.27752   0.74006   0.00000  Uiso   1.00
C817   C     0.52162   0.14520   0.64405   0.00000  Uiso   1.00
C818   C     0.47945   0.18809   0.85618   0.00000  Uiso   1.00
C819   C     0.46717   0.19325   0.89969   0.00000  Uiso   1.00
C820   C     0.53039   0.13554   0.60158   0.00000  Uiso   1.00
C821   C     0.41260   0.20918   0.96065   0.00000  Uiso   1.00
C822   C     0.37871   0.21114   0.54515   0.00000  Uiso   1.00
C823   C     0.49282   0.18136   0.92141   0.00000  Uiso   1.00
C824   C     0.53925   0.00680   0.69509   0.00000  Uiso   1.00
C825   C     0.56450   0.31077   0.66221   0.00000  Uiso   1.00
C826   C     0.57936   0.08098   0.60162   0.00000  Uiso   1.00
C827   C     0.62213   0.10580   0.60486   0.00000  Uiso   1.00
C828   C     0.54087   0.18589   0.90530   0.00000  Uiso   1.00
C829   C     0.41847   0.16571   0.58637   0.00000  Uiso   1.00
C830   C     0.47409   0.17559   0.96201   0.00000  Uiso   1.00
C831   C     0.43542   0.19316   0.98247   0.00000  Uiso   1.00
C832   C     0.49293   0.15267   0.98250   0.00000  Uiso   1.00
C833   C     0.48045   0.15639   0.52426   0.00000  Uiso   1.00
C834   C     0.44103   0.17344   0.54474   0.00000  Uiso   1.00
C835   C     0.41911   0.19239   0.52380   0.00000  Uiso   1.00
H836   H     0.58116   0.07063   0.52463   0.00000  Uiso   1.00
H837   H     0.34849   0.26307   0.56084   0.00000  Uiso   1.00
H838   H     0.59059   0.29978   0.67129   0.00000  Uiso   1.00
H839   H     0.54242   0.28399   0.65367   0.00000  Uiso   1.00
H840   H     0.58018   0.32795   0.63586   0.00000  Uiso   1.00
H841   H     0.51764   0.02039   0.68221   0.00000  Uiso   1.00
H842   H     0.56283   0.03266   0.70280   0.00000  Uiso   1.00
H843   H     0.64419   0.11005   0.57498   0.00000  Uiso   1.00
H844   H     0.61672   0.13680   0.62145   0.00000  Uiso   1.00
H845   H     0.63787   0.08853   0.62065   0.00000  Uiso   1.00
H846   H     0.55854   0.07438   0.63143   0.00000  Uiso   1.00
H847   H     0.35020   0.19416   0.71530   0.00000  Uiso   1.00
H848   H     0.58622   0.05021   0.58497   0.00000  Uiso   1.00
H849   H     0.59409   0.16472   0.86685   0.00000  Uiso   1.00
H850   H     0.38952   0.18958   0.64134   0.00000  Uiso   1.00
H851   H     0.65136   0.13940   0.78480   0.00000  Uiso   1.00
H852   H     0.46839   0.00035   0.78977   0.00000  Uiso   1.00
H853   H     0.49046   0.18029   0.59848   0.00000  Uiso   1.00
H854   H     0.56297   0.07957   0.96510   0.00000  Uiso   1.00
H855   H     0.38192   0.22115   0.97452   0.00000  Uiso   1.00
H856   H     0.40724   0.21739   0.90404   0.00000  Uiso   1.00
H857   H     0.52594   0.11385   0.93102   0.00000  Uiso   1.00
O858   O     0.50000   0.16667   0.75000   0.00000  Uiso   1.00
O859   O     0.49027   0.12393   0.66625   0.00000  Uiso   1.00
O860   O     0.46020   0.20646   0.83749   0.00000  Uiso   1.00
O861   O     0.54421   0.17493   0.65877   0.00000  Uiso   1.00
O862   O     0.50532   0.16135   0.83749   0.00000  Uiso   1.00
O863   O     0.34653   0.18921   0.56212   0.00000  Uiso   1.00
O864   O     0.37769   0.25393   0.54549   0.00000  Uiso   1.00
O865   O     0.56261   0.21343   0.92049   0.00000  Uiso   1.00
O866   O     0.56138   0.15820   0.87446   0.00000  Uiso   1.00
O867   O     0.41223   0.13025   0.59620   0.00000  Uiso   1.00
O868   O     0.40443   0.19890   0.61416   0.00000  Uiso   1.00
O869   O     0.51182   0.08101   0.77821   0.00000  Uiso   1.00
O870   O     0.47914   0.26136   0.76767   0.00000  Uiso   1.00
O871   O     0.40785   0.13251   0.73607   0.00000  Uiso   1.00
O872   O     0.60119   0.19179   0.71806   0.00000  Uiso   1.00
O873   O     0.40323   0.18960   0.77820   0.00000  Uiso   1.00
O874   O     0.58773   0.15277   0.76768   0.00000  Uiso   1.00
O875   O     0.47133   0.06903   0.73607   0.00000  Uiso   1.00
O876   O     0.53771   0.25527   0.71806   0.00000  Uiso   1.00
Zn877  Zn    0.52577   0.14090   0.78278   0.00000  Uiso   1.00
Zn878  Zn    0.46792   0.12378   0.72258   0.00000  Uiso   1.00
Zn879  Zn    0.54500   0.19664   0.71188   0.00000  Uiso   1.00
Zn880  Zn    0.46131   0.20535   0.78277   0.00000  Uiso   1.00
C881   C     0.71919   0.15981   0.75877   0.00000  Uiso   1.00
C882   C     0.85448   0.12297   0.96213   0.00000  Uiso   1.00
C883   C     0.87506   0.10231   0.98175   0.00000  Uiso   1.00
C884   C     0.94778   0.17359   0.74120   0.00000  Uiso   1.00
C885   C     0.86977   0.11218   0.52198   0.00000  Uiso   1.00
C886   C     0.84057   0.14086   0.54337   0.00000  Uiso   1.00
C887   C     0.89335   0.09357   0.54103   0.00000  Uiso   1.00
C888   C     0.88949   0.10399   0.58123   0.00000  Uiso   1.00
C889   C     0.84096   0.15457   0.58239   0.00000  Uiso   1.00
C890   C     0.99378   0.17642   0.73773   0.00000  Uiso   1.00
C891   C     0.67379   0.15726   0.76212   0.00000  Uiso   1.00
C892   C     0.76067   0.20748   0.91986   0.00000  Uiso   1.00
C893   C     0.84481   0.32136   0.73306   0.00000  Uiso   1.00
C894   C     0.82026   0.01210   0.76192   0.00000  Uiso   1.00
C895   C     0.82210   0.05619   0.75956   0.00000  Uiso   1.00
C896   C     0.84297   0.27752   0.74006   0.00000  Uiso   1.00
C897   C     0.85496   0.14520   0.64405   0.00000  Uiso   1.00
C898   C     0.81278   0.18809   0.85618   0.00000  Uiso   1.00
C899   C     0.80051   0.19325   0.89969   0.00000  Uiso   1.00
C900   C     0.86372   0.13554   0.60158   0.00000  Uiso   1.00
C901   C     0.74593   0.20918   0.96065   0.00000  Uiso   1.00
C902   C     0.71204   0.21114   0.54515   0.00000  Uiso   1.00
C903   C     0.82616   0.18136   0.92141   0.00000  Uiso   1.00
C904   C     0.87259   0.00680   0.69509   0.00000  Uiso   1.00
C905   C     0.89783   0.31077   0.66221   0.00000  Uiso   1.00
C906   C     0.91270   0.08098   0.60162   0.00000  Uiso   1.00
C907   C     0.95547   0.10580   0.60486   0.00000  Uiso   1.00
C908   C     0.87420   0.18589   0.90530   0.00000  Uiso   1.00
C909   C     0.75181   0.16571   0.58637   0.00000  Uiso   1.00
C910   C     0.80742   0.17559   0.96201   0.00000  Uiso   1.00
C911   C     0.76875   0.19316   0.98247   0.00000  Uiso   1.00
C912   C     0.82626   0.15267   0.98250   0.00000  Uiso   1.00
C913   C     0.81378   0.15639   0.52426   0.00000  Uiso   1.00
C914   C     0.77436   0.17344   0.54474   0.00000  Uiso   1.00
C915   C     0.75244   0.19239   0.52380   0.00000  Uiso   1.00
H916   H     0.91449   0.07063   0.52463   0.00000  Uiso   1.00
H917   H     0.68182   0.26307   0.56084   0.00000  Uiso   1.00
H918   H     0.92392   0.29978   0.67129   0.00000  Uiso   1.00
H919   H     0.87575   0.28399   0.65367   0.00000  Uiso   1.00
H920   H     0.91352   0.32795   0.63586   0.00000  Uiso   1.00
H921   H     0.85097   0.02039   0.68221   0.00000  Uiso   1.00
H922   H     0.89616   0.03266   0.70280   0.00000  Uiso   1.00
H923   H     0.97752   0.11005   0.57498   0.00000  Uiso   1.00
H924   H     0.95005   0.13680   0.62145   0.00000  Uiso   1.00
H925   H     0.97121   0.08853   0.62065   0.00000  Uiso   1.00
H926   H     0.89187   0.07438   0.63143   0.00000  Uiso   1.00
H927   H     0.68354   0.19416   0.71530   0.00000  Uiso   1.00
H928   H     0.91956   0.05021   0.58497   0.00000  Uiso   1.00
H929   H     0.92742   0.16472   0.86685   0.00000  Uiso   1.00
H930   H     0.72285   0.18958   0.64134   0.00000  Uiso   1.00
H931   H     0.98470   0.13940   0.78480   0.00000  Uiso   1.00
H932   H     0.80172   0.00035   0.78977   0.00000  Uiso   1.00
H933   H     0.82379   0.18029   0.59848   0.00000  Uiso   1.00
H934   H     0.89631   0.07957   0.96510   0.00000  Uiso   1.00
H935   H     0.71525   0.22115   0.97452   0.00000  Uiso   1.00
H936   H     0.74057   0.21739   0.90404   0.00000  Uiso   1.00
H937   H     0.85927   0.11385   0.93102   0.00000  Uiso   1.00
O938   O     0.83333   0.16667   0.75000   0.00000  Uiso   1.00
O939   O     0.82360   0.12393   0.66625   0.00000  Uiso   1.00
O940   O     0.79354   0.20646   0.83749   0.00000  Uiso   1.00
O941   O     0.87755   0.17493   0.65877   0.00000  Uiso   1.00
O942   O     0.83865   0.16135   0.83749   0.00000  Uiso   1.00
O943   O     0.67986   0.18921   0.56212   0.00000  Uiso   1.00
O944   O     0.71102   0.25393   0.54549   0.00000  Uiso   1.00
O945   O     0.89594   0.21343   0.92049   0.00000  Uiso   1.00
O946   O     0.89472   0.15820   0.87446   0.00000  Uiso   1.00
O947   O     0.74556   0.13025   0.59620   0.00000  Uiso   1.00
O948   O     0.73776   0.19890   0.61416   0.00000  Uiso   1.00
O949   O     0.84515   0.08101   0.77821   0.00000  Uiso   1.00
O950   O     0.81247   0.26136   0.76767   0.00000  Uiso   1.00
O951   O     0.74119   0.13251   0.73607   0.00000  Uiso   1.00
O952   O     0.93452   0.19179   0.71806   0.00000  Uiso   1.00
O953   O     0.73656   0.18960   0.77820   0.00000  Uiso   1.00
O954   O     0.92106   0.15277   0.76768   0.00000  Uiso   1.00
O955   O     0.80467   0.06903   0.73607   0.00000  Uiso   1.00
O956   O     0.87104   0.25527   0.71806   0.00000  Uiso   1.00
Zn957  Zn    0.85910   0.14090   0.78278   0.00000  Uiso   1.00
Zn958  Zn    0.80125   0.12378   0.72258   0.00000  Uiso   1.00
Zn959  Zn    0.87833   0.19664   0.71188   0.00000  Uiso   1.00
Zn960  Zn    0.79465   0.20535   0.78277   0.00000  Uiso   1.00
C961   C     0.05252   0.49315   0.75877   0.00000  Uiso   1.00
C962   C     0.18781   0.45630   0.96213   0.00000  Uiso   1.00
C963   C     0.20840   0.43564   0.98175   0.00000  Uiso   1.00
C964   C     0.28112   0.50692   0.74120   0.00000  Uiso   1.00
C965   C     0.20311   0.44551   0.52198   0.00000  Uiso   1.00
C966   C     0.17390   0.47419   0.54337   0.00000  Uiso   1.00
C967   C     0.22668   0.42690   0.54103   0.00000  Uiso   1.00
C968   C     0.22282   0.43732   0.58123   0.00000  Uiso   1.00
C969   C     0.17429   0.48790   0.58239   0.00000  Uiso   1.00
C970   C     0.32711   0.50975   0.73773   0.00000  Uiso   1.00
C971   C     0.00712   0.49060   0.76212   0.00000  Uiso   1.00
C972   C     0.09400   0.54081   0.91986   0.00000  Uiso   1.00
C973   C     0.17814   0.65470   0.73306   0.00000  Uiso   1.00
C974   C     0.15359   0.34544   0.76192   0.00000  Uiso   1.00
C975   C     0.15543   0.38952   0.75956   0.00000  Uiso   1.00
C976   C     0.17630   0.61085   0.74006   0.00000  Uiso   1.00
C977   C     0.18829   0.47853   0.64405   0.00000  Uiso   1.00
C978   C     0.14611   0.52142   0.85618   0.00000  Uiso   1.00
C979   C     0.13384   0.52658   0.89969   0.00000  Uiso   1.00
C980   C     0.19705   0.46887   0.60158   0.00000  Uiso   1.00
C981   C     0.07927   0.54251   0.96065   0.00000  Uiso   1.00
C982   C     0.04537   0.54447   0.54515   0.00000  Uiso   1.00
C983   C     0.15949   0.51469   0.92141   0.00000  Uiso   1.00
C984   C     0.20592   0.34013   0.69509   0.00000  Uiso   1.00
C985   C     0.23116   0.64410   0.66221   0.00000  Uiso   1.00
C986   C     0.24603   0.41432   0.60162   0.00000  Uiso   1.00
C987   C     0.28880   0.43913   0.60486   0.00000  Uiso   1.00
C988   C     0.20754   0.51923   0.90530   0.00000  Uiso   1.00
C989   C     0.08514   0.49904   0.58637   0.00000  Uiso   1.00
C990   C     0.14075   0.50892   0.96201   0.00000  Uiso   1.00
C991   C     0.10209   0.52649   0.98247   0.00000  Uiso   1.00
C992   C     0.15959   0.48600   0.98250   0.00000  Uiso   1.00
C993   C     0.14712   0.48972   0.52426   0.00000  Uiso   1.00
C994   C     0.10770   0.50677   0.54474   0.00000  Uiso   1.00
C995   C     0.08578   0.52572   0.52380   0.00000  Uiso   1.00
H996   H     0.24783   0.40396   0.52463   0.00000  Uiso   1.00
H997   H     0.01515   0.59640   0.56084   0.00000  Uiso   1.00
H998   H     0.25725   0.63312   0.67129   0.00000  Uiso   1.00
H999   H     0.20908   0.61732   0.65367   0.00000  Uiso   1.00
H1000  H     0.24685   0.66128   0.63586   0.00000  Uiso   1.00
H1001  H     0.18430   0.35372   0.68221   0.00000  Uiso   1.00
H1002  H     0.22950   0.36599   0.70280   0.00000  Uiso   1.00
H1003  H     0.31086   0.44338   0.57498   0.00000  Uiso   1.00
H1004  H     0.28338   0.47013   0.62145   0.00000  Uiso   1.00
H1005  H     0.30454   0.42186   0.62065   0.00000  Uiso   1.00
H1006  H     0.22521   0.40772   0.63143   0.00000  Uiso   1.00
H1007  H     0.01687   0.52750   0.71530   0.00000  Uiso   1.00
H1008  H     0.25289   0.38354   0.58497   0.00000  Uiso   1.00
H1009  H     0.26076   0.49805   0.86685   0.00000  Uiso   1.00
H1010  H     0.05619   0.52291   0.64134   0.00000  Uiso   1.00
H1011  H     0.31803   0.47273   0.78480   0.00000  Uiso   1.00
H1012  H     0.13505   0.33368   0.78977   0.00000  Uiso   1.00
H1013  H     0.15712   0.51363   0.59848   0.00000  Uiso   1.00
H1014  H     0.22964   0.41290   0.96510   0.00000  Uiso   1.00
H1015  H     0.04858   0.55448   0.97452   0.00000  Uiso   1.00
H1016  H     0.07390   0.55072   0.90404   0.00000  Uiso   1.00
H1017  H     0.19260   0.44718   0.93102   0.00000  Uiso   1.00
O1018  O     0.16667   0.50000   0.75000   0.00000  Uiso   1.00
O1019  O     0.15693   0.45726   0.66625   0.00000  Uiso   1.00
O1020  O     0.12687   0.53979   0.83749   0.00000  Uiso   1.00
O1021  O     0.21088   0.50826   0.65877   0.00000  Uiso   1.00
O1022  O     0.17198   0.49468   0.83749   0.00000  Uiso   1.00
O1023  O     0.01320   0.52255   0.56212   0.00000  Uiso   1.00
O1024  O     0.04435   0.58726   0.54549   0.00000  Uiso   1.00
O1025  O     0.22928   0.54676   0.92049   0.00000  Uiso   1.00
O1026  O     0.22805   0.49153   0.87446   0.00000  Uiso   1.00
O1027  O     0.07890   0.46358   0.59620   0.00000  Uiso   1.00
O1028  O     0.07110   0.53224   0.61416   0.00000  Uiso   1.00
O1029  O     0.17849   0.41434   0.77821   0.00000  Uiso   1.00
O1030  O     0.14581   0.59469   0.76767   0.00000  Uiso   1.00
O1031  O     0.07452   0.46584   0.73607   0.00000  Uiso   1.00
O1032  O     0.26785   0.52512   0.71806   0.00000  Uiso   1.00
O1033  O     0.06990   0.52293   0.77820   0.00000  Uiso   1.00
O1034  O     0.25440   0.48610   0.76768   0.00000  Uiso   1.00
O1035  O     0.13800   0.40236   0.73607   0.00000  Uiso   1.00
O1036  O     0.20437   0.58860   0.71806   0.00000  Uiso   1.00
Zn1037 Zn    0.19244   0.47423   0.78278   0.00000  Uiso   1.00
Zn1038 Zn    0.13459   0.45711   0.72258   0.00000  Uiso   1.00
Zn1039 Zn    0.21166   0.52997   0.71188   0.00000  Uiso   1.00
Zn1040 Zn    0.12798   0.53868   0.78277   0.00000  Uiso   1.00
C1041  C     0.38586   0.49315   0.75877   0.00000  Uiso   1.00
C1042  C     0.52115   0.45630   0.96213   0.00000  Uiso   1.00
C1043  C     0.54173   0.43564   0.98175   0.00000  Uiso   1.00
C1044  C     0.61445   0.50692   0.74120   0.00000  Uiso   1.00
C1045  C     0.53644   0.44551   0.52198   0.00000  Uiso   1.00
C1046  C     0.50723   0.47419   0.54337   0.00000  Uiso   1.00
C1047  C     0.56001   0.42690   0.54103   0.00000  Uiso   1.00
C1048  C     0.55615   0.43732   0.58123   0.00000  Uiso   1.00
C1049  C     0.50763   0.48790   0.58239   0.00000  Uiso   1.00
C1050  C     0.66045   0.50975   0.73773   0.00000  Uiso   1.00
C1051  C     0.34045   0.49060   0.76212   0.00000  Uiso   1.00
C1052  C     0.42733   0.54081   0.91986   0.00000  Uiso   1.00
C1053  C     0.51148   0.65470   0.73306   0.00000  Uiso   1.00
C1054  C     0.48692   0.34544   0.76192   0.00000  Uiso   1.00
C1055  C     0.48876   0.38952   0.75956   0.00000  Uiso   1.00
C1056  C     0.50964   0.61085   0.74006   0.00000  Uiso   1.00
C1057  C     0.52162   0.47853   0.64405   0.00000  Uiso   1.00
C1058  C     0.47945   0.52142   0.85618   0.00000  Uiso   1.00
C1059  C     0.46717   0.52658   0.89969   0.00000  Uiso   1.00
C1060  C     0.53039   0.46887   0.60158   0.00000  Uiso   1.00
C1061  C     0.41260   0.54251   0.96065   0.00000  Uiso   1.00
C1062  C     0.37871   0.54447   0.54515   0.00000  Uiso   1.00
C1063  C     0.49282   0.51469   0.92141   0.00000  Uiso   1.00
C1064  C     0.53925   0.34013   0.69509   0.00000  Uiso   1.00
C1065  C     0.56450   0.64410   0.66221   0.00000  Uiso   1.00
C1066  C     0.57936   0.41432   0.60162   0.00000  Uiso   1.00
C1067  C     0.62213   0.43913   0.60486   0.00000  Uiso   1.00
C1068  C     0.54087   0.51923   0.90530   0.00000  Uiso   1.00
C1069  C     0.41847   0.49904   0.58637   0.00000  Uiso   1.00
C1070  C     0.47409   0.50892   0.96201   0.00000  Uiso   1.00
C1071  C     0.43542   0.52649   0.98247   0.00000  Uiso   1.00
C1072  C     0.49293   0.48600   0.98250   0.00000  Uiso   1.00
C1073  C     0.48045   0.48972   0.52426   0.00000  Uiso   1.00
C1074  C     0.44103   0.50677   0.54474   0.00000  Uiso   1.00
C1075  C     0.41911   0.52572   0.52380   0.00000  Uiso   1.00
H1076  H     0.58116   0.40396   0.52463   0.00000  Uiso   1.00
H1077  H     0.34849   0.59640   0.56084   0.00000  Uiso   1.00
H1078  H     0.59059   0.63312   0.67129   0.00000  Uiso   1.00
H1079  H     0.54242   0.61732   0.65367   0.00000  Uiso   1.00
H1080  H     0.58018   0.66128   0.63586   0.00000  Uiso   1.00
H1081  H     0.51764   0.35372   0.68221   0.00000  Uiso   1.00
H1082  H     0.56283   0.36599   0.70280   0.00000  Uiso   1.00
H1083  H     0.64419   0.44338   0.57498   0.00000  Uiso   1.00
H1084  H     0.61672   0.47013   0.62145   0.00000  Uiso   1.00
H1085  H     0.63787   0.42186   0.62065   0.00000  Uiso   1.00
H1086  H     0.55854   0.40772   0.63143   0.00000  Uiso   1.00
H1087  H     0.35020   0.52750   0.71530   0.00000  Uiso   1.00
H1088  H     0.58622   0.38354   0.58497   0.00000  Uiso   1.00
H1089  H     0.59409   0.49805   0.86685   0.00000  Uiso   1.00
H1090  H     0.38952   0.52291   0.64134   0.00000  Uiso   1.00
H1091  H     0.65136   0.47273   0.78480   0.00000  Uiso   1.00
H1092  H     0.46839   0.33368   0.78977   0.00000  Uiso   1.00
H1093  H     0.49046   0.51363   0.59848   0.00000  Uiso   1.00
H1094  H     0.56297   0.41290   0.96510   0.00000  Uiso   1.00
H1095  H     0.38192   0.55448   0.97452   0.00000  Uiso   1.00
H1096  H     0.40724   0.55072   0.90404   0.00000  Uiso   1.00
H1097  H     0.52594   0.44718   0.93102   0.00000  Uiso   1.00
O1098  O     0.50000   0.50000   0.75000   0.00000  Uiso   1.00
O1099  O     0.49027   0.45726   0.66625   0.00000  Uiso   1.00
O1100  O     0.46020   0.53979   0.83749   0.00000  Uiso   1.00
O1101  O     0.54421   0.50826   0.65877   0.00000  Uiso   1.00
O1102  O     0.50532   0.49468   0.83749   0.00000  Uiso   1.00
O1103  O     0.34653   0.52255   0.56212   0.00000  Uiso   1.00
O1104  O     0.37769   0.58726   0.54549   0.00000  Uiso   1.00
O1105  O     0.56261   0.54676   0.92049   0.00000  Uiso   1.00
O1106  O     0.56138   0.49153   0.87446   0.00000  Uiso   1.00
O1107  O     0.41223   0.46358   0.59620   0.00000  Uiso   1.00
O1108  O     0.40443   0.53224   0.61416   0.00000  Uiso   1.00
O1109  O     0.51182   0.41434   0.77821   0.00000  Uiso   1.00
O1110  O     0.47914   0.59469   0.76767   0.00000  Uiso   1.00
O1111  O     0.40785   0.46584   0.73607   0.00000  Uiso   1.00
O1112  O     0.60119   0.52512   0.71806   0.00000  Uiso   1.00
O1113  O     0.40323   0.52293   0.77820   0.00000  Uiso   1.00
O1114  O     0.58773   0.48610   0.76768   0.00000  Uiso   1.00
O1115  O     0.47133   0.40236   0.73607   0.00000  Uiso   1.00
O1116  O     0.53771   0.58860   0.71806   0.00000  Uiso   1.00
Zn1117 Zn    0.52577   0.47423   0.78278   0.00000  Uiso   1.00
Zn1118 Zn    0.46792   0.45711   0.72258   0.00000  Uiso   1.00
Zn1119 Zn    0.54500   0.52997   0.71188   0.00000  Uiso   1.00
Zn1120 Zn    0.46131   0.53868   0.78277   0.00000  Uiso   1.00
C1121  C     0.71919   0.49315   0.75877   0.00000  Uiso   1.00
C1122  C     0.85448   0.45630   0.96213   0.00000  Uiso   1.00
C1123  C     0.87506   0.43564   0.98175   0.00000  Uiso   1.00
C1124  C     0.94778   0.50692   0.74120   0.00000  Uiso   1.00
C1125  C     0.86977   0.44551   0.52198   0.00000  Uiso   1.00
C1126  C     0.84057   0.47419   0.54337   0.00000  Uiso   1.00
C1127  C     0.89335   0.42690   0.54103   0.00000  Uiso   1.00
C1128  C     0.88949   0.43732   0.58123   0.00000  Uiso   1.00
C1129  C     0.84096   0.48790   0.58239   0.00000  Uiso   1.00
C1130  C     0.99378   0.50975   0.73773   0.00000  Uiso   1.00
C1131  C     0.67379   0.49060   0.76212   0.00000  Uiso   1.00
C1132  C     0.76067   0.54081   0.91986   0.00000  Uiso   1.00
C1133  C     0.84481   0.65470   0.73306   0.00000  Uiso   1.00
C1134  C     0.82026   0.34544   0.76192   0.00000  Uiso   1.00
C1135  C     0.82210   0.38952   0.75956   0.00000  Uiso   1.00
C1136  C     0.84297   0.61085   0.74006   0.00000  Uiso   1.00
C1137  C     0.85496   0.47853   0.64405   0.00000  Uiso   1.00
C1138  C     0.81278   0.52142   0.85618   0.00000  Uiso   1.00
C1139  C     0.80051   0.52658   0.89969   0.00000  Uiso   1.00
C1140  C     0.86372   0.46887   0.60158   0.00000  Uiso   1.00
C1141  C     0.74593   0.54251   0.96065   0.00000  Uiso   1.00
C1142  C     0.71204   0.54447   0.54515   0.00000  Uiso   1.00
C1143  C     0.82616   0.51469   0.92141   0.00000  Uiso   1.00
C1144  C     0.87259   0.34013   0.69509   0.00000  Uiso   1.00
C1145  C     0.89783   0.64410   0.66221   0.00000  Uiso   1.00
C1146  C     0.91270   0.41432   0.60162   0.00000  Uiso   1.00
C1147  C     0.95547   0.43913   0.60486   0.00000  Uiso   1.00
C1148  C     0.87420   0.51923   0.90530   0.00000  Uiso   1.00
C1149  C     0.75181   0.49904   0.58637   0.00000  Uiso   1.00
C1150  C     0.80742   0.50892   0.96201   0.00000  Uiso   1.00
C1151  C     0.76875   0.52649   0.98247   0.00000  Uiso   1.00
C1152  C     0.82626   0.48600   0.98250   0.00000  Uiso   1.00
C1153  C     0.81378   0.48972   0.52426   0.00000  Uiso   1.00
C1154  C     0.77436   0.50677   0.54474   0.00000  Uiso   1.00
C1155  C     0.75244   0.52572   0.52380   0.00000  Uiso   1.00
H1156  H     0.91449   0.40396   0.52463   0.00000  Uiso   1.00
H1157  H     0.68182   0.59640   0.56084   0.00000  Uiso   1.00
H1158  H     0.92392   0.63312   0.67129   0.00000  Uiso   1.00
H1159  H     0.87575   0.61732   0.65367   0.00000  Uiso   1.00
H1160  H     0.91352   0.66128   0.63586   0.00000  Uiso   1.00
H1161  H     0.85097   0.35372   0.68221   0.00000  Uiso   1.00
H1162  H     0.89616   0.36599   0.70280   0.00000  Uiso   1.00
H1163  H     0.97752   0.44338   0.57498   0.00000  Uiso   1.00
H1164  H     0.95005   0.47013   0.62145   0.00000  Uiso   1.00
H1165  H     0.97121   0.42186   0.62065   0.00000  Uiso   1.00
H1166  H     0.89187   0.40772   0.63143   0.00000  Uiso   1.00
H1167  H     0.68354   0.52750   0.71530   0.00000  Uiso   1.00
H1168  H     0.91956   0.38354   0.58497   0.00000  Uiso   1.00
H1169  H     0.92742   0.49805   0.86685   0.00000  Uiso   1.00
H1170  H     0.72285   0.52291   0.64134   0.00000  Uiso   1.00
H1171  H     0.98470   0.47273   0.78480   0.00000  Uiso   1.00
H1172  H     0.80172   0.33368   0.78977   0.00000  Uiso   1.00
H1173  H     0.82379   0.51363   0.59848   0.00000  Uiso   1.00
H1174  H     0.89631   0.41290   0.96510   0.00000  Uiso   1.00
H1175  H     0.71525   0.55448   0.97452   0.00000  Uiso   1.00
H1176  H     0.74057   0.55072   0.90404   0.00000  Uiso   1.00
H1177  H     0.85927   0.44718   0.93102   0.00000  Uiso   1.00
O1178  O     0.83333   0.50000   0.75000   0.00000  Uiso   1.00
O1179  O     0.82360   0.45726   0.66625   0.00000  Uiso   1.00
O1180  O     0.79354   0.53979   0.83749   0.00000  Uiso   1.00
O1181  O     0.87755   0.50826   0.65877   0.00000  Uiso   1.00
O1182  O     0.83865   0.49468   0.83749   0.00000  Uiso   1.00
O1183  O     0.67986   0.52255   0.56212   0.00000  Uiso   1.00
O1184  O     0.71102   0.58726   0.54549   0.00000  Uiso   1.00
O1185  O     0.89594   0.54676   0.92049   0.00000  Uiso   1.00
O1186  O     0.89472   0.49153   0.87446   0.00000  Uiso   1.00
O1187  O     0.74556   0.46358   0.59620   0.00000  Uiso   1.00
O1188  O     0.73776   0.53224   0.61416   0.00000  Uiso   1.00
O1189  O     0.84515   0.41434   0.77821   0.00000  Uiso   1.00
O1190  O     0.81247   0.59469   0.76767   0.00000  Uiso   1.00
O1191  O     0.74119   0.46584   0.73607   0.00000  Uiso   1.00
O1192  O     0.93452   0.52512   0.71806   0.00000  Uiso   1.00
O1193  O     0.73656   0.52293   0.77820   0.00000  Uiso   1.00
O1194  O     0.92106   0.48610   0.76768   0.00000  Uiso   1.00
O1195  O     0.80467   0.40236   0.73607   0.00000  Uiso   1.00
O1196  O     0.87104   0.58860   0.71806   0.00000  Uiso   1.00
Zn1197 Zn    0.85910   0.47423   0.78278   0.00000  Uiso   1.00
Zn1198 Zn    0.80125   0.45711   0.72258   0.00000  Uiso   1.00
Zn1199 Zn    0.87833   0.52997   0.71188   0.00000  Uiso   1.00
Zn1200 Zn    0.79465   0.53868   0.78277   0.00000  Uiso   1.00
C1201  C     0.05252   0.82648   0.75877   0.00000  Uiso   1.00
C1202  C     0.18781   0.78964   0.96213   0.00000  Uiso   1.00
C1203  C     0.20840   0.76898   0.98175   0.00000  Uiso   1.00
C1204  C     0.28112   0.84026   0.74120   0.00000  Uiso   1.00
C1205  C     0.20311   0.77885   0.52198   0.00000  Uiso   1.00
C1206  C     0.17390   0.80753   0.54337   0.00000  Uiso   1.00
C1207  C     0.22668   0.76024   0.54103   0.00000  Uiso   1.00
C1208  C     0.22282   0.77065   0.58123   0.00000  Uiso   1.00
C1209  C     0.17429   0.82124   0.58239   0.00000  Uiso   1.00
C1210  C     0.32711   0.84309   0.73773   0.00000  Uiso   1.00
C1211  C     0.00712   0.82393   0.76212   0.00000  Uiso   1.00
C1212  C     0.09400   0.87415   0.91986   0.00000  Uiso   1.00
C1213  C     0.17814   0.98803   0.73306   0.00000  Uiso   1.00
C1214  C     0.15359   0.67877   0.76192   0.00000  Uiso   1.00
C1215  C     0.15543   0.72286   0.75956   0.00000  Uiso   1.00
C1216  C     0.17630   0.94419   0.74006   0.00000  Uiso   1.00
C1217  C     0.18829   0.81186   0.64405   0.00000  Uiso   1.00
C1218  C     0.14611   0.85476   0.85618   0.00000  Uiso   1.00
C1219  C     0.13384   0.85992   0.89969   0.00000  Uiso   1.00
C1220  C     0.19705   0.80221   0.60158   0.00000  Uiso   1.00
C1221  C     0.07927   0.87585   0.96065   0.00000  Uiso   1.00
C1222  C     0.04537   0.87781   0.54515   0.00000  Uiso   1.00
C1223  C     0.15949   0.84802   0.92141   0.00000  Uiso   1.00
C1224  C     0.20592   0.67347   0.69509   0.00000  Uiso   1.00
C1225  C     0.23116   0.97744   0.66221   0.00000  Uiso   1.00
C1226  C     0.24603   0.74765   0.60162   0.00000  Uiso   1.00
C1227  C     0.28880   0.77246   0.60486   0.00000  Uiso   1.00
C1228  C     0.20754   0.85256   0.90530   0.00000  Uiso   1.00
C1229  C     0.08514   0.83238   0.58637   0.00000  Uiso   1.00
C1230  C     0.14075   0.84226   0.96201   0.00000  Uiso   1.00
C1231  C     0.10209   0.85982   0.98247   0.00000  Uiso   1.00
C1232  C     0.15959   0.81933   0.98250   0.00000  Uiso   1.00
C1233  C     0.14712   0.82305   0.52426   0.00000  Uiso   1.00
C1234  C     0.10770   0.84011   0.54474   0.00000  Uiso   1.00
C1235  C     0.08578   0.85906   0.52380   0.00000  Uiso   1.00
H1236  H     0.24783   0.73729   0.52463   0.00000  Uiso   1.00
H1237  H     0.01515   0.92974   0.56084   0.00000  Uiso   1.00
H1238  H     0.25725   0.96645   0.67129   0.00000  Uiso   1.00
H1239  H     0.20908   0.95066   0.65367   0.00000  Uiso   1.00
H1240  H     0.24685   0.99461   0.63586   0.00000  Uiso   1.00
H1241  H     0.18430   0.68705   0.68221   0.00000  Uiso   1.00
H1242  H     0.22950   0.69933   0.70280   0.00000  Uiso   1.00
H1243  H     0.31086   0.77671   0.57498   0.00000  Uiso   1.00
H1244  H     0.28338   0.80346   0.62145   0.00000  Uiso   1.00
H1245  H     0.30454   0.75520   0.62065   0.00000  Uiso   1.00
H1246  H     0.22521   0.74105   0.63143   0.00000  Uiso   1.00
H1247  H     0.01687   0.86083   0.71530   0.00000  Uiso   1.00
H1248  H     0.25289   0.71688   0.58497   0.00000  Uiso   1.00
H1249  H     0.26076   0.83138   0.86685   0.00000  Uiso   1.00
H1250  H     0.05619   0.85625   0.64134   0.00000  Uiso   1.00
H1251  H     0.31803   0.80607   0.78480   0.00000  Uiso   1.00
H1252  H     0.13505   0.66701   0.78977   0.00000  Uiso   1.00
H1253  H     0.15712   0.84696   0.59848   0.00000  Uiso   1.00
H1254  H     0.22964   0.74624   0.96510   0.00000  Uiso   1.00
H1255  H     0.04858   0.88782   0.97452   0.00000  Uiso   1.00
H1256  H     0.07390   0.88406   0.90404   0.00000  Uiso   1.00
H1257  H     0.19260   0.78052   0.93102   0.00000  Uiso   1.00
O1258  O     0.16667   0.83333   0.75000   0.00000  Uiso   1.00
O1259  O     0.15693   0.79060   0.66625   0.00000  Uiso   1.00
O1260  O     0.12687   0.87313   0.83749   0.00000  Uiso   1.00
O1261  O     0.21088   0.84159   0.65877   0.00000  Uiso   1.00
O1262  O     0.17198   0.82802   0.83749   0.00000  Uiso   1.00
O1263  O     0.01320   0.85588   0.56212   0.00000  Uiso   1.00
O1264  O     0.04435   0.92060   0.54549   0.00000  Uiso   1.00
O1265  O     0.22928   0.88010   0.92049   0.00000  Uiso   1.00
O1266  O     0.22805   0.82486   0.87446   0.00000  Uiso   1.00
O1267  O     0.07890   0.79692   0.59620   0.00000  Uiso   1.00
O1268  O     0.07110   0.86557   0.61416   0.00000  Uiso   1.00
O1269  O     0.17849   0.74768   0.77821   0.00000  Uiso   1.00
O1270  O     0.14581   0.92803   0.76767   0.00000  Uiso   1.00
O1271  O     0.07452   0.79917   0.73607   0.00000  Uiso   1.00
O1272  O     0.26785   0.85845   0.71806   0.00000  Uiso   1.00
O1273  O     0.06990   0.85627   0.77820   0.00000  Uiso   1.00
O1274  O     0.25440   0.81944   0.76768   0.00000  Uiso   1.00
O1275  O     0.13800   0.73570   0.73607   0.00000  Uiso   1.00
O1276  O     0.20437   0.92193   0.71806   0.00000  Uiso   1.00
Zn1277 Zn    0.19244   0.80756   0.78278   0.00000  Uiso   1.00
Zn1278 Zn    0.13459   0.79044   0.72258   0.00000  Uiso   1.00
Zn1279 Zn    0.21166   0.86331   0.71188   0.00000  Uiso   1.00
Zn1280 Zn    0.12798   0.87202   0.78277   0.00000  Uiso   1.00
C1281  C     0.38586   0.82648   0.75877   0.00000  Uiso   1.00
C1282  C     0.52115   0.78964   0.96213   0.00000  Uiso   1.00
C1283  C     0.54173   0.76898   0.98175   0.00000  Uiso   1.00
C1284  C     0.61445   0.84026   0.74120   0.00000  Uiso   1.00
C1285  C     0.53644   0.77885   0.52198   0.00000  Uiso   1.00
C1286  C     0.50723   0.80753   0.54337   0.00000  Uiso   1.00
C1287  C     0.56001   0.76024   0.54103   0.00000  Uiso   1.00
C1288  C     0.55615   0.77065   0.58123   0.00000  Uiso   1.00
C1289  C     0.50763   0.82124   0.58239   0.00000  Uiso   1.00
C1290  C     0.66045   0.84309   0.73773   0.00000  Uiso   1.00
C1291  C     0.34045   0.82393   0.76212   0.00000  Uiso   1.00
C1292  C     0.42733   0.87415   0.91986   0.00000  Uiso   1.00
C1293  C     0.51148   0.98803   0.73306   0.00000  Uiso   1.00
C1294  C     0.48692   0.67877   0.76192   0.00000  Uiso   1.00
C1295  C     0.48876   0.72286   0.75956   0.00000  Uiso   1.00
C1296  C     0.50964   0.94419   0.74006   0.00000  Uiso   1.00
C1297  C     0.52162   0.81186   0.64405   0.00000  Uiso   1.00
C1298  C     0.47945   0.85476   0.85618   0.00000  Uiso   1.00
C1299  C     0.46717   0.85992   0.89969   0.00000  Uiso   1.00
C1300  C     0.53039   0.80221   0.60158   0.00000  Uiso   1.00
C1301  C     0.41260   0.87585   0.96065   0.00000  Uiso   1.00
C1302  C     0.37871   0.87781   0.54515   0.00000  Uiso   1.00
C1303  C     0.49282   0.84802   0.92141   0.00000  Uiso   1.00
C1304  C     0.53925   0.67347   0.69509   0.00000  Uiso   1.00
C1305  C     0.56450   0.97744   0.66221   0.00000  Uiso   1.00
C1306  C     0.57936   0.74765   0.60162   0.00000  Uiso   1.00
C1307  C     0.62213   0.77246   0.60486   0.00000  Uiso   1.00
C1308  C     0.54087   0.85256   0.90530   0.00000  Uiso   1.00
C1309  C     0.41847   0.83238   0.58637   0.00000  Uiso   1.00
C1310  C     0.47409   0.84226   0.96201   0.00000  Uiso   1.00
C1311  C     0.43542   0.85982   0.98247   0.00000  Uiso   1.00
C1312  C     0.49293   0.81933   0.98250   0.00000  Uiso   1.00
C1313  C     0.48045   0.82305   0.52426   0.00000  Uiso   1.00
C1314  C     0.44103   0.84011   0.54474   0.00000  Uiso   1.00
C1315  C     0.41911   0.85906   0.52380   0.00000  Uiso   1.00
H1316  H     0.58116   0.73729   0.52463   0.00000  Uiso   1.00
H1317  H     0.34849   0.92974   0.56084   0.00000  Uiso   1.00
H1318  H     0.59059   0.96645   0.67129   0.00000  Uiso   1.00
H1319  H     0.54242   0.95066   0.65367   0.00000  Uiso   1.00
H1320  H     0.58018   0.99461   0.63586   0.00000  Uiso   1.00
H1321  H     0.51764   0.68705   0.68221   0.00000  Uiso   1.00
H1322  H     0.56283   0.69933   0.70280   0.00000  Uiso   1.00
H1323  H     0.64419   0.77671   0.57498   0.00000  Uiso   1.00
H1324  H     0.61672   0.80346   0.62145   0.00000  Uiso   1.00
H1325  H     0.63787   0.75520   0.62065   0.00000  Uiso   1.00
H1326  H     0.55854   0.74105   0.63143   0.00000  Uiso   1.00
H1327  H     0.35020   0.86083   0.71530   0.00000  Uiso   1.00
H1328  H     0.58622   0.71688   0.58497   0.00000  Uiso   1.00
H1329  H     0.59409   0.83138   0.86685   0.00000  Uiso   1.00
H1330  H     0.38952   0.85625   0.64134   0.00000  Uiso   1.00
H1331  H     0.65136   0.80607   0.78480   0.00000  Uiso   1.00
H1332  H     0.46839   0.66701   0.78977   0.00000  Uiso   1.00
H1333  H     0.49046   0.84696   0.59848   0.00000  Uiso   1.00
H1334  H     0.56297   0.74624   0.96510   0.00000  Uiso   1.00
H1335  H     0.38192   0.88782   0.97452   0.00000  Uiso   1.00
H1336  H     0.40724   0.88406   0.90404   0.00000  Uiso   1.00
H1337  H     0.52594   0.78052   0.93102   0.00000  Uiso   1.00
O1338  O     0.50000   0.83333   0.75000   0.00000  Uiso   1.00
O1339  O     0.49027   0.79060   0.66625   0.00000  Uiso   1.00
O1340  O     0.46020   0.87313   0.83749   0.00000  Uiso   1.00
O1341  O     0.54421   0.84159   0.65877   0.00000  Uiso   1.00
O1342  O     0.50532   0.82802   0.83749   0.00000  Uiso   1.00
O1343  O     0.34653   0.85588   0.56212   0.00000  Uiso   1.00
O1344  O     0.37769   0.92060   0.54549   0.00000  Uiso   1.00
O1345  O     0.56261   0.88010   0.92049   0.00000  Uiso   1.00
O1346  O     0.56138   0.82486   0.87446   0.00000  Uiso   1.00
O1347  O     0.41223   0.79692   0.59620   0.00000  Uiso   1.00
O1348  O     0.40443   0.86557   0.61416   0.00000  Uiso   1.00
O1349  O     0.51182   0.74768   0.77821   0.00000  Uiso   1.00
O1350  O     0.47914   0.92803   0.76767   0.00000  Uiso   1.00
O1351  O     0.40785   0.79917   0.73607   0.00000  Uiso   1.00
O1352  O     0.60119   0.85845   0.71806   0.00000  Uiso   1.00
O1353  O     0.40323   0.85627   0.77820   0.00000  Uiso   1.00
O1354  O     0.58773   0.81944   0.76768   0.00000  Uiso   1.00
O1355  O     0.47133   0.73570   0.73607   0.00000  Uiso   1.00
O1356  O     0.53771   0.92193   0.71806   0.00000  Uiso   1.00
Zn1357 Zn    0.52577   0.80756   0.78278   0.00000  Uiso   1.00
Zn1358 Zn    0.46792   0.79044   0.72258   0.00000  Uiso   1.00
Zn1359 Zn    0.54500   0.86331   0.71188   0.00000  Uiso   1.00
Zn1360 Zn    0.46131   0.87202   0.78277   0.00000  Uiso   1.00
C1361  C     0.71919   0.82648   0.75877   0.00000  Uiso   1.00
C1362  C     0.85448   0.78964   0.96213   0.00000  Uiso   1.00
C1363  C     0.87506   0.76898   0.98175   0.00000  Uiso   1.00
C1364  C     0.94778   0.84026   0.74120   0.00000  Uiso   1.00
C1365  C     0.86977   0.77885   0.52198   0.00000  Uiso   1.00
C1366  C     0.84057   0.80753   0.54337   0.00000  Uiso   1.00
C1367  C     0.89335   0.76024   0.54103   0.00000  Uiso   1.00
C1368  C     0.88949   0.77065   0.58123   0.00000  Uiso   1.00
C1369  C     0.84096   0.82124   0.58239   0.00000  Uiso   1.00
C1370  C     0.99378   0.84309   0.73773   0.00000  Uiso   1.00
C1371  C     0.67379   0.82393   0.76212   0.00000  Uiso   1.00
C1372  C     0.76067   0.87415   0.91986   0.00000  Uiso   1.00
C1373  C     0.84481   0.98803   0.73306   0.00000  Uiso   1.00
C1374  C     0.82026   0.67877   0.76192   0.00000  Uiso   1.00
C1375  C     0.82210   0.72286   0.75956   0.00000  Uiso   1.00
C1376  C     0.84297   0.94419   0.74006   0.00000  Uiso   1.00
C1377  C     0.85496   0.81186   0.64405   0.00000  Uiso   1.00
C1378  C     0.81278   0.85476   0.85618   0.00000  Uiso   1.00
C1379  C     0.80051   0.85992   0.89969   0.00000  Uiso   1.00
C1380  C     0.86372   0.80221   0.60158   0.00000  Uiso   1.00
C1381  C     0.74593   0.87585   0.96065   0.00000  Uiso   1.00
C1382  C     0.71204   0.87781   0.54515   0.00000  Uiso   1.00
C1383  C     0.82616   0.84802   0.92141   0.00000  Uiso   1.00
C1384  C     0.87259   0.67347   0.69509   0.00000  Uiso   1.00
C1385  C     0.89783   0.97744   0.66221   0.00000  Uiso   1.00
C1386  C     0.91270   0.74765   0.60162   0.00000  Uiso   1.00
C1387  C     0.95547   0.77246   0.60486   0.00000  Uiso   1.00
C1388  C     0.87420   0.85256   0.90530   0.00000  Uiso   1.00
C1389  C     0.75181   0.83238   0.58637   0.00000  Uiso   1.00
C1390  C     0.80742   0.84226   0.96201   0.00000  Uiso   1.00
C1391  C     0.76875   0.85982   0.98247   0.00000  Uiso   1.00
C1392  C     0.82626   0.81933   0.98250   0.00000  Uiso   1.00
C1393  C     0.81378   0.82305   0.52426   0.00000  Uiso   1.00
C1394  C     0.77436   0.84011   0.54474   0.00000  Uiso   1.00
C1395  C     0.75244   0.85906   0.52380   0.00000  Uiso   1.00
H1396  H     0.91449   0.73729   0.52463   0.00000  Uiso   1.00
H1397  H     0.68182   0.92974   0.56084   0.00000  Uiso   1.00
H1398  H     0.92392   0.96645   0.67129   0.00000  Uiso   1.00
H1399  H     0.87575   0.95066   0.65367   0.00000  Uiso   1.00
H1400  H     0.91352   0.99461   0.63586   0.00000  Uiso   1.00
H1401  H     0.85097   0.68705   0.68221   0.00000  Uiso   1.00
H1402  H     0.89616   0.69933   0.70280   0.00000  Uiso   1.00
H1403  H     0.97752   0.77671   0.57498   0.00000  Uiso   1.00
H1404  H     0.95005   0.80346   0.62145   0.00000  Uiso   1.00
H1405  H     0.97121   0.75520   0.62065   0.00000  Uiso   1.00
H1406  H     0.89187   0.74105   0.63143   0.00000  Uiso   1.00
H1407  H     0.68354   0.86083   0.71530   0.00000  Uiso   1.00
H1408  H     0.91956   0.71688   0.58497   0.00000  Uiso   1.00
H1409  H     0.92742   0.83138   0.86685   0.00000  Uiso   1.00
H1410  H     0.72285   0.85625   0.64134   0.00000  Uiso   1.00
H1411  H     0.98470   0.80607   0.78480   0.00000  Uiso   1.00
H1412  H     0.80172   0.66701   0.78977   0.00000  Uiso   1.00
H1413  H     0.82379   0.84696   0.59848   0.00000  Uiso   1.00
H1414  H     0.89631   0.74624   0.96510   0.00000  Uiso   1.00
H1415  H     0.71525   0.88782   0.97452   0.00000  Uiso   1.00
H1416  H     0.74057   0.88406   0.90404   0.00000  Uiso   1.00
H1417  H     0.85927   0.78052   0.93102   0.00000  Uiso   1.00
O1418  O     0.83333   0.83333   0.75000   0.00000  Uiso   1.00
O1419  O     0.82360   0.79060   0.66625   0.00000  Uiso   1.00
O1420  O     0.79354   0.87313   0.83749   0.00000  Uiso   1.00
O1421  O     0.87755   0.84159   0.65877   0.00000  Uiso   1.00
O1422  O     0.83865   0.82802   0.83749   0.00000  Uiso   1.00
O1423  O     0.67986   0.85588   0.56212   0.00000  Uiso   1.00
O1424  O     0.71102   0.92060   0.54549   0.00000  Uiso   1.00
O1425  O     0.89594   0.88010   0.92049   0.00000  Uiso   1.00
O1426  O     0.89472   0.82486   0.87446   0.00000  Uiso   1.00
O1427  O     0.74556   0.79692   0.59620   0.00000  Uiso   1.00
O1428  O     0.73776   0.86557   0.61416   0.00000  Uiso   1.00
O1429  O     0.84515   0.74768   0.77821   0.00000  Uiso   1.00
O1430  O     0.81247   0.92803   0.76767   0.00000  Uiso   1.00
O1431  O     0.74119   0.79917   0.73607   0.00000  Uiso   1.00
O1432  O     0.93452   0.85845   0.71806   0.00000  Uiso   1.00
O1433  O     0.73656   0.85627   0.77820   0.00000  Uiso   1.00
O1434  O     0.92106   0.81944   0.76768   0.00000  Uiso   1.00
O1435  O     0.80467   0.73570   0.73607   0.00000  Uiso   1.00
O1436  O     0.87104   0.92193   0.71806   0.00000  Uiso   1.00
Zn1437 Zn    0.85910   0.80756   0.78278   0.00000  Uiso   1.00
Zn1438 Zn    0.80125   0.79044   0.72258   0.00000  Uiso   1.00
Zn1439 Zn    0.87833   0.86331   0.71188   0.00000  Uiso   1.00
Zn1440 Zn    0.79465   0.87202   0.78277   0.00000  Uiso   1.00
loop_
_geom_bond_atom_site_label_1
_geom_bond_atom_site_label_2
_geom_bond_distance
_geom_bond_site_symmetry_2
_ccdc_geom_bond_type
C1     C11     1.435   .     S
C1     O71     1.272   .     A
C1     O73     1.272   .     A
C2     H57     1.080   .     S
C2     C32     1.413   .     A
C2     C3      1.386   .     A
C3     H54     1.084   .     S
C3     C725    1.391   .     S
C4     O74     1.274   .     A
C4     C10     1.453   .     S
C4     O72     1.277   .     A
C5     C6      1.418   .     A
C5     C7      1.402   .     A
C5     C723    1.391   1_554 S
C6     C9      1.404   .     A
C6     C33     1.430   .     A
C7     H36     1.085   .     S
C7     C8      1.400   .     A
C8     C26     1.514   .     S
C8     C20     1.410   .     A
C9     C20     1.394   .     A
C9     H53     1.081   .     S
C10    C91     1.334   .     S
C10    H127    1.087   .     S
C11    C170    1.334   1_455 S
C11    H211    1.086   1_455 S
C12    C21     1.388   .     A
C12    H56     1.083   .     S
C12    C19     1.399   .     A
C13    C16     1.472   .     S
C13    C254    1.343   .     S
C13    C264    1.539   .     S
C14    H52     1.087   .     S
C14    C15     1.441   .     S
C14    C493    1.343   1_545 S
C15    O75     1.279   .     A
C15    O69     1.271   .     A
C16    O70     1.282   .     A
C16    O76     1.266   .     A
C17    C20     1.455   .     S
C17    O61     1.274   .     A
C17    O59     1.270   .     A
C18    C19     1.476   .     S
C18    O62     1.284   .     A
C18    O60     1.286   .     A
C19    C23     1.412   .     A
C21    C31     1.409   .     A
C21    H55     1.081   .     S
C22    C35     1.487   .     S
C22    O63     1.222   .     D
C22    O64     1.398   .     S
C23    C30     1.423   .     A
C23    C28     1.491   .     S
C24    H42     1.112   .     S
C24    H41     1.111   .     S
C24    C493    1.539   1_545 S
C24    C505    1.529   1_545 S
C25    H40     1.110   .     S
C25    H38     1.110   .     S
C25    H39     1.111   .     S
C25    C264    1.529   .     S
C26    C27     1.525   .     S
C26    H48     1.112   .     S
C26    H46     1.111   .     S
C27    H44     1.110   .     S
C27    H45     1.110   .     S
C27    H43     1.110   .     S
C28    O66     1.398   .     S
C28    O65     1.223   .     D
C29    O67     1.223   .     D
C29    O68     1.398   .     S
C29    C34     1.488   .     S
C30    C32     1.417   .     A
C30    C31     1.418   .     A
C31    C755    1.415   .     S
C32    C753    1.417   .     S
C33    C34     1.430   .     A
C33    C752    1.417   1_554 S
C34    C35     1.418   .     A
C35    C751    1.415   1_554 S
H37    O64     1.014   .     S
H47    C170    1.087   1_455 S
H49    O66     1.014   .     S
H50    O68     1.014   .     S
H51    C91     1.086   .     S
O58    Zn77    1.952   .     S
O58    Zn78    1.943   .     S
O58    Zn79    1.927   .     S
O58    Zn80    1.939   .     S
O59    Zn78    1.926   .     S
O60    Zn80    1.934   .     S
O61    Zn79    1.934   .     S
O62    Zn77    1.928   .     S
O69    Zn77    1.931   .     S
O70    Zn80    1.929   .     S
O71    Zn78    1.925   .     S
O72    Zn79    1.932   .     S
O73    Zn80    1.927   .     S
O74    Zn77    1.919   .     S
O75    Zn78    1.936   .     S
O76    Zn79    1.935   .     S
C81    C91     1.435   .     S
C81    O151    1.272   .     A
C81    O153    1.272   .     A
C82    H137    1.080   .     S
C82    C112    1.413   .     A
C82    C83     1.386   .     A
C83    H134    1.084   .     S
C83    C805    1.391   .     S
C84    O154    1.274   .     A
C84    C90     1.453   .     S
C84    O152    1.277   .     A
C85    C86     1.418   .     A
C85    C87     1.402   .     A
C85    C803    1.391   1_554 S
C86    C89     1.404   .     A
C86    C113    1.430   .     A
C87    H116    1.085   .     S
C87    C88     1.400   .     A
C88    C106    1.514   .     S
C88    C100    1.410   .     A
C89    C100    1.394   .     A
C89    H133    1.081   .     S
C90    C171    1.334   .     S
C90    H207    1.087   .     S
C92    C101    1.388   .     A
C92    H136    1.083   .     S
C92    C99     1.399   .     A
C93    C96     1.472   .     S
C93    C334    1.343   .     S
C93    C344    1.539   .     S
C94    H132    1.087   .     S
C94    C95     1.441   .     S
C94    C573    1.343   1_545 S
C95    O155    1.279   .     A
C95    O149    1.271   .     A
C96    O150    1.282   .     A
C96    O156    1.266   .     A
C97    C100    1.455   .     S
C97    O141    1.274   .     A
C97    O139    1.270   .     A
C98    C99     1.476   .     S
C98    O142    1.284   .     A
C98    O140    1.286   .     A
C99    C103    1.412   .     A
C101   C111    1.409   .     A
C101   H135    1.081   .     S
C102   C115    1.487   .     S
C102   O143    1.222   .     D
C102   O144    1.398   .     S
C103   C110    1.423   .     A
C103   C108    1.491   .     S
C104   H122    1.112   .     S
C104   H121    1.111   .     S
C104   C573    1.539   1_545 S
C104   C585    1.529   1_545 S
C105   H120    1.110   .     S
C105   H118    1.110   .     S
C105   H119    1.111   .     S
C105   C344    1.529   .     S
C106   C107    1.525   .     S
C106   H128    1.112   .     S
C106   H126    1.111   .     S
C107   H124    1.110   .     S
C107   H125    1.110   .     S
C107   H123    1.110   .     S
C108   O146    1.398   .     S
C108   O145    1.223   .     D
C109   O147    1.223   .     D
C109   O148    1.398   .     S
C109   C114    1.488   .     S
C110   C112    1.417   .     A
C110   C111    1.418   .     A
C111   C835    1.415   .     S
C112   C833    1.417   .     S
C113   C114    1.430   .     A
C113   C832    1.417   1_554 S
C114   C115    1.418   .     A
C115   C831    1.415   1_554 S
H117   O144    1.014   .     S
H129   O146    1.014   .     S
H130   O148    1.014   .     S
H131   C171    1.086   .     S
O138   Zn157   1.952   .     S
O138   Zn158   1.943   .     S
O138   Zn159   1.927   .     S
O138   Zn160   1.939   .     S
O139   Zn158   1.926   .     S
O140   Zn160   1.934   .     S
O141   Zn159   1.934   .     S
O142   Zn157   1.928   .     S
O149   Zn157   1.931   .     S
O150   Zn160   1.929   .     S
O151   Zn158   1.925   .     S
O152   Zn159   1.932   .     S
O153   Zn160   1.927   .     S
O154   Zn157   1.919   .     S
O155   Zn158   1.936   .     S
O156   Zn159   1.935   .     S
C161   C171    1.435   .     S
C161   O231    1.272   .     A
C161   O233    1.272   .     A
C162   H217    1.080   .     S
C162   C192    1.413   .     A
C162   C163    1.386   .     A
C163   H214    1.084   .     S
C163   C885    1.391   .     S
C164   O234    1.274   .     A
C164   C170    1.453   .     S
C164   O232    1.277   .     A
C165   C166    1.418   .     A
C165   C167    1.402   .     A
C165   C883    1.391   1_554 S
C166   C169    1.404   .     A
C166   C193    1.430   .     A
C167   H196    1.085   .     S
C167   C168    1.400   .     A
C168   C186    1.514   .     S
C168   C180    1.410   .     A
C169   C180    1.394   .     A
C169   H213    1.081   .     S
C170   C11     1.334   1_655 S
C170   H47     1.087   1_655 S
C172   C181    1.388   .     A
C172   H216    1.083   .     S
C172   C179    1.399   .     A
C173   C176    1.472   .     S
C173   C414    1.343   .     S
C173   C424    1.539   .     S
C174   H212    1.087   .     S
C174   C175    1.441   .     S
C174   C653    1.343   1_545 S
C175   O235    1.279   .     A
C175   O229    1.271   .     A
C176   O230    1.282   .     A
C176   O236    1.266   .     A
C177   C180    1.455   .     S
C177   O221    1.274   .     A
C177   O219    1.270   .     A
C178   C179    1.476   .     S
C178   O222    1.284   .     A
C178   O220    1.286   .     A
C179   C183    1.412   .     A
C181   C191    1.409   .     A
C181   H215    1.081   .     S
C182   C195    1.487   .     S
C182   O223    1.222   .     D
C182   O224    1.398   .     S
C183   C190    1.423   .     A
C183   C188    1.491   .     S
C184   H202    1.112   .     S
C184   H201    1.111   .     S
C184   C653    1.539   1_545 S
C184   C665    1.529   1_545 S
C185   H200    1.110   .     S
C185   H198    1.110   .     S
C185   H199    1.111   .     S
C185   C424    1.529   .     S
C186   C187    1.525   .     S
C186   H208    1.112   .     S
C186   H206    1.111   .     S
C187   H204    1.110   .     S
C187   H205    1.110   .     S
C187   H203    1.110   .     S
C188   O226    1.398   .     S
C188   O225    1.223   .     D
C189   O227    1.223   .     D
C189   O228    1.398   .     S
C189   C194    1.488   .     S
C190   C192    1.417   .     A
C190   C191    1.418   .     A
C191   C915    1.415   .     S
C192   C913    1.417   .     S
C193   C194    1.430   .     A
C193   C912    1.417   1_554 S
C194   C195    1.418   .     A
C195   C911    1.415   1_554 S
H197   O224    1.014   .     S
H209   O226    1.014   .     S
H210   O228    1.014   .     S
H211   C11     1.086   1_655 S
O218   Zn237   1.952   .     S
O218   Zn238   1.943   .     S
O218   Zn239   1.927   .     S
O218   Zn240   1.939   .     S
O219   Zn238   1.926   .     S
O220   Zn240   1.934   .     S
O221   Zn239   1.934   .     S
O222   Zn237   1.928   .     S
O229   Zn237   1.931   .     S
O230   Zn240   1.929   .     S
O231   Zn238   1.925   .     S
O232   Zn239   1.932   .     S
O233   Zn240   1.927   .     S
O234   Zn237   1.919   .     S
O235   Zn238   1.936   .     S
O236   Zn239   1.935   .     S
C241   C251    1.435   .     S
C241   O311    1.272   .     A
C241   O313    1.272   .     A
C242   H297    1.080   .     S
C242   C272    1.413   .     A
C242   C243    1.386   .     A
C243   H294    1.084   .     S
C243   C965    1.391   .     S
C244   O314    1.274   .     A
C244   C250    1.453   .     S
C244   O312    1.277   .     A
C245   C246    1.418   .     A
C245   C247    1.402   .     A
C245   C963    1.391   1_554 S
C246   C249    1.404   .     A
C246   C273    1.430   .     A
C247   H276    1.085   .     S
C247   C248    1.400   .     A
C248   C266    1.514   .     S
C248   C260    1.410   .     A
C249   C260    1.394   .     A
C249   H293    1.081   .     S
C250   C331    1.334   .     S
C250   H367    1.087   .     S
C251   C410    1.334   1_455 S
C251   H451    1.086   1_455 S
C252   C261    1.388   .     A
C252   H296    1.083   .     S
C252   C259    1.399   .     A
C253   C256    1.472   .     S
C253   C494    1.343   .     S
C253   C504    1.539   .     S
C254   H292    1.087   .     S
C254   C255    1.441   .     S
C255   O315    1.279   .     A
C255   O309    1.271   .     A
C256   O310    1.282   .     A
C256   O316    1.266   .     A
C257   C260    1.455   .     S
C257   O301    1.274   .     A
C257   O299    1.270   .     A
C258   C259    1.476   .     S
C258   O302    1.284   .     A
C258   O300    1.286   .     A
C259   C263    1.412   .     A
C261   C271    1.409   .     A
C261   H295    1.081   .     S
C262   C275    1.487   .     S
C262   O303    1.222   .     D
C262   O304    1.398   .     S
C263   C270    1.423   .     A
C263   C268    1.491   .     S
C264   H282    1.112   .     S
C264   H281    1.111   .     S
C265   H280    1.110   .     S
C265   H278    1.110   .     S
C265   H279    1.111   .     S
C265   C504    1.529   .     S
C266   C267    1.525   .     S
C266   H288    1.112   .     S
C266   H286    1.111   .     S
C267   H284    1.110   .     S
C267   H285    1.110   .     S
C267   H283    1.110   .     S
C268   O306    1.398   .     S
C268   O305    1.223   .     D
C269   O307    1.223   .     D
C269   O308    1.398   .     S
C269   C274    1.488   .     S
C270   C272    1.417   .     A
C270   C271    1.418   .     A
C271   C995    1.415   .     S
C272   C993    1.417   .     S
C273   C274    1.430   .     A
C273   C992    1.417   1_554 S
C274   C275    1.418   .     A
C275   C991    1.415   1_554 S
H277   O304    1.014   .     S
H287   C410    1.087   1_455 S
H289   O306    1.014   .     S
H290   O308    1.014   .     S
H291   C331    1.086   .     S
O298   Zn317   1.952   .     S
O298   Zn318   1.943   .     S
O298   Zn319   1.927   .     S
O298   Zn320   1.939   .     S
O299   Zn318   1.926   .     S
O300   Zn320   1.934   .     S
O301   Zn319   1.934   .     S
O302   Zn317   1.928   .     S
O309   Zn317   1.931   .     S
O310   Zn320   1.929   .     S
O311   Zn318   1.925   .     S
O312   Zn319   1.932   .     S
O313   Zn320   1.927   .     S
O314   Zn317   1.919   .     S
O315   Zn318   1.936   .     S
O316   Zn319   1.935   .     S
C321   C331    1.435   .     S
C321   O391    1.272   .     A
C321   O393    1.272   .     A
C322   H377    1.080   .     S
C322   C352    1.413   .     A
C322   C323    1.386   .     A
C323   H374    1.084   .     S
C323   C1045   1.391   .     S
C324   O394    1.274   .     A
C324   C330    1.453   .     S
C324   O392    1.277   .     A
C325   C326    1.418   .     A
C325   C327    1.402   .     A
C325   C1043   1.391   1_554 S
C326   C329    1.404   .     A
C326   C353    1.430   .     A
C327   H356    1.085   .     S
C327   C328    1.400   .     A
C328   C346    1.514   .     S
C328   C340    1.410   .     A
C329   C340    1.394   .     A
C329   H373    1.081   .     S
C330   C411    1.334   .     S
C330   H447    1.087   .     S
C332   C341    1.388   .     A
C332   H376    1.083   .     S
C332   C339    1.399   .     A
C333   C336    1.472   .     S
C333   C574    1.343   .     S
C333   C584    1.539   .     S
C334   H372    1.087   .     S
C334   C335    1.441   .     S
C335   O395    1.279   .     A
C335   O389    1.271   .     A
C336   O390    1.282   .     A
C336   O396    1.266   .     A
C337   C340    1.455   .     S
C337   O381    1.274   .     A
C337   O379    1.270   .     A
C338   C339    1.476   .     S
C338   O382    1.284   .     A
C338   O380    1.286   .     A
C339   C343    1.412   .     A
C341   C351    1.409   .     A
C341   H375    1.081   .     S
C342   C355    1.487   .     S
C342   O383    1.222   .     D
C342   O384    1.398   .     S
C343   C350    1.423   .     A
C343   C348    1.491   .     S
C344   H362    1.112   .     S
C344   H361    1.111   .     S
C345   H360    1.110   .     S
C345   H358    1.110   .     S
C345   H359    1.111   .     S
C345   C584    1.529   .     S
C346   C347    1.525   .     S
C346   H368    1.112   .     S
C346   H366    1.111   .     S
C347   H364    1.110   .     S
C347   H365    1.110   .     S
C347   H363    1.110   .     S
C348   O386    1.398   .     S
C348   O385    1.223   .     D
C349   O387    1.223   .     D
C349   O388    1.398   .     S
C349   C354    1.488   .     S
C350   C352    1.417   .     A
C350   C351    1.418   .     A
C351   C1075   1.415   .     S
C352   C1073   1.417   .     S
C353   C354    1.430   .     A
C353   C1072   1.417   1_554 S
C354   C355    1.418   .     A
C355   C1071   1.415   1_554 S
H357   O384    1.014   .     S
H369   O386    1.014   .     S
H370   O388    1.014   .     S
H371   C411    1.086   .     S
O378   Zn397   1.952   .     S
O378   Zn398   1.943   .     S
O378   Zn399   1.927   .     S
O378   Zn400   1.939   .     S
O379   Zn398   1.926   .     S
O380   Zn400   1.934   .     S
O381   Zn399   1.934   .     S
O382   Zn397   1.928   .     S
O389   Zn397   1.931   .     S
O390   Zn400   1.929   .     S
O391   Zn398   1.925   .     S
O392   Zn399   1.932   .     S
O393   Zn400   1.927   .     S
O394   Zn397   1.919   .     S
O395   Zn398   1.936   .     S
O396   Zn399   1.935   .     S
C401   C411    1.435   .     S
C401   O471    1.272   .     A
C401   O473    1.272   .     A
C402   H457    1.080   .     S
C402   C432    1.413   .     A
C402   C403    1.386   .     A
C403   H454    1.084   .     S
C403   C1125   1.391   .     S
C404   O474    1.274   .     A
C404   C410    1.453   .     S
C404   O472    1.277   .     A
C405   C406    1.418   .     A
C405   C407    1.402   .     A
C405   C1123   1.391   1_554 S
C406   C409    1.404   .     A
C406   C433    1.430   .     A
C407   H436    1.085   .     S
C407   C408    1.400   .     A
C408   C426    1.514   .     S
C408   C420    1.410   .     A
C409   C420    1.394   .     A
C409   H453    1.081   .     S
C410   C251    1.334   1_655 S
C410   H287    1.087   1_655 S
C412   C421    1.388   .     A
C412   H456    1.083   .     S
C412   C419    1.399   .     A
C413   C416    1.472   .     S
C413   C654    1.343   .     S
C413   C664    1.539   .     S
C414   H452    1.087   .     S
C414   C415    1.441   .     S
C415   O475    1.279   .     A
C415   O469    1.271   .     A
C416   O470    1.282   .     A
C416   O476    1.266   .     A
C417   C420    1.455   .     S
C417   O461    1.274   .     A
C417   O459    1.270   .     A
C418   C419    1.476   .     S
C418   O462    1.284   .     A
C418   O460    1.286   .     A
C419   C423    1.412   .     A
C421   C431    1.409   .     A
C421   H455    1.081   .     S
C422   C435    1.487   .     S
C422   O463    1.222   .     D
C422   O464    1.398   .     S
C423   C430    1.423   .     A
C423   C428    1.491   .     S
C424   H442    1.112   .     S
C424   H441    1.111   .     S
C425   H440    1.110   .     S
C425   H438    1.110   .     S
C425   H439    1.111   .     S
C425   C664    1.529   .     S
C426   C427    1.525   .     S
C426   H448    1.112   .     S
C426   H446    1.111   .     S
C427   H444    1.110   .     S
C427   H445    1.110   .     S
C427   H443    1.110   .     S
C428   O466    1.398   .     S
C428   O465    1.223   .     D
C429   O467    1.223   .     D
C429   O468    1.398   .     S
C429   C434    1.488   .     S
C430   C432    1.417   .     A
C430   C431    1.418   .     A
C431   C1155   1.415   .     S
C432   C1153   1.417   .     S
C433   C434    1.430   .     A
C433   C1152   1.417   1_554 S
C434   C435    1.418   .     A
C435   C1151   1.415   1_554 S
H437   O464    1.014   .     S
H449   O466    1.014   .     S
H450   O468    1.014   .     S
H451   C251    1.086   1_655 S
O458   Zn477   1.952   .     S
O458   Zn478   1.943   .     S
O458   Zn479   1.927   .     S
O458   Zn480   1.939   .     S
O459   Zn478   1.926   .     S
O460   Zn480   1.934   .     S
O461   Zn479   1.934   .     S
O462   Zn477   1.928   .     S
O469   Zn477   1.931   .     S
O470   Zn480   1.929   .     S
O471   Zn478   1.925   .     S
O472   Zn479   1.932   .     S
O473   Zn480   1.927   .     S
O474   Zn477   1.919   .     S
O475   Zn478   1.936   .     S
O476   Zn479   1.935   .     S
C481   C491    1.435   .     S
C481   O551    1.272   .     A
C481   O553    1.272   .     A
C482   H537    1.080   .     S
C482   C512    1.413   .     A
C482   C483    1.386   .     A
C483   H534    1.084   .     S
C483   C1205   1.391   .     S
C484   O554    1.274   .     A
C484   C490    1.453   .     S
C484   O552    1.277   .     A
C485   C486    1.418   .     A
C485   C487    1.402   .     A
C485   C1203   1.391   1_554 S
C486   C489    1.404   .     A
C486   C513    1.430   .     A
C487   H516    1.085   .     S
C487   C488    1.400   .     A
C488   C506    1.514   .     S
C488   C500    1.410   .     A
C489   C500    1.394   .     A
C489   H533    1.081   .     S
C490   C571    1.334   .     S
C490   H607    1.087   .     S
C491   C650    1.334   1_455 S
C491   H691    1.086   1_455 S
C492   C501    1.388   .     A
C492   H536    1.083   .     S
C492   C499    1.399   .     A
C493   C496    1.472   .     S
C493   C14     1.343   1_565 S
C493   C24     1.539   1_565 S
C494   H532    1.087   .     S
C494   C495    1.441   .     S
C495   O555    1.279   .     A
C495   O549    1.271   .     A
C496   O550    1.282   .     A
C496   O556    1.266   .     A
C497   C500    1.455   .     S
C497   O541    1.274   .     A
C497   O539    1.270   .     A
C498   C499    1.476   .     S
C498   O542    1.284   .     A
C498   O540    1.286   .     A
C499   C503    1.412   .     A
C501   C511    1.409   .     A
C501   H535    1.081   .     S
C502   C515    1.487   .     S
C502   O543    1.222   .     D
C502   O544    1.398   .     S
C503   C510    1.423   .     A
C503   C508    1.491   .     S
C504   H522    1.112   .     S
C504   H521    1.111   .     S
C505   H520    1.110   .     S
C505   H518    1.110   .     S
C505   H519    1.111   .     S
C505   C24     1.529   1_565 S
C506   C507    1.525   .     S
C506   H528    1.112   .     S
C506   H526    1.111   .     S
C507   H524    1.110   .     S
C507   H525    1.110   .     S
C507   H523    1.110   .     S
C508   O546    1.398   .     S
C508   O545    1.223   .     D
C509   O547    1.223   .     D
C509   O548    1.398   .     S
C509   C514    1.488   .     S
C510   C512    1.417   .     A
C510   C511    1.418   .     A
C511   C1235   1.415   .     S
C512   C1233   1.417   .     S
C513   C514    1.430   .     A
C513   C1232   1.417   1_554 S
C514   C515    1.418   .     A
C515   C1231   1.415   1_554 S
H517   O544    1.014   .     S
H527   C650    1.087   1_455 S
H529   O546    1.014   .     S
H530   O548    1.014   .     S
H531   C571    1.086   .     S
O538   Zn557   1.952   .     S
O538   Zn558   1.943   .     S
O538   Zn559   1.927   .     S
O538   Zn560   1.939   .     S
O539   Zn558   1.926   .     S
O540   Zn560   1.934   .     S
O541   Zn559   1.934   .     S
O542   Zn557   1.928   .     S
O549   Zn557   1.931   .     S
O550   Zn560   1.929   .     S
O551   Zn558   1.925   .     S
O552   Zn559   1.932   .     S
O553   Zn560   1.927   .     S
O554   Zn557   1.919   .     S
O555   Zn558   1.936   .     S
O556   Zn559   1.935   .     S
C561   C571    1.435   .     S
C561   O631    1.272   .     A
C561   O633    1.272   .     A
C562   H617    1.080   .     S
C562   C592    1.413   .     A
C562   C563    1.386   .     A
C563   H614    1.084   .     S
C563   C1285   1.391   .     S
C564   O634    1.274   .     A
C564   C570    1.453   .     S
C564   O632    1.277   .     A
C565   C566    1.418   .     A
C565   C567    1.402   .     A
C565   C1283   1.391   1_554 S
C566   C569    1.404   .     A
C566   C593    1.430   .     A
C567   H596    1.085   .     S
C567   C568    1.400   .     A
C568   C586    1.514   .     S
C568   C580    1.410   .     A
C569   C580    1.394   .     A
C569   H613    1.081   .     S
C570   C651    1.334   .     S
C570   H687    1.087   .     S
C572   C581    1.388   .     A
C572   H616    1.083   .     S
C572   C579    1.399   .     A
C573   C576    1.472   .     S
C573   C94     1.343   1_565 S
C573   C104    1.539   1_565 S
C574   H612    1.087   .     S
C574   C575    1.441   .     S
C575   O635    1.279   .     A
C575   O629    1.271   .     A
C576   O630    1.282   .     A
C576   O636    1.266   .     A
C577   C580    1.455   .     S
C577   O621    1.274   .     A
C577   O619    1.270   .     A
C578   C579    1.476   .     S
C578   O622    1.284   .     A
C578   O620    1.286   .     A
C579   C583    1.412   .     A
C581   C591    1.409   .     A
C581   H615    1.081   .     S
C582   C595    1.487   .     S
C582   O623    1.222   .     D
C582   O624    1.398   .     S
C583   C590    1.423   .     A
C583   C588    1.491   .     S
C584   H602    1.112   .     S
C584   H601    1.111   .     S
C585   H600    1.110   .     S
C585   H598    1.110   .     S
C585   H599    1.111   .     S
C585   C104    1.529   1_565 S
C586   C587    1.525   .     S
C586   H608    1.112   .     S
C586   H606    1.111   .     S
C587   H604    1.110   .     S
C587   H605    1.110   .     S
C587   H603    1.110   .     S
C588   O626    1.398   .     S
C588   O625    1.223   .     D
C589   O627    1.223   .     D
C589   O628    1.398   .     S
C589   C594    1.488   .     S
C590   C592    1.417   .     A
C590   C591    1.418   .     A
C591   C1315   1.415   .     S
C592   C1313   1.417   .     S
C593   C594    1.430   .     A
C593   C1312   1.417   1_554 S
C594   C595    1.418   .     A
C595   C1311   1.415   1_554 S
H597   O624    1.014   .     S
H609   O626    1.014   .     S
H610   O628    1.014   .     S
H611   C651    1.086   .     S
O618   Zn637   1.952   .     S
O618   Zn638   1.943   .     S
O618   Zn639   1.927   .     S
O618   Zn640   1.939   .     S
O619   Zn638   1.926   .     S
O620   Zn640   1.934   .     S
O621   Zn639   1.934   .     S
O622   Zn637   1.928   .     S
O629   Zn637   1.931   .     S
O630   Zn640   1.929   .     S
O631   Zn638   1.925   .     S
O632   Zn639   1.932   .     S
O633   Zn640   1.927   .     S
O634   Zn637   1.919   .     S
O635   Zn638   1.936   .     S
O636   Zn639   1.935   .     S
C641   C651    1.435   .     S
C641   O711    1.272   .     A
C641   O713    1.272   .     A
C642   H697    1.080   .     S
C642   C672    1.413   .     A
C642   C643    1.386   .     A
C643   H694    1.084   .     S
C643   C1365   1.391   .     S
C644   O714    1.274   .     A
C644   C650    1.453   .     S
C644   O712    1.277   .     A
C645   C646    1.418   .     A
C645   C647    1.402   .     A
C645   C1363   1.391   1_554 S
C646   C649    1.404   .     A
C646   C673    1.430   .     A
C647   H676    1.085   .     S
C647   C648    1.400   .     A
C648   C666    1.514   .     S
C648   C660    1.410   .     A
C649   C660    1.394   .     A
C649   H693    1.081   .     S
C650   C491    1.334   1_655 S
C650   H527    1.087   1_655 S
C652   C661    1.388   .     A
C652   H696    1.083   .     S
C652   C659    1.399   .     A
C653   C656    1.472   .     S
C653   C174    1.343   1_565 S
C653   C184    1.539   1_565 S
C654   H692    1.087   .     S
C654   C655    1.441   .     S
C655   O715    1.279   .     A
C655   O709    1.271   .     A
C656   O710    1.282   .     A
C656   O716    1.266   .     A
C657   C660    1.455   .     S
C657   O701    1.274   .     A
C657   O699    1.270   .     A
C658   C659    1.476   .     S
C658   O702    1.284   .     A
C658   O700    1.286   .     A
C659   C663    1.412   .     A
C661   C671    1.409   .     A
C661   H695    1.081   .     S
C662   C675    1.487   .     S
C662   O703    1.222   .     D
C662   O704    1.398   .     S
C663   C670    1.423   .     A
C663   C668    1.491   .     S
C664   H682    1.112   .     S
C664   H681    1.111   .     S
C665   H680    1.110   .     S
C665   H678    1.110   .     S
C665   H679    1.111   .     S
C665   C184    1.529   1_565 S
C666   C667    1.525   .     S
C666   H688    1.112   .     S
C666   H686    1.111   .     S
C667   H684    1.110   .     S
C667   H685    1.110   .     S
C667   H683    1.110   .     S
C668   O706    1.398   .     S
C668   O705    1.223   .     D
C669   O707    1.223   .     D
C669   O708    1.398   .     S
C669   C674    1.488   .     S
C670   C672    1.417   .     A
C670   C671    1.418   .     A
C671   C1395   1.415   .     S
C672   C1393   1.417   .     S
C673   C674    1.430   .     A
C673   C1392   1.417   1_554 S
C674   C675    1.418   .     A
C675   C1391   1.415   1_554 S
H677   O704    1.014   .     S
H689   O706    1.014   .     S
H690   O708    1.014   .     S
H691   C491    1.086   1_655 S
O698   Zn717   1.952   .     S
O698   Zn718   1.943   .     S
O698   Zn719   1.927   .     S
O698   Zn720   1.939   .     S
O699   Zn718   1.926   .     S
O700   Zn720   1.934   .     S
O701   Zn719   1.934   .     S
O702   Zn717   1.928   .     S
O709   Zn717   1.931   .     S
O710   Zn720   1.929   .     S
O711   Zn718   1.925   .     S
O712   Zn719   1.932   .     S
O713   Zn720   1.927   .     S
O714   Zn717   1.919   .     S
O715   Zn718   1.936   .     S
O716   Zn719   1.935   .     S
C721   C731    1.435   .     S
C721   O791    1.272   .     A
C721   O793    1.272   .     A
C722   H777    1.080   .     S
C722   C752    1.413   .     A
C722   C723    1.386   .     A
C723   H774    1.084   .     S
C723   C5      1.391   1_556 S
C724   O794    1.274   .     A
C724   C730    1.453   .     S
C724   O792    1.277   .     A
C725   C726    1.418   .     A
C725   C727    1.402   .     A
C726   C729    1.404   .     A
C726   C753    1.430   .     A
C727   H756    1.085   .     S
C727   C728    1.400   .     A
C728   C746    1.514   .     S
C728   C740    1.410   .     A
C729   C740    1.394   .     A
C729   H773    1.081   .     S
C730   C811    1.334   .     S
C730   H847    1.087   .     S
C731   C890    1.334   1_455 S
C731   H931    1.086   1_455 S
C732   C741    1.388   .     A
C732   H776    1.083   .     S
C732   C739    1.399   .     A
C733   C736    1.472   .     S
C733   C974    1.343   .     S
C733   C984    1.539   .     S
C734   H772    1.087   .     S
C734   C735    1.441   .     S
C734   C1213   1.343   1_545 S
C735   O795    1.279   .     A
C735   O789    1.271   .     A
C736   O790    1.282   .     A
C736   O796    1.266   .     A
C737   C740    1.455   .     S
C737   O781    1.274   .     A
C737   O779    1.270   .     A
C738   C739    1.476   .     S
C738   O782    1.284   .     A
C738   O780    1.286   .     A
C739   C743    1.412   .     A
C741   C751    1.409   .     A
C741   H775    1.081   .     S
C742   C755    1.487   .     S
C742   O783    1.222   .     D
C742   O784    1.398   .     S
C743   C750    1.423   .     A
C743   C748    1.491   .     S
C744   H762    1.112   .     S
C744   H761    1.111   .     S
C744   C1213   1.539   1_545 S
C744   C1225   1.529   1_545 S
C745   H760    1.110   .     S
C745   H758    1.110   .     S
C745   H759    1.111   .     S
C745   C984    1.529   .     S
C746   C747    1.525   .     S
C746   H768    1.112   .     S
C746   H766    1.111   .     S
C747   H764    1.110   .     S
C747   H765    1.110   .     S
C747   H763    1.110   .     S
C748   O786    1.398   .     S
C748   O785    1.223   .     D
C749   O787    1.223   .     D
C749   O788    1.398   .     S
C749   C754    1.488   .     S
C750   C752    1.417   .     A
C750   C751    1.418   .     A
C751   C35     1.415   1_556 S
C752   C33     1.417   1_556 S
C753   C754    1.430   .     A
C754   C755    1.418   .     A
H757   O784    1.014   .     S
H767   C890    1.087   1_455 S
H769   O786    1.014   .     S
H770   O788    1.014   .     S
H771   C811    1.086   .     S
O778   Zn797   1.952   .     S
O778   Zn798   1.943   .     S
O778   Zn799   1.927   .     S
O778   Zn800   1.939   .     S
O779   Zn798   1.926   .     S
O780   Zn800   1.934   .     S
O781   Zn799   1.934   .     S
O782   Zn797   1.928   .     S
O789   Zn797   1.931   .     S
O790   Zn800   1.929   .     S
O791   Zn798   1.925   .     S
O792   Zn799   1.932   .     S
O793   Zn800   1.927   .     S
O794   Zn797   1.919   .     S
O795   Zn798   1.936   .     S
O796   Zn799   1.935   .     S
C801   C811    1.435   .     S
C801   O871    1.272   .     A
C801   O873    1.272   .     A
C802   H857    1.080   .     S
C802   C832    1.413   .     A
C802   C803    1.386   .     A
C803   H854    1.084   .     S
C803   C85     1.391   1_556 S
C804   O874    1.274   .     A
C804   C810    1.453   .     S
C804   O872    1.277   .     A
C805   C806    1.418   .     A
C805   C807    1.402   .     A
C806   C809    1.404   .     A
C806   C833    1.430   .     A
C807   H836    1.085   .     S
C807   C808    1.400   .     A
C808   C826    1.514   .     S
C808   C820    1.410   .     A
C809   C820    1.394   .     A
C809   H853    1.081   .     S
C810   C891    1.334   .     S
C810   H927    1.087   .     S
C812   C821    1.388   .     A
C812   H856    1.083   .     S
C812   C819    1.399   .     A
C813   C816    1.472   .     S
C813   C1054   1.343   .     S
C813   C1064   1.539   .     S
C814   H852    1.087   .     S
C814   C815    1.441   .     S
C814   C1293   1.343   1_545 S
C815   O875    1.279   .     A
C815   O869    1.271   .     A
C816   O870    1.282   .     A
C816   O876    1.266   .     A
C817   C820    1.455   .     S
C817   O861    1.274   .     A
C817   O859    1.270   .     A
C818   C819    1.476   .     S
C818   O862    1.284   .     A
C818   O860    1.286   .     A
C819   C823    1.412   .     A
C821   C831    1.409   .     A
C821   H855    1.081   .     S
C822   C835    1.487   .     S
C822   O863    1.222   .     D
C822   O864    1.398   .     S
C823   C830    1.423   .     A
C823   C828    1.491   .     S
C824   H842    1.112   .     S
C824   H841    1.111   .     S
C824   C1293   1.539   1_545 S
C824   C1305   1.529   1_545 S
C825   H840    1.110   .     S
C825   H838    1.110   .     S
C825   H839    1.111   .     S
C825   C1064   1.529   .     S
C826   C827    1.525   .     S
C826   H848    1.112   .     S
C826   H846    1.111   .     S
C827   H844    1.110   .     S
C827   H845    1.110   .     S
C827   H843    1.110   .     S
C828   O866    1.398   .     S
C828   O865    1.223   .     D
C829   O867    1.223   .     D
C829   O868    1.398   .     S
C829   C834    1.488   .     S
C830   C832    1.417   .     A
C830   C831    1.418   .     A
C831   C115    1.415   1_556 S
C832   C113    1.417   1_556 S
C833   C834    1.430   .     A
C834   C835    1.418   .     A
H837   O864    1.014   .     S
H849   O866    1.014   .     S
H850   O868    1.014   .     S
H851   C891    1.086   .     S
O858   Zn877   1.952   .     S
O858   Zn878   1.943   .     S
O858   Zn879   1.927   .     S
O858   Zn880   1.939   .     S
O859   Zn878   1.926   .     S
O860   Zn880   1.934   .     S
O861   Zn879   1.934   .     S
O862   Zn877   1.928   .     S
O869   Zn877   1.931   .     S
O870   Zn880   1.929   .     S
O871   Zn878   1.925   .     S
O872   Zn879   1.932   .     S
O873   Zn880   1.927   .     S
O874   Zn877   1.919   .     S
O875   Zn878   1.936   .     S
O876   Zn879   1.935   .     S
C881   C891    1.435   .     S
C881   O951    1.272   .     A
C881   O953    1.272   .     A
C882   H937    1.080   .     S
C882   C912    1.413   .     A
C882   C883    1.386   .     A
C883   H934    1.084   .     S
C883   C165    1.391   1_556 S
C884   O954    1.274   .     A
C884   C890    1.453   .     S
C884   O952    1.277   .     A
C885   C886    1.418   .     A
C885   C887    1.402   .     A
C886   C889    1.404   .     A
C886   C913    1.430   .     A
C887   H916    1.085   .     S
C887   C888    1.400   .     A
C888   C906    1.514   .     S
C888   C900    1.410   .     A
C889   C900    1.394   .     A
C889   H933    1.081   .     S
C890   C731    1.334   1_655 S
C890   H767    1.087   1_655 S
C892   C901    1.388   .     A
C892   H936    1.083   .     S
C892   C899    1.399   .     A
C893   C896    1.472   .     S
C893   C1134   1.343   .     S
C893   C1144   1.539   .     S
C894   H932    1.087   .     S
C894   C895    1.441   .     S
C894   C1373   1.343   1_545 S
C895   O955    1.279   .     A
C895   O949    1.271   .     A
C896   O950    1.282   .     A
C896   O956    1.266   .     A
C897   C900    1.455   .     S
C897   O941    1.274   .     A
C897   O939    1.270   .     A
C898   C899    1.476   .     S
C898   O942    1.284   .     A
C898   O940    1.286   .     A
C899   C903    1.412   .     A
C901   C911    1.409   .     A
C901   H935    1.081   .     S
C902   C915    1.487   .     S
C902   O943    1.222   .     D
C902   O944    1.398   .     S
C903   C910    1.423   .     A
C903   C908    1.491   .     S
C904   H922    1.112   .     S
C904   H921    1.111   .     S
C904   C1373   1.539   1_545 S
C904   C1385   1.529   1_545 S
C905   H920    1.110   .     S
C905   H918    1.110   .     S
C905   H919    1.111   .     S
C905   C1144   1.529   .     S
C906   C907    1.525   .     S
C906   H928    1.112   .     S
C906   H926    1.111   .     S
C907   H924    1.110   .     S
C907   H925    1.110   .     S
C907   H923    1.110   .     S
C908   O946    1.398   .     S
C908   O945    1.223   .     D
C909   O947    1.223   .     D
C909   O948    1.398   .     S
C909   C914    1.488   .     S
C910   C912    1.417   .     A
C910   C911    1.418   .     A
C911   C195    1.415   1_556 S
C912   C193    1.417   1_556 S
C913   C914    1.430   .     A
C914   C915    1.418   .     A
H917   O944    1.014   .     S
H929   O946    1.014   .     S
H930   O948    1.014   .     S
H931   C731    1.086   1_655 S
O938   Zn957   1.952   .     S
O938   Zn958   1.943   .     S
O938   Zn959   1.927   .     S
O938   Zn960   1.939   .     S
O939   Zn958   1.926   .     S
O940   Zn960   1.934   .     S
O941   Zn959   1.934   .     S
O942   Zn957   1.928   .     S
O949   Zn957   1.931   .     S
O950   Zn960   1.929   .     S
O951   Zn958   1.925   .     S
O952   Zn959   1.932   .     S
O953   Zn960   1.927   .     S
O954   Zn957   1.919   .     S
O955   Zn958   1.936   .     S
O956   Zn959   1.935   .     S
C961   C971    1.435   .     S
C961   O1031   1.272   .     A
C961   O1033   1.272   .     A
C962   H1017   1.080   .     S
C962   C992    1.413   .     A
C962   C963    1.386   .     A
C963   H1014   1.084   .     S
C963   C245    1.391   1_556 S
C964   O1034   1.274   .     A
C964   C970    1.453   .     S
C964   O1032   1.277   .     A
C965   C966    1.418   .     A
C965   C967    1.402   .     A
C966   C969    1.404   .     A
C966   C993    1.430   .     A
C967   H996    1.085   .     S
C967   C968    1.400   .     A
C968   C986    1.514   .     S
C968   C980    1.410   .     A
C969   C980    1.394   .     A
C969   H1013   1.081   .     S
C970   C1051   1.334   .     S
C970   H1087   1.087   .     S
C971   C1130   1.334   1_455 S
C971   H1171   1.086   1_455 S
C972   C981    1.388   .     A
C972   H1016   1.083   .     S
C972   C979    1.399   .     A
C973   C976    1.472   .     S
C973   C1214   1.343   .     S
C973   C1224   1.539   .     S
C974   H1012   1.087   .     S
C974   C975    1.441   .     S
C975   O1035   1.279   .     A
C975   O1029   1.271   .     A
C976   O1030   1.282   .     A
C976   O1036   1.266   .     A
C977   C980    1.455   .     S
C977   O1021   1.274   .     A
C977   O1019   1.270   .     A
C978   C979    1.476   .     S
C978   O1022   1.284   .     A
C978   O1020   1.286   .     A
C979   C983    1.412   .     A
C981   C991    1.409   .     A
C981   H1015   1.081   .     S
C982   C995    1.487   .     S
C982   O1023   1.222   .     D
C982   O1024   1.398   .     S
C983   C990    1.423   .     A
C983   C988    1.491   .     S
C984   H1002   1.112   .     S
C984   H1001   1.111   .     S
C985   H1000   1.110   .     S
C985   H998    1.110   .     S
C985   H999    1.111   .     S
C985   C1224   1.529   .     S
C986   C987    1.525   .     S
C986   H1008   1.112   .     S
C986   H1006   1.111   .     S
C987   H1004   1.110   .     S
C987   H1005   1.110   .     S
C987   H1003   1.110   .     S
C988   O1026   1.398   .     S
C988   O1025   1.223   .     D
C989   O1027   1.223   .     D
C989   O1028   1.398   .     S
C989   C994    1.488   .     S
C990   C992    1.417   .     A
C990   C991    1.418   .     A
C991   C275    1.415   1_556 S
C992   C273    1.417   1_556 S
C993   C994    1.430   .     A
C994   C995    1.418   .     A
H997   O1024   1.014   .     S
H1007  C1130   1.087   1_455 S
H1009  O1026   1.014   .     S
H1010  O1028   1.014   .     S
H1011  C1051   1.086   .     S
O1018  Zn1037  1.952   .     S
O1018  Zn1038  1.943   .     S
O1018  Zn1039  1.927   .     S
O1018  Zn1040  1.939   .     S
O1019  Zn1038  1.926   .     S
O1020  Zn1040  1.934   .     S
O1021  Zn1039  1.934   .     S
O1022  Zn1037  1.928   .     S
O1029  Zn1037  1.931   .     S
O1030  Zn1040  1.929   .     S
O1031  Zn1038  1.925   .     S
O1032  Zn1039  1.932   .     S
O1033  Zn1040  1.927   .     S
O1034  Zn1037  1.919   .     S
O1035  Zn1038  1.936   .     S
O1036  Zn1039  1.935   .     S
C1041  C1051   1.435   .     S
C1041  O1111   1.272   .     A
C1041  O1113   1.272   .     A
C1042  H1097   1.080   .     S
C1042  C1072   1.413   .     A
C1042  C1043   1.386   .     A
C1043  H1094   1.084   .     S
C1043  C325    1.391   1_556 S
C1044  O1114   1.274   .     A
C1044  C1050   1.453   .     S
C1044  O1112   1.277   .     A
C1045  C1046   1.418   .     A
C1045  C1047   1.402   .     A
C1046  C1049   1.404   .     A
C1046  C1073   1.430   .     A
C1047  H1076   1.085   .     S
C1047  C1048   1.400   .     A
C1048  C1066   1.514   .     S
C1048  C1060   1.410   .     A
C1049  C1060   1.394   .     A
C1049  H1093   1.081   .     S
C1050  C1131   1.334   .     S
C1050  H1167   1.087   .     S
C1052  C1061   1.388   .     A
C1052  H1096   1.083   .     S
C1052  C1059   1.399   .     A
C1053  C1056   1.472   .     S
C1053  C1294   1.343   .     S
C1053  C1304   1.539   .     S
C1054  H1092   1.087   .     S
C1054  C1055   1.441   .     S
C1055  O1115   1.279   .     A
C1055  O1109   1.271   .     A
C1056  O1110   1.282   .     A
C1056  O1116   1.266   .     A
C1057  C1060   1.455   .     S
C1057  O1101   1.274   .     A
C1057  O1099   1.270   .     A
C1058  C1059   1.476   .     S
C1058  O1102   1.284   .     A
C1058  O1100   1.286   .     A
C1059  C1063   1.412   .     A
C1061  C1071   1.409   .     A
C1061  H1095   1.081   .     S
C1062  C1075   1.487   .     S
C1062  O1103   1.222   .     D
C1062  O1104   1.398   .     S
C1063  C1070   1.423   .     A
C1063  C1068   1.491   .     S
C1064  H1082   1.112   .     S
C1064  H1081   1.111   .     S
C1065  H1080   1.110   .     S
C1065  H1078   1.110   .     S
C1065  H1079   1.111   .     S
C1065  C1304   1.529   .     S
C1066  C1067   1.525   .     S
C1066  H1088   1.112   .     S
C1066  H1086   1.111   .     S
C1067  H1084   1.110   .     S
C1067  H1085   1.110   .     S
C1067  H1083   1.110   .     S
C1068  O1106   1.398   .     S
C1068  O1105   1.223   .     D
C1069  O1107   1.223   .     D
C1069  O1108   1.398   .     S
C1069  C1074   1.488   .     S
C1070  C1072   1.417   .     A
C1070  C1071   1.418   .     A
C1071  C355    1.415   1_556 S
C1072  C353    1.417   1_556 S
C1073  C1074   1.430   .     A
C1074  C1075   1.418   .     A
H1077  O1104   1.014   .     S
H1089  O1106   1.014   .     S
H1090  O1108   1.014   .     S
H1091  C1131   1.086   .     S
O1098  Zn1117  1.952   .     S
O1098  Zn1118  1.943   .     S
O1098  Zn1119  1.927   .     S
O1098  Zn1120  1.939   .     S
O1099  Zn1118  1.926   .     S
O1100  Zn1120  1.934   .     S
O1101  Zn1119  1.934   .     S
O1102  Zn1117  1.928   .     S
O1109  Zn1117  1.931   .     S
O1110  Zn1120  1.929   .     S
O1111  Zn1118  1.925   .     S
O1112  Zn1119  1.932   .     S
O1113  Zn1120  1.927   .     S
O1114  Zn1117  1.919   .     S
O1115  Zn1118  1.936   .     S
O1116  Zn1119  1.935   .     S
C1121  C1131   1.435   .     S
C1121  O1191   1.272   .     A
C1121  O1193   1.272   .     A
C1122  H1177   1.080   .     S
C1122  C1152   1.413   .     A
C1122  C1123   1.386   .     A
C1123  H1174   1.084   .     S
C1123  C405    1.391   1_556 S
C1124  O1194   1.274   .     A
C1124  C1130   1.453   .     S
C1124  O1192   1.277   .     A
C1125  C1126   1.418   .     A
C1125  C1127   1.402   .     A
C1126  C1129   1.404   .     A
C1126  C1153   1.430   .     A
C1127  H1156   1.085   .     S
C1127  C1128   1.400   .     A
C1128  C1146   1.514   .     S
C1128  C1140   1.410   .     A
C1129  C1140   1.394   .     A
C1129  H1173   1.081   .     S
C1130  C971    1.334   1_655 S
C1130  H1007   1.087   1_655 S
C1132  C1141   1.388   .     A
C1132  H1176   1.083   .     S
C1132  C1139   1.399   .     A
C1133  C1136   1.472   .     S
C1133  C1374   1.343   .     S
C1133  C1384   1.539   .     S
C1134  H1172   1.087   .     S
C1134  C1135   1.441   .     S
C1135  O1195   1.279   .     A
C1135  O1189   1.271   .     A
C1136  O1190   1.282   .     A
C1136  O1196   1.266   .     A
C1137  C1140   1.455   .     S
C1137  O1181   1.274   .     A
C1137  O1179   1.270   .     A
C1138  C1139   1.476   .     S
C1138  O1182   1.284   .     A
C1138  O1180   1.286   .     A
C1139  C1143   1.412   .     A
C1141  C1151   1.409   .     A
C1141  H1175   1.081   .     S
C1142  C1155   1.487   .     S
C1142  O1183   1.222   .     D
C1142  O1184   1.398   .     S
C1143  C1150   1.423   .     A
C1143  C1148   1.491   .     S
C1144  H1162   1.112   .     S
C1144  H1161   1.111   .     S
C1145  H1160   1.110   .     S
C1145  H1158   1.110   .     S
C1145  H1159   1.111   .     S
C1145  C1384   1.529   .     S
C1146  C1147   1.525   .     S
C1146  H1168   1.112   .     S
C1146  H1166   1.111   .     S
C1147  H1164   1.110   .     S
C1147  H1165   1.110   .     S
C1147  H1163   1.110   .     S
C1148  O1186   1.398   .     S
C1148  O1185   1.223   .     D
C1149  O1187   1.223   .     D
C1149  O1188   1.398   .     S
C1149  C1154   1.488   .     S
C1150  C1152   1.417   .     A
C1150  C1151   1.418   .     A
C1151  C435    1.415   1_556 S
C1152  C433    1.417   1_556 S
C1153  C1154   1.430   .     A
C1154  C1155   1.418   .     A
H1157  O1184   1.014   .     S
H1169  O1186   1.014   .     S
H1170  O1188   1.014   .     S
H1171  C971    1.086   1_655 S
O1178  Zn1197  1.952   .     S
O1178  Zn1198  1.943   .     S
O1178  Zn1199  1.927   .     S
O1178  Zn1200  1.939   .     S
O1179  Zn1198  1.926   .     S
O1180  Zn1200  1.934   .     S
O1181  Zn1199  1.934   .     S
O1182  Zn1197  1.928   .     S
O1189  Zn1197  1.931   .     S
O1190  Zn1200  1.929   .     S
O1191  Zn1198  1.925   .     S
O1192  Zn1199  1.932   .     S
O1193  Zn1200  1.927   .     S
O1194  Zn1197  1.919   .     S
O1195  Zn1198  1.936   .     S
O1196  Zn1199  1.935   .     S
C1201  C1211   1.435   .     S
C1201  O1271   1.272   .     A
C1201  O1273   1.272   .     A
C1202  H1257   1.080   .     S
C1202  C1232   1.413   .     A
C1202  C1203   1.386   .     A
C1203  H1254   1.084   .     S
C1203  C485    1.391   1_556 S
C1204  O1274   1.274   .     A
C1204  C1210   1.453   .     S
C1204  O1272   1.277   .     A
C1205  C1206   1.418   .     A
C1205  C1207   1.402   .     A
C1206  C1209   1.404   .     A
C1206  C1233   1.430   .     A
C1207  H1236   1.085   .     S
C1207  C1208   1.400   .     A
C1208  C1226   1.514   .     S
C1208  C1220   1.410   .     A
C1209  C1220   1.394   .     A
C1209  H1253   1.081   .     S
C1210  C1291   1.334   .     S
C1210  H1327   1.087   .     S
C1211  C1370   1.334   1_455 S
C1211  H1411   1.086   1_455 S
C1212  C1221   1.388   .     A
C1212  H1256   1.083   .     S
C1212  C1219   1.399   .     A
C1213  C1216   1.472   .     S
C1213  C734    1.343   1_565 S
C1213  C744    1.539   1_565 S
C1214  H1252   1.087   .     S
C1214  C1215   1.441   .     S
C1215  O1275   1.279   .     A
C1215  O1269   1.271   .     A
C1216  O1270   1.282   .     A
C1216  O1276   1.266   .     A
C1217  C1220   1.455   .     S
C1217  O1261   1.274   .     A
C1217  O1259   1.270   .     A
C1218  C1219   1.476   .     S
C1218  O1262   1.284   .     A
C1218  O1260   1.286   .     A
C1219  C1223   1.412   .     A
C1221  C1231   1.409   .     A
C1221  H1255   1.081   .     S
C1222  C1235   1.487   .     S
C1222  O1263   1.222   .     D
C1222  O1264   1.398   .     S
C1223  C1230   1.423   .     A
C1223  C1228   1.491   .     S
C1224  H1242   1.112   .     S
C1224  H1241   1.111   .     S
C1225  H1240   1.110   .     S
C1225  H1238   1.110   .     S
C1225  H1239   1.111   .     S
C1225  C744    1.529   1_565 S
C1226  C1227   1.525   .     S
C1226  H1248   1.112   .     S
C1226  H1246   1.111   .     S
C1227  H1244   1.110   .     S
C1227  H1245   1.110   .     S
C1227  H1243   1.110   .     S
C1228  O1266   1.398   .     S
C1228  O1265   1.223   .     D
C1229  O1267   1.223   .     D
C1229  O1268   1.398   .     S
C1229  C1234   1.488   .     S
C1230  C1232   1.417   .     A
C1230  C1231   1.418   .     A
C1231  C515    1.415   1_556 S
C1232  C513    1.417   1_556 S
C1233  C1234   1.430   .     A
C1234  C1235   1.418   .     A
H1237  O1264   1.014   .     S
H1247  C1370   1.087   1_455 S
H1249  O1266   1.014   .     S
H1250  O1268   1.014   .     S
H1251  C1291   1.086   .     S
O1258  Zn1277  1.952   .     S
O1258  Zn1278  1.943   .     S
O1258  Zn1279  1.927   .     S
O1258  Zn1280  1.939   .     S
O1259  Zn1278  1.926   .     S
O1260  Zn1280  1.934   .     S
O1261  Zn1279  1.934   .     S
O1262  Zn1277  1.928   .     S
O1269  Zn1277  1.931   .     S
O1270  Zn1280  1.929   .     S
O1271  Zn1278  1.925   .     S
O1272  Zn1279  1.932   .     S
O1273  Zn1280  1.927   .     S
O1274  Zn1277  1.919   .     S
O1275  Zn1278  1.936   .     S
O1276  Zn1279  1.935   .     S
C1281  C1291   1.435   .     S
C1281  O1351   1.272   .     A
C1281  O1353   1.272   .     A
C1282  H1337   1.080   .     S
C1282  C1312   1.413   .     A
C1282  C1283   1.386   .     A
C1283  H1334   1.084   .     S
C1283  C565    1.391   1_556 S
C1284  O1354   1.274   .     A
C1284  C1290   1.453   .     S
C1284  O1352   1.277   .     A
C1285  C1286   1.418   .     A
C1285  C1287   1.402   .     A
C1286  C1289   1.404   .     A
C1286  C1313   1.430   .     A
C1287  H1316   1.085   .     S
C1287  C1288   1.400   .     A
C1288  C1306   1.514   .     S
C1288  C1300   1.410   .     A
C1289  C1300   1.394   .     A
C1289  H1333   1.081   .     S
C1290  C1371   1.334   .     S
C1290  H1407   1.087   .     S
C1292  C1301   1.388   .     A
C1292  H1336   1.083   .     S
C1292  C1299   1.399   .     A
C1293  C1296   1.472   .     S
C1293  C814    1.343   1_565 S
C1293  C824    1.539   1_565 S
C1294  H1332   1.087   .     S
C1294  C1295   1.441   .     S
C1295  O1355   1.279   .     A
C1295  O1349   1.271   .     A
C1296  O1350   1.282   .     A
C1296  O1356   1.266   .     A
C1297  C1300   1.455   .     S
C1297  O1341   1.274   .     A
C1297  O1339   1.270   .     A
C1298  C1299   1.476   .     S
C1298  O1342   1.284   .     A
C1298  O1340   1.286   .     A
C1299  C1303   1.412   .     A
C1301  C1311   1.409   .     A
C1301  H1335   1.081   .     S
C1302  C1315   1.487   .     S
C1302  O1343   1.222   .     D
C1302  O1344   1.398   .     S
C1303  C1310   1.423   .     A
C1303  C1308   1.491   .     S
C1304  H1322   1.112   .     S
C1304  H1321   1.111   .     S
C1305  H1320   1.110   .     S
C1305  H1318   1.110   .     S
C1305  H1319   1.111   .     S
C1305  C824    1.529   1_565 S
C1306  C1307   1.525   .     S
C1306  H1328   1.112   .     S
C1306  H1326   1.111   .     S
C1307  H1324   1.110   .     S
C1307  H1325   1.110   .     S
C1307  H1323   1.110   .     S
C1308  O1346   1.398   .     S
C1308  O1345   1.223   .     D
C1309  O1347   1.223   .     D
C1309  O1348   1.398   .     S
C1309  C1314   1.488   .     S
C1310  C1312   1.417   .     A
C1310  C1311   1.418   .     A
C1311  C595    1.415   1_556 S
C1312  C593    1.417   1_556 S
C1313  C1314   1.430   .     A
C1314  C1315   1.418   .     A
H1317  O1344   1.014   .     S
H1329  O1346   1.014   .     S
H1330  O1348   1.014   .     S
H1331  C1371   1.086   .     S
O1338  Zn1357  1.952   .     S
O1338  Zn1358  1.943   .     S
O1338  Zn1359  1.927   .     S
O1338  Zn1360  1.939   .     S
O1339  Zn1358  1.926   .     S
O1340  Zn1360  1.934   .     S
O1341  Zn1359  1.934   .     S
O1342  Zn1357  1.928   .     S
O1349  Zn1357  1.931   .     S
O1350  Zn1360  1.929   .     S
O1351  Zn1358  1.925   .     S
O1352  Zn1359  1.932   .     S
O1353  Zn1360  1.927   .     S
O1354  Zn1357  1.919   .     S
O1355  Zn1358  1.936   .     S
O1356  Zn1359  1.935   .     S
C1361  C1371   1.435   .     S
C1361  O1431   1.272   .     A
C1361  O1433   1.272   .     A
C1362  H1417   1.080   .     S
C1362  C1392   1.413   .     A
C1362  C1363   1.386   .     A
C1363  H1414   1.084   .     S
C1363  C645    1.391   1_556 S
C1364  O1434   1.274   .     A
C1364  C1370   1.453   .     S
C1364  O1432   1.277   .     A
C1365  C1366   1.418   .     A
C1365  C1367   1.402   .     A
C1366  C1369   1.404   .     A
C1366  C1393   1.430   .     A
C1367  H1396   1.085   .     S
C1367  C1368   1.400   .     A
C1368  C1386   1.514   .     S
C1368  C1380   1.410   .     A
C1369  C1380   1.394   .     A
C1369  H1413   1.081   .     S
C1370  C1211   1.334   1_655 S
C1370  H1247   1.087   1_655 S
C1372  C1381   1.388   .     A
C1372  H1416   1.083   .     S
C1372  C1379   1.399   .     A
C1373  C1376   1.472   .     S
C1373  C894    1.343   1_565 S
C1373  C904    1.539   1_565 S
C1374  H1412   1.087   .     S
C1374  C1375   1.441   .     S
C1375  O1435   1.279   .     A
C1375  O1429   1.271   .     A
C1376  O1430   1.282   .     A
C1376  O1436   1.266   .     A
C1377  C1380   1.455   .     S
C1377  O1421   1.274   .     A
C1377  O1419   1.270   .     A
C1378  C1379   1.476   .     S
C1378  O1422   1.284   .     A
C1378  O1420   1.286   .     A
C1379  C1383   1.412   .     A
C1381  C1391   1.409   .     A
C1381  H1415   1.081   .     S
C1382  C1395   1.487   .     S
C1382  O1423   1.222   .     D
C1382  O1424   1.398   .     S
C1383  C1390   1.423   .     A
C1383  C1388   1.491   .     S
C1384  H1402   1.112   .     S
C1384  H1401   1.111   .     S
C1385  H1400   1.110   .     S
C1385  H1398   1.110   .     S
C1385  H1399   1.111   .     S
C1385  C904    1.529   1_565 S
C1386  C1387   1.525   .     S
C1386  H1408   1.112   .     S
C1386  H1406   1.111   .     S
C1387  H1404   1.110   .     S
C1387  H1405   1.110   .     S
C1387  H1403   1.110   .     S
C1388  O1426   1.398   .     S
C1388  O1425   1.223   .     D
C1389  O1427   1.223   .     D
C1389  O1428   1.398   .     S
C1389  C1394   1.488   .     S
C1390  C1392   1.417   .     A
C1390  C1391   1.418   .     A
C1391  C675    1.415   1_556 S
C1392  C673    1.417   1_556 S
C1393  C1394   1.430   .     A
C1394  C1395   1.418   .     A
H1397  O1424   1.014   .     S
H1409  O1426   1.014   .     S
H1410  O1428   1.014   .     S
H1411  C1211   1.086   1_655 S
O1418  Zn1437  1.952   .     S
O1418  Zn1438  1.943   .     S
O1418  Zn1439  1.927   .     S
O1418  Zn1440  1.939   .     S
O1419  Zn1438  1.926   .     S
O1420  Zn1440  1.934   .     S
O1421  Zn1439  1.934   .     S
O1422  Zn1437  1.928   .     S
O1429  Zn1437  1.931   .     S
O1430  Zn1440  1.929   .     S
O1431  Zn1438  1.925   .     S
O1432  Zn1439  1.932   .     S
O1433  Zn1440  1.927   .     S
O1434  Zn1437  1.919   .     S
O1435  Zn1438  1.936   .     S
O1436  Zn1439  1.935   .     S
