data_str_m1_o1_o5_pcu_sym.15
_audit_creation_date              2020-01-03
_audit_creation_method            'Materials Studio'
_symmetry_space_group_name_H-M    'P1'
_symmetry_Int_Tables_number       1
_symmetry_cell_setting            triclinic
loop_
_symmetry_equiv_pos_as_xyz
  x,y,z
_cell_length_a                    36.7172
_cell_length_b                    36.7171
_cell_length_c                    22.3917
_cell_angle_alpha                 90.0000
_cell_angle_beta                  90.0000
_cell_angle_gamma                 90.0000
loop_
_atom_site_label
_atom_site_type_symbol
_atom_site_fract_x
_atom_site_fract_y
_atom_site_fract_z
_atom_site_U_iso_or_equiv
_atom_site_adp_type
_atom_site_occupancy
C1     C     0.00000   0.25000   0.02668   0.00000  Uiso   1.00
C2     C    -0.00000   0.25000   0.58994   0.00000  Uiso   1.00
C3     C     0.39354   0.32459   0.38388   0.00000  Uiso   1.00
C4     C     0.17282   0.38504   0.61818   0.00000  Uiso   1.00
C5     C     0.32457   0.10648   0.38386   0.00000  Uiso   1.00
C6     C     0.38504   0.32718   0.61818   0.00000  Uiso   1.00
C7     C     0.10649   0.17544   0.38386   0.00000  Uiso   1.00
C8     C     0.31979   0.39218   0.37869   0.00000  Uiso   1.00
C9     C     0.11649   0.06506   0.62642   0.00000  Uiso   1.00
C10    C     0.10782   0.31977   0.37867   0.00000  Uiso   1.00
C11    C     0.43495   0.11649   0.62643   0.00000  Uiso   1.00
C12    C     0.18023   0.10782   0.37867   0.00000  Uiso   1.00
C13    C     0.25000  -0.00000   0.41006   0.00000  Uiso   1.00
C14    C     0.38351   0.43495   0.62643   0.00000  Uiso   1.00
C15    C     0.39218   0.18023   0.37867   0.00000  Uiso   1.00
C16    C     0.06505   0.38351   0.62643   0.00000  Uiso   1.00
C17    C     0.25000  -0.00000   0.58994   0.00000  Uiso   1.00
C18    C     0.25000  -0.00000   0.91006   0.00000  Uiso   1.00
C19    C     0.25000  -0.00000   0.08994   0.00000  Uiso   1.00
C20    C    -0.00000   0.25000   0.91006   0.00000  Uiso   1.00
C21    C     0.00000   0.25000   0.08994   0.00000  Uiso   1.00
C22    C     0.07008   0.17996   0.24990   0.00000  Uiso   1.00
C23    C     0.43008   0.32012   0.75019   0.00000  Uiso   1.00
C24    C     0.17996   0.42992   0.24990   0.00000  Uiso   1.00
C25    C    -0.00000   0.25000   0.97331   0.00000  Uiso   1.00
C26    C     0.32012   0.06992   0.75019   0.00000  Uiso   1.00
C27    C     0.42992   0.32004   0.24990   0.00000  Uiso   1.00
C28    C     0.06992   0.17988   0.75019   0.00000  Uiso   1.00
C29    C     0.32004   0.07008   0.24990   0.00000  Uiso   1.00
C30    C     0.17988   0.43008   0.75019   0.00000  Uiso   1.00
C31    C     0.07004   0.32008   0.74990   0.00000  Uiso   1.00
C32    C     0.42988   0.18008   0.25019   0.00000  Uiso   1.00
C33    C     0.17992   0.07004   0.74990   0.00000  Uiso   1.00
C34    C     0.31992   0.42988   0.25019   0.00000  Uiso   1.00
C35    C     0.42996   0.17992   0.74990   0.00000  Uiso   1.00
C36    C     0.25000  -0.00000   0.02668   0.00000  Uiso   1.00
C37    C     0.07012   0.31992   0.25019   0.00000  Uiso   1.00
C38    C     0.32008   0.42996   0.74990   0.00000  Uiso   1.00
C39    C     0.18008   0.07012   0.25019   0.00000  Uiso   1.00
C40    C     0.11532   0.35759   0.19698   0.00000  Uiso   1.00
C41    C     0.38615   0.14077   0.80516   0.00000  Uiso   1.00
C42    C     0.35758   0.38468   0.19699   0.00000  Uiso   1.00
C43    C     0.14077   0.11385   0.80516   0.00000  Uiso   1.00
C44    C     0.38468   0.14241   0.19699   0.00000  Uiso   1.00
C45    C     0.11385   0.35923   0.80516   0.00000  Uiso   1.00
C46    C     0.14241   0.11532   0.19698   0.00000  Uiso   1.00
C47    C     0.25000  -0.00000   0.97331   0.00000  Uiso   1.00
C48    C     0.35923   0.38615   0.80516   0.00000  Uiso   1.00
C49    C     0.11328   0.14020   0.80553   0.00000  Uiso   1.00
C50    C     0.38297   0.35629   0.19725   0.00000  Uiso   1.00
C51    C     0.35980   0.11328   0.80553   0.00000  Uiso   1.00
C52    C     0.14370   0.38298   0.19725   0.00000  Uiso   1.00
C53    C     0.38672   0.35980   0.80553   0.00000  Uiso   1.00
C54    C     0.11702   0.14370   0.19725   0.00000  Uiso   1.00
C55    C     0.14020   0.38672   0.80553   0.00000  Uiso   1.00
C56    C     0.35630   0.11702   0.19725   0.00000  Uiso   1.00
C57    C     0.36532   0.10759   0.69699   0.00000  Uiso   1.00
C58    C     0.25000  -0.00000   0.52668   0.00000  Uiso   1.00
C59    C     0.13615   0.39077   0.30516   0.00000  Uiso   1.00
C60    C     0.10759   0.13468   0.69698   0.00000  Uiso   1.00
C61    C     0.39077   0.36385   0.30515   0.00000  Uiso   1.00
C62    C     0.13468   0.39241   0.69698   0.00000  Uiso   1.00
C63    C     0.36385   0.10923   0.30516   0.00000  Uiso   1.00
C64    C     0.39241   0.36532   0.69698   0.00000  Uiso   1.00
C65    C     0.10923   0.13615   0.30516   0.00000  Uiso   1.00
C66    C     0.36329   0.39021   0.30553   0.00000  Uiso   1.00
C67    C     0.13298   0.10630   0.69725   0.00000  Uiso   1.00
C68    C     0.10980   0.36328   0.30553   0.00000  Uiso   1.00
C69    C     0.25000  -0.00000   0.47331   0.00000  Uiso   1.00
C70    C     0.39370   0.13298   0.69725   0.00000  Uiso   1.00
C71    C     0.13672   0.10980   0.30553   0.00000  Uiso   1.00
C72    C     0.36702   0.39370   0.69725   0.00000  Uiso   1.00
C73    C     0.39020   0.13672   0.30553   0.00000  Uiso   1.00
C74    C     0.10630   0.36702   0.69725   0.00000  Uiso   1.00
C75    C     0.15268   0.40101   0.25079   0.00000  Uiso   1.00
C76    C     0.34883   0.09726   0.75112   0.00000  Uiso   1.00
C77    C     0.40101   0.34732   0.25079   0.00000  Uiso   1.00
C78    C     0.09726   0.15117   0.75112   0.00000  Uiso   1.00
C79    C     0.34732   0.09899   0.25079   0.00000  Uiso   1.00
C80    C    -0.00000   0.25000   0.52668   0.00000  Uiso   1.00
C81    C     0.15117   0.40274   0.75112   0.00000  Uiso   1.00
C82    C     0.09899   0.15268   0.25079   0.00000  Uiso   1.00
C83    C     0.40274   0.34883   0.75112   0.00000  Uiso   1.00
C84    C     0.15101   0.09732   0.75079   0.00000  Uiso   1.00
C85    C     0.34726   0.40117   0.25112   0.00000  Uiso   1.00
C86    C     0.40268   0.15101   0.75079   0.00000  Uiso   1.00
C87    C     0.09883   0.34726   0.25112   0.00000  Uiso   1.00
C88    C     0.34899   0.40268   0.75079   0.00000  Uiso   1.00
C89    C     0.15274   0.09883   0.25112   0.00000  Uiso   1.00
C90    C     0.09732   0.34899   0.75079   0.00000  Uiso   1.00
C91    C    -0.00000   0.25000   0.47331   0.00000  Uiso   1.00
C92    C     0.40117   0.15274   0.25112   0.00000  Uiso   1.00
C93    C     0.07718   0.36496   0.11818   0.00000  Uiso   1.00
C94    C     0.42543   0.14351   0.88386   0.00000  Uiso   1.00
C95    C     0.36494   0.42280   0.11817   0.00000  Uiso   1.00
C96    C     0.14351   0.07456   0.88386   0.00000  Uiso   1.00
C97    C     0.42282   0.13505   0.11818   0.00000  Uiso   1.00
C98    C     0.07457   0.35649   0.88386   0.00000  Uiso   1.00
C99    C     0.13504   0.07718   0.11818   0.00000  Uiso   1.00
C100   C     0.35649   0.42543   0.88386   0.00000  Uiso   1.00
C101   C     0.06977   0.14218   0.87867   0.00000  Uiso   1.00
C102   C    -0.00000   0.25000   0.41006   0.00000  Uiso   1.00
C103   C     0.36648   0.31504   0.12645   0.00000  Uiso   1.00
C104   C     0.35782   0.06977   0.87867   0.00000  Uiso   1.00
C105   C     0.18495   0.36649   0.12643   0.00000  Uiso   1.00
C106   C     0.43023   0.35782   0.87867   0.00000  Uiso   1.00
C107   C     0.13351   0.18495   0.12643   0.00000  Uiso   1.00
C108   C     0.14218   0.43023   0.87867   0.00000  Uiso   1.00
C109   C     0.31505   0.13351   0.12643   0.00000  Uiso   1.00
C110   C     0.32718   0.11495   0.61818   0.00000  Uiso   1.00
C111   C     0.17544   0.39351   0.38386   0.00000  Uiso   1.00
C112   C     0.11496   0.17282   0.61818   0.00000  Uiso   1.00
H113   H     0.08819   0.39244   0.10751   0.00000  Uiso   1.00
H114   H     0.14240   0.05117   0.85230   0.00000  Uiso   1.00
H115   H     0.11593   0.08039   0.90165   0.00000  Uiso   1.00
H116   H     0.16080   0.06617   0.92209   0.00000  Uiso   1.00
H117   H     0.41181   0.10756   0.10751   0.00000  Uiso   1.00
H118   H     0.44698   0.13266   0.14796   0.00000  Uiso   1.00
H119   H     0.43211   0.14751   0.07569   0.00000  Uiso   1.00
H120   H     0.05117   0.35760   0.85230   0.00000  Uiso   1.00
H121   H     0.08039   0.38407   0.90166   0.00000  Uiso   1.00
H122   H     0.06617   0.33920   0.92209   0.00000  Uiso   1.00
H123   H     0.10756   0.08819   0.10751   0.00000  Uiso   1.00
H124   H     0.05302   0.36734   0.14797   0.00000  Uiso   1.00
H125   H     0.13266   0.05302   0.14797   0.00000  Uiso   1.00
H126   H     0.14751   0.06789   0.07570   0.00000  Uiso   1.00
H127   H     0.35760   0.44883   0.85230   0.00000  Uiso   1.00
H128   H     0.38407   0.41961   0.90166   0.00000  Uiso   1.00
H129   H     0.33920   0.43383   0.92209   0.00000  Uiso   1.00
H130   H     0.06531   0.11308   0.86649   0.00000  Uiso   1.00
H131   H     0.04708   0.15888   0.86077   0.00000  Uiso   1.00
H132   H     0.06859   0.14405   0.92808   0.00000  Uiso   1.00
H133   H     0.34106   0.32899   0.11224   0.00000  Uiso   1.00
H134   H     0.36040   0.29506   0.16255   0.00000  Uiso   1.00
H135   H     0.06789   0.35249   0.07570   0.00000  Uiso   1.00
H136   H     0.37681   0.29946   0.08753   0.00000  Uiso   1.00
H137   H     0.38692   0.06532   0.86650   0.00000  Uiso   1.00
H138   H     0.34112   0.04708   0.86076   0.00000  Uiso   1.00
H139   H     0.35595   0.06860   0.92808   0.00000  Uiso   1.00
H140   H     0.17099   0.34108   0.11221   0.00000  Uiso   1.00
H141   H     0.20493   0.36041   0.16252   0.00000  Uiso   1.00
H142   H     0.20052   0.37683   0.08751   0.00000  Uiso   1.00
H143   H     0.43469   0.38692   0.86650   0.00000  Uiso   1.00
H144   H     0.45292   0.34112   0.86076   0.00000  Uiso   1.00
H145   H     0.43141   0.35595   0.92808   0.00000  Uiso   1.00
H146   H     0.44883   0.14239   0.85230   0.00000  Uiso   1.00
H147   H     0.15892   0.17099   0.11221   0.00000  Uiso   1.00
H148   H     0.13959   0.20493   0.16252   0.00000  Uiso   1.00
H149   H     0.12317   0.20052   0.08751   0.00000  Uiso   1.00
H150   H     0.11308   0.43468   0.86650   0.00000  Uiso   1.00
H151   H     0.15888   0.45292   0.86076   0.00000  Uiso   1.00
H152   H     0.14405   0.43140   0.92808   0.00000  Uiso   1.00
H153   H     0.32901   0.15892   0.11222   0.00000  Uiso   1.00
H154   H     0.29507   0.13959   0.16252   0.00000  Uiso   1.00
H155   H     0.29948   0.12317   0.08751   0.00000  Uiso   1.00
H156   H     0.33819   0.14244   0.60751   0.00000  Uiso   1.00
H157   H     0.41960   0.11593   0.90167   0.00000  Uiso   1.00
H158   H     0.30302   0.11734   0.64796   0.00000  Uiso   1.00
H159   H     0.31789   0.10249   0.57569   0.00000  Uiso   1.00
H160   H     0.19883   0.39240   0.35230   0.00000  Uiso   1.00
H161   H     0.16961   0.36593   0.40165   0.00000  Uiso   1.00
H162   H     0.18383   0.41080   0.42209   0.00000  Uiso   1.00
H163   H     0.14244   0.16181   0.60751   0.00000  Uiso   1.00
H164   H     0.11735   0.19698   0.64797   0.00000  Uiso   1.00
H165   H     0.10250   0.18211   0.57570   0.00000  Uiso   1.00
H166   H     0.39232   0.30121   0.35229   0.00000  Uiso   1.00
H167   H     0.36601   0.33046   0.40184   0.00000  Uiso   1.00
H168   H     0.43383   0.16080   0.92209   0.00000  Uiso   1.00
H169   H     0.41089   0.31615   0.42200   0.00000  Uiso   1.00
H170   H     0.16181   0.35756   0.60751   0.00000  Uiso   1.00
H171   H     0.19698   0.38266   0.64797   0.00000  Uiso   1.00
H172   H     0.18211   0.39751   0.57569   0.00000  Uiso   1.00
H173   H     0.30117   0.10761   0.35230   0.00000  Uiso   1.00
H174   H     0.33040   0.13406   0.40167   0.00000  Uiso   1.00
H175   H     0.31617   0.08919   0.42209   0.00000  Uiso   1.00
H176   H     0.35756   0.33819   0.60751   0.00000  Uiso   1.00
H177   H     0.38266   0.30302   0.64797   0.00000  Uiso   1.00
H178   H     0.39751   0.31789   0.57570   0.00000  Uiso   1.00
H179   H     0.39242   0.41180   0.10749   0.00000  Uiso   1.00
H180   H     0.10760   0.19883   0.35230   0.00000  Uiso   1.00
H181   H     0.13407   0.16961   0.40165   0.00000  Uiso   1.00
H182   H     0.08920   0.18383   0.42209   0.00000  Uiso   1.00
H183   H     0.31537   0.36306   0.36659   0.00000  Uiso   1.00
H184   H     0.29709   0.40884   0.36072   0.00000  Uiso   1.00
H185   H     0.31860   0.39410   0.42809   0.00000  Uiso   1.00
H186   H     0.09108   0.07901   0.61221   0.00000  Uiso   1.00
H187   H     0.11041   0.04507   0.66252   0.00000  Uiso   1.00
H188   H     0.12684   0.04948   0.58750   0.00000  Uiso   1.00
H189   H     0.13692   0.31531   0.36649   0.00000  Uiso   1.00
H190   H     0.36733   0.44697   0.14795   0.00000  Uiso   1.00
H191   H     0.09112   0.29708   0.36077   0.00000  Uiso   1.00
H192   H     0.10595   0.31859   0.42808   0.00000  Uiso   1.00
H193   H     0.42099   0.09108   0.61221   0.00000  Uiso   1.00
H194   H     0.45493   0.11041   0.66252   0.00000  Uiso   1.00
H195   H     0.45052   0.12683   0.58751   0.00000  Uiso   1.00
H196   H     0.18469   0.13692   0.36649   0.00000  Uiso   1.00
H197   H     0.20292   0.09112   0.36076   0.00000  Uiso   1.00
H198   H     0.18141   0.10595   0.42808   0.00000  Uiso   1.00
H199   H     0.40892   0.42099   0.61221   0.00000  Uiso   1.00
H200   H     0.38959   0.45493   0.66252   0.00000  Uiso   1.00
H201   H     0.35248   0.43209   0.07568   0.00000  Uiso   1.00
H202   H     0.37317   0.45052   0.58751   0.00000  Uiso   1.00
H203   H     0.36308   0.18468   0.36650   0.00000  Uiso   1.00
H204   H     0.40888   0.20292   0.36076   0.00000  Uiso   1.00
H205   H     0.39405   0.18140   0.42808   0.00000  Uiso   1.00
H206   H     0.07901   0.40892   0.61221   0.00000  Uiso   1.00
H207   H     0.04507   0.38959   0.66252   0.00000  Uiso   1.00
H208   H     0.04948   0.37317   0.58751   0.00000  Uiso   1.00
O209   O    -0.00000   0.25000   0.25000   0.00000  Uiso   1.00
O210   O    -0.00000   0.28035   0.61781   0.00000  Uiso   1.00
O211   O     0.21964  -0.00000   0.38219   0.00000  Uiso   1.00
O212   O     0.28035  -0.00000   0.61781   0.00000  Uiso   1.00
O213   O     0.25000   0.03035   0.88219   0.00000  Uiso   1.00
O214   O     0.25000   0.46964   0.11781   0.00000  Uiso   1.00
O215   O     0.03035   0.25000   0.88219   0.00000  Uiso   1.00
O216   O     0.46964   0.25000   0.11781   0.00000  Uiso   1.00
O217   O     0.25000   0.46964   0.88219   0.00000  Uiso   1.00
O218   O     0.25000   0.03035   0.11781   0.00000  Uiso   1.00
O219   O     0.46964   0.25000   0.88219   0.00000  Uiso   1.00
O220   O     0.00000   0.25000   0.75000   0.00000  Uiso   1.00
O221   O     0.03035   0.25000   0.11781   0.00000  Uiso   1.00
O222   O     0.04267   0.17692   0.28474   0.00000  Uiso   1.00
O223   O     0.45732   0.32307   0.71526   0.00000  Uiso   1.00
O224   O     0.17692   0.45732   0.28474   0.00000  Uiso   1.00
O225   O     0.32307   0.04267   0.71526   0.00000  Uiso   1.00
O226   O     0.45732   0.32307   0.28474   0.00000  Uiso   1.00
O227   O     0.04267   0.17692   0.71526   0.00000  Uiso   1.00
O228   O     0.32307   0.04267   0.28474   0.00000  Uiso   1.00
O229   O     0.17692   0.45732   0.71526   0.00000  Uiso   1.00
O230   O     0.04267   0.32307   0.71526   0.00000  Uiso   1.00
O231   O     0.25000  -0.00000   0.25000   0.00000  Uiso   1.00
O232   O     0.45732   0.17692   0.28474   0.00000  Uiso   1.00
O233   O     0.17692   0.04267   0.71526   0.00000  Uiso   1.00
O234   O     0.32307   0.45732   0.28474   0.00000  Uiso   1.00
O235   O     0.45732   0.17692   0.71526   0.00000  Uiso   1.00
O236   O     0.04267   0.32307   0.28474   0.00000  Uiso   1.00
O237   O     0.32307   0.45732   0.71526   0.00000  Uiso   1.00
O238   O     0.17692   0.04267   0.28474   0.00000  Uiso   1.00
O239   O     0.29267   0.42692   0.78474   0.00000  Uiso   1.00
O240   O     0.20732   0.07307   0.21526   0.00000  Uiso   1.00
O241   O     0.42692   0.20732   0.78474   0.00000  Uiso   1.00
O242   O     0.25000  -0.00000   0.75000   0.00000  Uiso   1.00
O243   O     0.07307   0.29267   0.21526   0.00000  Uiso   1.00
O244   O     0.20732   0.07307   0.78474   0.00000  Uiso   1.00
O245   O     0.29267   0.42692   0.21526   0.00000  Uiso   1.00
O246   O     0.07307   0.29267   0.78474   0.00000  Uiso   1.00
O247   O     0.42692   0.20732   0.21526   0.00000  Uiso   1.00
O248   O     0.29267   0.07307   0.21526   0.00000  Uiso   1.00
O249   O     0.20732   0.42692   0.78474   0.00000  Uiso   1.00
O250   O     0.42692   0.29267   0.21526   0.00000  Uiso   1.00
O251   O     0.07307   0.20732   0.78474   0.00000  Uiso   1.00
O252   O     0.20732   0.42692   0.21526   0.00000  Uiso   1.00
O253   O    -0.00000   0.28035   0.38219   0.00000  Uiso   1.00
O254   O     0.29267   0.07307   0.78474   0.00000  Uiso   1.00
O255   O     0.07307   0.20732   0.21526   0.00000  Uiso   1.00
O256   O     0.42692   0.29267   0.78474   0.00000  Uiso   1.00
O257   O     0.10414   0.34237   0.14347   0.00000  Uiso   1.00
O258   O     0.39403   0.15896   0.85779   0.00000  Uiso   1.00
O259   O     0.34236   0.39584   0.14347   0.00000  Uiso   1.00
O260   O     0.15896   0.10597   0.85779   0.00000  Uiso   1.00
O261   O     0.39585   0.15763   0.14347   0.00000  Uiso   1.00
O262   O     0.10597   0.34104   0.85779   0.00000  Uiso   1.00
O263   O     0.15763   0.10414   0.14347   0.00000  Uiso   1.00
O264   O    -0.00000   0.21964   0.61781   0.00000  Uiso   1.00
O265   O     0.34104   0.39403   0.85779   0.00000  Uiso   1.00
O266   O     0.10372   0.15612   0.85942   0.00000  Uiso   1.00
O267   O     0.39342   0.34032   0.14389   0.00000  Uiso   1.00
O268   O     0.34388   0.10372   0.85942   0.00000  Uiso   1.00
O269   O     0.15966   0.39343   0.14389   0.00000  Uiso   1.00
O270   O     0.39628   0.34388   0.85942   0.00000  Uiso   1.00
O271   O     0.10657   0.15966   0.14389   0.00000  Uiso   1.00
O272   O     0.15612   0.39628   0.85942   0.00000  Uiso   1.00
O273   O     0.34033   0.10657   0.14389   0.00000  Uiso   1.00
O274   O     0.35414   0.09237   0.64347   0.00000  Uiso   1.00
O275   O     0.28035  -0.00000   0.38219   0.00000  Uiso   1.00
O276   O     0.14403   0.40896   0.35779   0.00000  Uiso   1.00
O277   O     0.09237   0.14586   0.64347   0.00000  Uiso   1.00
O278   O     0.40898   0.35599   0.35778   0.00000  Uiso   1.00
O279   O     0.14586   0.40763   0.64347   0.00000  Uiso   1.00
O280   O     0.35597   0.09104   0.35779   0.00000  Uiso   1.00
O281   O     0.40763   0.35414   0.64347   0.00000  Uiso   1.00
O282   O     0.09104   0.14403   0.35779   0.00000  Uiso   1.00
O283   O     0.35373   0.40613   0.35941   0.00000  Uiso   1.00
O284   O     0.14343   0.09034   0.64389   0.00000  Uiso   1.00
O285   O     0.09388   0.35372   0.35942   0.00000  Uiso   1.00
O286   O     0.21964  -0.00000   0.61781   0.00000  Uiso   1.00
O287   O     0.40967   0.14343   0.64389   0.00000  Uiso   1.00
O288   O     0.14628   0.09388   0.35942   0.00000  Uiso   1.00
O289   O     0.35657   0.40966   0.64389   0.00000  Uiso   1.00
O290   O     0.40612   0.14628   0.35942   0.00000  Uiso   1.00
O291   O     0.09033   0.35657   0.64389   0.00000  Uiso   1.00
O292   O     0.00000   0.21964   0.38219   0.00000  Uiso   1.00
Zn293  Zn    0.04333   0.25000   0.20067   0.00000  Uiso   1.00
Zn294  Zn    0.20667  -0.00000   0.29933   0.00000  Uiso   1.00
Zn295  Zn    0.00000   0.20667   0.70067   0.00000  Uiso   1.00
Zn296  Zn   -0.00000   0.29333   0.29933   0.00000  Uiso   1.00
Zn297  Zn    0.20667  -0.00000   0.70067   0.00000  Uiso   1.00
Zn298  Zn    0.29333  -0.00000   0.29933   0.00000  Uiso   1.00
Zn299  Zn   -0.00000   0.29333   0.70067   0.00000  Uiso   1.00
Zn300  Zn   -0.00000   0.20667   0.29933   0.00000  Uiso   1.00
Zn301  Zn    0.45667   0.25000   0.79933   0.00000  Uiso   1.00
Zn302  Zn    0.25000   0.45667   0.20067   0.00000  Uiso   1.00
Zn303  Zn    0.25000   0.04333   0.79933   0.00000  Uiso   1.00
Zn304  Zn    0.45667   0.25000   0.20067   0.00000  Uiso   1.00
Zn305  Zn    0.04333   0.25000   0.79933   0.00000  Uiso   1.00
Zn306  Zn    0.25000   0.04333   0.20067   0.00000  Uiso   1.00
Zn307  Zn    0.25000   0.45667   0.79933   0.00000  Uiso   1.00
Zn308  Zn    0.29333  -0.00000   0.70067   0.00000  Uiso   1.00
C309   C     0.50000   0.25000   0.02668   0.00000  Uiso   1.00
C310   C     0.50000   0.25000   0.58994   0.00000  Uiso   1.00
C311   C     0.89354   0.32459   0.38388   0.00000  Uiso   1.00
C312   C     0.67282   0.38504   0.61818   0.00000  Uiso   1.00
C313   C     0.82457   0.10648   0.38386   0.00000  Uiso   1.00
C314   C     0.88504   0.32718   0.61818   0.00000  Uiso   1.00
C315   C     0.60649   0.17544   0.38386   0.00000  Uiso   1.00
C316   C     0.81979   0.39218   0.37869   0.00000  Uiso   1.00
C317   C     0.61649   0.06506   0.62642   0.00000  Uiso   1.00
C318   C     0.60782   0.31977   0.37867   0.00000  Uiso   1.00
C319   C     0.93495   0.11649   0.62643   0.00000  Uiso   1.00
C320   C     0.68023   0.10782   0.37867   0.00000  Uiso   1.00
C321   C     0.75000  -0.00000   0.41006   0.00000  Uiso   1.00
C322   C     0.88351   0.43495   0.62643   0.00000  Uiso   1.00
C323   C     0.89218   0.18023   0.37867   0.00000  Uiso   1.00
C324   C     0.56505   0.38351   0.62643   0.00000  Uiso   1.00
C325   C     0.75000  -0.00000   0.58994   0.00000  Uiso   1.00
C326   C     0.75000  -0.00000   0.91006   0.00000  Uiso   1.00
C327   C     0.75000  -0.00000   0.08994   0.00000  Uiso   1.00
C328   C     0.50000   0.25000   0.91006   0.00000  Uiso   1.00
C329   C     0.50000   0.25000   0.08994   0.00000  Uiso   1.00
C330   C     0.57008   0.17996   0.24990   0.00000  Uiso   1.00
C331   C     0.93008   0.32012   0.75019   0.00000  Uiso   1.00
C332   C     0.67996   0.42992   0.24990   0.00000  Uiso   1.00
C333   C     0.50000   0.25000   0.97331   0.00000  Uiso   1.00
C334   C     0.82012   0.06992   0.75019   0.00000  Uiso   1.00
C335   C     0.92992   0.32004   0.24990   0.00000  Uiso   1.00
C336   C     0.56992   0.17988   0.75019   0.00000  Uiso   1.00
C337   C     0.82004   0.07008   0.24990   0.00000  Uiso   1.00
C338   C     0.67988   0.43008   0.75019   0.00000  Uiso   1.00
C339   C     0.57004   0.32008   0.74990   0.00000  Uiso   1.00
C340   C     0.92988   0.18008   0.25019   0.00000  Uiso   1.00
C341   C     0.67992   0.07004   0.74990   0.00000  Uiso   1.00
C342   C     0.81992   0.42988   0.25019   0.00000  Uiso   1.00
C343   C     0.92996   0.17992   0.74990   0.00000  Uiso   1.00
C344   C     0.75000  -0.00000   0.02668   0.00000  Uiso   1.00
C345   C     0.57012   0.31992   0.25019   0.00000  Uiso   1.00
C346   C     0.82008   0.42996   0.74990   0.00000  Uiso   1.00
C347   C     0.68008   0.07012   0.25019   0.00000  Uiso   1.00
C348   C     0.61532   0.35759   0.19698   0.00000  Uiso   1.00
C349   C     0.88615   0.14077   0.80516   0.00000  Uiso   1.00
C350   C     0.85758   0.38468   0.19699   0.00000  Uiso   1.00
C351   C     0.64077   0.11385   0.80516   0.00000  Uiso   1.00
C352   C     0.88468   0.14241   0.19699   0.00000  Uiso   1.00
C353   C     0.61385   0.35923   0.80516   0.00000  Uiso   1.00
C354   C     0.64241   0.11532   0.19698   0.00000  Uiso   1.00
C355   C     0.75000  -0.00000   0.97331   0.00000  Uiso   1.00
C356   C     0.85923   0.38615   0.80516   0.00000  Uiso   1.00
C357   C     0.61328   0.14020   0.80553   0.00000  Uiso   1.00
C358   C     0.88297   0.35629   0.19725   0.00000  Uiso   1.00
C359   C     0.85980   0.11328   0.80553   0.00000  Uiso   1.00
C360   C     0.64370   0.38298   0.19725   0.00000  Uiso   1.00
C361   C     0.88672   0.35980   0.80553   0.00000  Uiso   1.00
C362   C     0.61702   0.14370   0.19725   0.00000  Uiso   1.00
C363   C     0.64020   0.38672   0.80553   0.00000  Uiso   1.00
C364   C     0.85630   0.11702   0.19725   0.00000  Uiso   1.00
C365   C     0.86532   0.10759   0.69699   0.00000  Uiso   1.00
C366   C     0.75000  -0.00000   0.52668   0.00000  Uiso   1.00
C367   C     0.63615   0.39077   0.30516   0.00000  Uiso   1.00
C368   C     0.60759   0.13468   0.69698   0.00000  Uiso   1.00
C369   C     0.89077   0.36385   0.30515   0.00000  Uiso   1.00
C370   C     0.63468   0.39241   0.69698   0.00000  Uiso   1.00
C371   C     0.86385   0.10923   0.30516   0.00000  Uiso   1.00
C372   C     0.89241   0.36532   0.69698   0.00000  Uiso   1.00
C373   C     0.60923   0.13615   0.30516   0.00000  Uiso   1.00
C374   C     0.86329   0.39021   0.30553   0.00000  Uiso   1.00
C375   C     0.63298   0.10630   0.69725   0.00000  Uiso   1.00
C376   C     0.60980   0.36328   0.30553   0.00000  Uiso   1.00
C377   C     0.75000  -0.00000   0.47331   0.00000  Uiso   1.00
C378   C     0.89370   0.13298   0.69725   0.00000  Uiso   1.00
C379   C     0.63672   0.10980   0.30553   0.00000  Uiso   1.00
C380   C     0.86702   0.39370   0.69725   0.00000  Uiso   1.00
C381   C     0.89020   0.13672   0.30553   0.00000  Uiso   1.00
C382   C     0.60630   0.36702   0.69725   0.00000  Uiso   1.00
C383   C     0.65268   0.40101   0.25079   0.00000  Uiso   1.00
C384   C     0.84883   0.09726   0.75112   0.00000  Uiso   1.00
C385   C     0.90101   0.34732   0.25079   0.00000  Uiso   1.00
C386   C     0.59726   0.15117   0.75112   0.00000  Uiso   1.00
C387   C     0.84732   0.09899   0.25079   0.00000  Uiso   1.00
C388   C     0.50000   0.25000   0.52668   0.00000  Uiso   1.00
C389   C     0.65117   0.40274   0.75112   0.00000  Uiso   1.00
C390   C     0.59899   0.15268   0.25079   0.00000  Uiso   1.00
C391   C     0.90274   0.34883   0.75112   0.00000  Uiso   1.00
C392   C     0.65101   0.09732   0.75079   0.00000  Uiso   1.00
C393   C     0.84726   0.40117   0.25112   0.00000  Uiso   1.00
C394   C     0.90268   0.15101   0.75079   0.00000  Uiso   1.00
C395   C     0.59883   0.34726   0.25112   0.00000  Uiso   1.00
C396   C     0.84899   0.40268   0.75079   0.00000  Uiso   1.00
C397   C     0.65274   0.09883   0.25112   0.00000  Uiso   1.00
C398   C     0.59732   0.34899   0.75079   0.00000  Uiso   1.00
C399   C     0.50000   0.25000   0.47331   0.00000  Uiso   1.00
C400   C     0.90117   0.15274   0.25112   0.00000  Uiso   1.00
C401   C     0.57718   0.36496   0.11818   0.00000  Uiso   1.00
C402   C     0.92543   0.14351   0.88386   0.00000  Uiso   1.00
C403   C     0.86494   0.42280   0.11817   0.00000  Uiso   1.00
C404   C     0.64351   0.07456   0.88386   0.00000  Uiso   1.00
C405   C     0.92282   0.13505   0.11818   0.00000  Uiso   1.00
C406   C     0.57457   0.35649   0.88386   0.00000  Uiso   1.00
C407   C     0.63504   0.07718   0.11818   0.00000  Uiso   1.00
C408   C     0.85649   0.42543   0.88386   0.00000  Uiso   1.00
C409   C     0.56977   0.14218   0.87867   0.00000  Uiso   1.00
C410   C     0.50000   0.25000   0.41006   0.00000  Uiso   1.00
C411   C     0.86648   0.31504   0.12645   0.00000  Uiso   1.00
C412   C     0.85782   0.06977   0.87867   0.00000  Uiso   1.00
C413   C     0.68495   0.36649   0.12643   0.00000  Uiso   1.00
C414   C     0.93023   0.35782   0.87867   0.00000  Uiso   1.00
C415   C     0.63351   0.18495   0.12643   0.00000  Uiso   1.00
C416   C     0.64218   0.43023   0.87867   0.00000  Uiso   1.00
C417   C     0.81505   0.13351   0.12643   0.00000  Uiso   1.00
C418   C     0.82718   0.11495   0.61818   0.00000  Uiso   1.00
C419   C     0.67544   0.39351   0.38386   0.00000  Uiso   1.00
C420   C     0.61496   0.17282   0.61818   0.00000  Uiso   1.00
H421   H     0.58819   0.39244   0.10751   0.00000  Uiso   1.00
H422   H     0.64240   0.05117   0.85230   0.00000  Uiso   1.00
H423   H     0.61593   0.08039   0.90165   0.00000  Uiso   1.00
H424   H     0.66080   0.06617   0.92209   0.00000  Uiso   1.00
H425   H     0.91181   0.10756   0.10751   0.00000  Uiso   1.00
H426   H     0.94698   0.13266   0.14796   0.00000  Uiso   1.00
H427   H     0.93211   0.14751   0.07569   0.00000  Uiso   1.00
H428   H     0.55117   0.35760   0.85230   0.00000  Uiso   1.00
H429   H     0.58039   0.38407   0.90166   0.00000  Uiso   1.00
H430   H     0.56617   0.33920   0.92209   0.00000  Uiso   1.00
H431   H     0.60756   0.08819   0.10751   0.00000  Uiso   1.00
H432   H     0.55302   0.36734   0.14797   0.00000  Uiso   1.00
H433   H     0.63266   0.05302   0.14797   0.00000  Uiso   1.00
H434   H     0.64751   0.06789   0.07570   0.00000  Uiso   1.00
H435   H     0.85760   0.44883   0.85230   0.00000  Uiso   1.00
H436   H     0.88407   0.41961   0.90166   0.00000  Uiso   1.00
H437   H     0.83920   0.43383   0.92209   0.00000  Uiso   1.00
H438   H     0.56531   0.11308   0.86649   0.00000  Uiso   1.00
H439   H     0.54708   0.15888   0.86077   0.00000  Uiso   1.00
H440   H     0.56859   0.14405   0.92808   0.00000  Uiso   1.00
H441   H     0.84106   0.32899   0.11224   0.00000  Uiso   1.00
H442   H     0.86040   0.29506   0.16255   0.00000  Uiso   1.00
H443   H     0.56789   0.35249   0.07570   0.00000  Uiso   1.00
H444   H     0.87681   0.29946   0.08753   0.00000  Uiso   1.00
H445   H     0.88692   0.06532   0.86650   0.00000  Uiso   1.00
H446   H     0.84112   0.04708   0.86076   0.00000  Uiso   1.00
H447   H     0.85595   0.06860   0.92808   0.00000  Uiso   1.00
H448   H     0.67099   0.34108   0.11221   0.00000  Uiso   1.00
H449   H     0.70493   0.36041   0.16252   0.00000  Uiso   1.00
H450   H     0.70052   0.37683   0.08751   0.00000  Uiso   1.00
H451   H     0.93469   0.38692   0.86650   0.00000  Uiso   1.00
H452   H     0.95292   0.34112   0.86076   0.00000  Uiso   1.00
H453   H     0.93141   0.35595   0.92808   0.00000  Uiso   1.00
H454   H     0.94883   0.14239   0.85230   0.00000  Uiso   1.00
H455   H     0.65892   0.17099   0.11221   0.00000  Uiso   1.00
H456   H     0.63959   0.20493   0.16252   0.00000  Uiso   1.00
H457   H     0.62317   0.20052   0.08751   0.00000  Uiso   1.00
H458   H     0.61308   0.43468   0.86650   0.00000  Uiso   1.00
H459   H     0.65888   0.45292   0.86076   0.00000  Uiso   1.00
H460   H     0.64405   0.43140   0.92808   0.00000  Uiso   1.00
H461   H     0.82901   0.15892   0.11222   0.00000  Uiso   1.00
H462   H     0.79507   0.13959   0.16252   0.00000  Uiso   1.00
H463   H     0.79948   0.12317   0.08751   0.00000  Uiso   1.00
H464   H     0.83819   0.14244   0.60751   0.00000  Uiso   1.00
H465   H     0.91960   0.11593   0.90167   0.00000  Uiso   1.00
H466   H     0.80302   0.11734   0.64796   0.00000  Uiso   1.00
H467   H     0.81789   0.10249   0.57569   0.00000  Uiso   1.00
H468   H     0.69883   0.39240   0.35230   0.00000  Uiso   1.00
H469   H     0.66961   0.36593   0.40165   0.00000  Uiso   1.00
H470   H     0.68383   0.41080   0.42209   0.00000  Uiso   1.00
H471   H     0.64244   0.16181   0.60751   0.00000  Uiso   1.00
H472   H     0.61735   0.19698   0.64797   0.00000  Uiso   1.00
H473   H     0.60250   0.18211   0.57570   0.00000  Uiso   1.00
H474   H     0.89232   0.30121   0.35229   0.00000  Uiso   1.00
H475   H     0.86601   0.33046   0.40184   0.00000  Uiso   1.00
H476   H     0.93383   0.16080   0.92209   0.00000  Uiso   1.00
H477   H     0.91089   0.31615   0.42200   0.00000  Uiso   1.00
H478   H     0.66181   0.35756   0.60751   0.00000  Uiso   1.00
H479   H     0.69698   0.38266   0.64797   0.00000  Uiso   1.00
H480   H     0.68211   0.39751   0.57569   0.00000  Uiso   1.00
H481   H     0.80117   0.10761   0.35230   0.00000  Uiso   1.00
H482   H     0.83040   0.13406   0.40167   0.00000  Uiso   1.00
H483   H     0.81617   0.08919   0.42209   0.00000  Uiso   1.00
H484   H     0.85756   0.33819   0.60751   0.00000  Uiso   1.00
H485   H     0.88266   0.30302   0.64797   0.00000  Uiso   1.00
H486   H     0.89751   0.31789   0.57570   0.00000  Uiso   1.00
H487   H     0.89242   0.41180   0.10749   0.00000  Uiso   1.00
H488   H     0.60760   0.19883   0.35230   0.00000  Uiso   1.00
H489   H     0.63407   0.16961   0.40165   0.00000  Uiso   1.00
H490   H     0.58920   0.18383   0.42209   0.00000  Uiso   1.00
H491   H     0.81537   0.36306   0.36659   0.00000  Uiso   1.00
H492   H     0.79709   0.40884   0.36072   0.00000  Uiso   1.00
H493   H     0.81860   0.39410   0.42809   0.00000  Uiso   1.00
H494   H     0.59108   0.07901   0.61221   0.00000  Uiso   1.00
H495   H     0.61041   0.04507   0.66252   0.00000  Uiso   1.00
H496   H     0.62684   0.04948   0.58750   0.00000  Uiso   1.00
H497   H     0.63692   0.31531   0.36649   0.00000  Uiso   1.00
H498   H     0.86733   0.44697   0.14795   0.00000  Uiso   1.00
H499   H     0.59112   0.29708   0.36077   0.00000  Uiso   1.00
H500   H     0.60595   0.31859   0.42808   0.00000  Uiso   1.00
H501   H     0.92099   0.09108   0.61221   0.00000  Uiso   1.00
H502   H     0.95493   0.11041   0.66252   0.00000  Uiso   1.00
H503   H     0.95052   0.12683   0.58751   0.00000  Uiso   1.00
H504   H     0.68469   0.13692   0.36649   0.00000  Uiso   1.00
H505   H     0.70292   0.09112   0.36076   0.00000  Uiso   1.00
H506   H     0.68141   0.10595   0.42808   0.00000  Uiso   1.00
H507   H     0.90892   0.42099   0.61221   0.00000  Uiso   1.00
H508   H     0.88959   0.45493   0.66252   0.00000  Uiso   1.00
H509   H     0.85248   0.43209   0.07568   0.00000  Uiso   1.00
H510   H     0.87317   0.45052   0.58751   0.00000  Uiso   1.00
H511   H     0.86308   0.18468   0.36650   0.00000  Uiso   1.00
H512   H     0.90888   0.20292   0.36076   0.00000  Uiso   1.00
H513   H     0.89405   0.18140   0.42808   0.00000  Uiso   1.00
H514   H     0.57901   0.40892   0.61221   0.00000  Uiso   1.00
H515   H     0.54507   0.38959   0.66252   0.00000  Uiso   1.00
H516   H     0.54948   0.37317   0.58751   0.00000  Uiso   1.00
O517   O     0.50000   0.25000   0.25000   0.00000  Uiso   1.00
O518   O     0.50000   0.28035   0.61781   0.00000  Uiso   1.00
O519   O     0.71964  -0.00000   0.38219   0.00000  Uiso   1.00
O520   O     0.78035  -0.00000   0.61781   0.00000  Uiso   1.00
O521   O     0.75000   0.03035   0.88219   0.00000  Uiso   1.00
O522   O     0.75000   0.46964   0.11781   0.00000  Uiso   1.00
O523   O     0.53035   0.25000   0.88219   0.00000  Uiso   1.00
O524   O     0.96964   0.25000   0.11781   0.00000  Uiso   1.00
O525   O     0.75000   0.46964   0.88219   0.00000  Uiso   1.00
O526   O     0.75000   0.03035   0.11781   0.00000  Uiso   1.00
O527   O     0.96964   0.25000   0.88219   0.00000  Uiso   1.00
O528   O     0.50000   0.25000   0.75000   0.00000  Uiso   1.00
O529   O     0.53035   0.25000   0.11781   0.00000  Uiso   1.00
O530   O     0.54267   0.17692   0.28474   0.00000  Uiso   1.00
O531   O     0.95732   0.32307   0.71526   0.00000  Uiso   1.00
O532   O     0.67692   0.45732   0.28474   0.00000  Uiso   1.00
O533   O     0.82307   0.04267   0.71526   0.00000  Uiso   1.00
O534   O     0.95732   0.32307   0.28474   0.00000  Uiso   1.00
O535   O     0.54267   0.17692   0.71526   0.00000  Uiso   1.00
O536   O     0.82307   0.04267   0.28474   0.00000  Uiso   1.00
O537   O     0.67692   0.45732   0.71526   0.00000  Uiso   1.00
O538   O     0.54267   0.32307   0.71526   0.00000  Uiso   1.00
O539   O     0.75000  -0.00000   0.25000   0.00000  Uiso   1.00
O540   O     0.95732   0.17692   0.28474   0.00000  Uiso   1.00
O541   O     0.67692   0.04267   0.71526   0.00000  Uiso   1.00
O542   O     0.82307   0.45732   0.28474   0.00000  Uiso   1.00
O543   O     0.95732   0.17692   0.71526   0.00000  Uiso   1.00
O544   O     0.54267   0.32307   0.28474   0.00000  Uiso   1.00
O545   O     0.82307   0.45732   0.71526   0.00000  Uiso   1.00
O546   O     0.67692   0.04267   0.28474   0.00000  Uiso   1.00
O547   O     0.79267   0.42692   0.78474   0.00000  Uiso   1.00
O548   O     0.70732   0.07307   0.21526   0.00000  Uiso   1.00
O549   O     0.92692   0.20732   0.78474   0.00000  Uiso   1.00
O550   O     0.75000  -0.00000   0.75000   0.00000  Uiso   1.00
O551   O     0.57307   0.29267   0.21526   0.00000  Uiso   1.00
O552   O     0.70732   0.07307   0.78474   0.00000  Uiso   1.00
O553   O     0.79267   0.42692   0.21526   0.00000  Uiso   1.00
O554   O     0.57307   0.29267   0.78474   0.00000  Uiso   1.00
O555   O     0.92692   0.20732   0.21526   0.00000  Uiso   1.00
O556   O     0.79267   0.07307   0.21526   0.00000  Uiso   1.00
O557   O     0.70732   0.42692   0.78474   0.00000  Uiso   1.00
O558   O     0.92692   0.29267   0.21526   0.00000  Uiso   1.00
O559   O     0.57307   0.20732   0.78474   0.00000  Uiso   1.00
O560   O     0.70732   0.42692   0.21526   0.00000  Uiso   1.00
O561   O     0.50000   0.28035   0.38219   0.00000  Uiso   1.00
O562   O     0.79267   0.07307   0.78474   0.00000  Uiso   1.00
O563   O     0.57307   0.20732   0.21526   0.00000  Uiso   1.00
O564   O     0.92692   0.29267   0.78474   0.00000  Uiso   1.00
O565   O     0.60414   0.34237   0.14347   0.00000  Uiso   1.00
O566   O     0.89403   0.15896   0.85779   0.00000  Uiso   1.00
O567   O     0.84236   0.39584   0.14347   0.00000  Uiso   1.00
O568   O     0.65896   0.10597   0.85779   0.00000  Uiso   1.00
O569   O     0.89585   0.15763   0.14347   0.00000  Uiso   1.00
O570   O     0.60597   0.34104   0.85779   0.00000  Uiso   1.00
O571   O     0.65763   0.10414   0.14347   0.00000  Uiso   1.00
O572   O     0.50000   0.21964   0.61781   0.00000  Uiso   1.00
O573   O     0.84104   0.39403   0.85779   0.00000  Uiso   1.00
O574   O     0.60372   0.15612   0.85942   0.00000  Uiso   1.00
O575   O     0.89342   0.34032   0.14389   0.00000  Uiso   1.00
O576   O     0.84388   0.10372   0.85942   0.00000  Uiso   1.00
O577   O     0.65966   0.39343   0.14389   0.00000  Uiso   1.00
O578   O     0.89628   0.34388   0.85942   0.00000  Uiso   1.00
O579   O     0.60657   0.15966   0.14389   0.00000  Uiso   1.00
O580   O     0.65612   0.39628   0.85942   0.00000  Uiso   1.00
O581   O     0.84033   0.10657   0.14389   0.00000  Uiso   1.00
O582   O     0.85414   0.09237   0.64347   0.00000  Uiso   1.00
O583   O     0.78035  -0.00000   0.38219   0.00000  Uiso   1.00
O584   O     0.64403   0.40896   0.35779   0.00000  Uiso   1.00
O585   O     0.59237   0.14586   0.64347   0.00000  Uiso   1.00
O586   O     0.90898   0.35599   0.35778   0.00000  Uiso   1.00
O587   O     0.64586   0.40763   0.64347   0.00000  Uiso   1.00
O588   O     0.85597   0.09104   0.35779   0.00000  Uiso   1.00
O589   O     0.90763   0.35414   0.64347   0.00000  Uiso   1.00
O590   O     0.59104   0.14403   0.35779   0.00000  Uiso   1.00
O591   O     0.85373   0.40613   0.35941   0.00000  Uiso   1.00
O592   O     0.64343   0.09034   0.64389   0.00000  Uiso   1.00
O593   O     0.59388   0.35372   0.35942   0.00000  Uiso   1.00
O594   O     0.71964  -0.00000   0.61781   0.00000  Uiso   1.00
O595   O     0.90967   0.14343   0.64389   0.00000  Uiso   1.00
O596   O     0.64628   0.09388   0.35942   0.00000  Uiso   1.00
O597   O     0.85657   0.40966   0.64389   0.00000  Uiso   1.00
O598   O     0.90612   0.14628   0.35942   0.00000  Uiso   1.00
O599   O     0.59033   0.35657   0.64389   0.00000  Uiso   1.00
O600   O     0.50000   0.21964   0.38219   0.00000  Uiso   1.00
Zn601  Zn    0.54333   0.25000   0.20067   0.00000  Uiso   1.00
Zn602  Zn    0.70667  -0.00000   0.29933   0.00000  Uiso   1.00
Zn603  Zn    0.50000   0.20667   0.70067   0.00000  Uiso   1.00
Zn604  Zn    0.50000   0.29333   0.29933   0.00000  Uiso   1.00
Zn605  Zn    0.70667  -0.00000   0.70067   0.00000  Uiso   1.00
Zn606  Zn    0.79333  -0.00000   0.29933   0.00000  Uiso   1.00
Zn607  Zn    0.50000   0.29333   0.70067   0.00000  Uiso   1.00
Zn608  Zn    0.50000   0.20667   0.29933   0.00000  Uiso   1.00
Zn609  Zn    0.95667   0.25000   0.79933   0.00000  Uiso   1.00
Zn610  Zn    0.75000   0.45667   0.20067   0.00000  Uiso   1.00
Zn611  Zn    0.75000   0.04333   0.79933   0.00000  Uiso   1.00
Zn612  Zn    0.95667   0.25000   0.20067   0.00000  Uiso   1.00
Zn613  Zn    0.54333   0.25000   0.79933   0.00000  Uiso   1.00
Zn614  Zn    0.75000   0.04333   0.20067   0.00000  Uiso   1.00
Zn615  Zn    0.75000   0.45667   0.79933   0.00000  Uiso   1.00
Zn616  Zn    0.79333  -0.00000   0.70067   0.00000  Uiso   1.00
C617   C     0.00000   0.75000   0.02668   0.00000  Uiso   1.00
C618   C    -0.00000   0.75000   0.58994   0.00000  Uiso   1.00
C619   C     0.39354   0.82459   0.38388   0.00000  Uiso   1.00
C620   C     0.17282   0.88504   0.61818   0.00000  Uiso   1.00
C621   C     0.32457   0.60648   0.38386   0.00000  Uiso   1.00
C622   C     0.38504   0.82718   0.61818   0.00000  Uiso   1.00
C623   C     0.10649   0.67544   0.38386   0.00000  Uiso   1.00
C624   C     0.31979   0.89218   0.37869   0.00000  Uiso   1.00
C625   C     0.11649   0.56506   0.62642   0.00000  Uiso   1.00
C626   C     0.10782   0.81977   0.37867   0.00000  Uiso   1.00
C627   C     0.43495   0.61649   0.62643   0.00000  Uiso   1.00
C628   C     0.18023   0.60782   0.37867   0.00000  Uiso   1.00
C629   C     0.25000   0.50000   0.41006   0.00000  Uiso   1.00
C630   C     0.38351   0.93495   0.62643   0.00000  Uiso   1.00
C631   C     0.39218   0.68023   0.37867   0.00000  Uiso   1.00
C632   C     0.06505   0.88351   0.62643   0.00000  Uiso   1.00
C633   C     0.25000   0.50000   0.58994   0.00000  Uiso   1.00
C634   C     0.25000   0.50000   0.91006   0.00000  Uiso   1.00
C635   C     0.25000   0.50000   0.08994   0.00000  Uiso   1.00
C636   C    -0.00000   0.75000   0.91006   0.00000  Uiso   1.00
C637   C     0.00000   0.75000   0.08994   0.00000  Uiso   1.00
C638   C     0.07008   0.67996   0.24990   0.00000  Uiso   1.00
C639   C     0.43008   0.82012   0.75019   0.00000  Uiso   1.00
C640   C     0.17996   0.92992   0.24990   0.00000  Uiso   1.00
C641   C    -0.00000   0.75000   0.97331   0.00000  Uiso   1.00
C642   C     0.32012   0.56992   0.75019   0.00000  Uiso   1.00
C643   C     0.42992   0.82004   0.24990   0.00000  Uiso   1.00
C644   C     0.06992   0.67988   0.75019   0.00000  Uiso   1.00
C645   C     0.32004   0.57008   0.24990   0.00000  Uiso   1.00
C646   C     0.17988   0.93008   0.75019   0.00000  Uiso   1.00
C647   C     0.07004   0.82008   0.74990   0.00000  Uiso   1.00
C648   C     0.42988   0.68008   0.25019   0.00000  Uiso   1.00
C649   C     0.17992   0.57004   0.74990   0.00000  Uiso   1.00
C650   C     0.31992   0.92988   0.25019   0.00000  Uiso   1.00
C651   C     0.42996   0.67992   0.74990   0.00000  Uiso   1.00
C652   C     0.25000   0.50000   0.02668   0.00000  Uiso   1.00
C653   C     0.07012   0.81992   0.25019   0.00000  Uiso   1.00
C654   C     0.32008   0.92996   0.74990   0.00000  Uiso   1.00
C655   C     0.18008   0.57012   0.25019   0.00000  Uiso   1.00
C656   C     0.11532   0.85759   0.19698   0.00000  Uiso   1.00
C657   C     0.38615   0.64077   0.80516   0.00000  Uiso   1.00
C658   C     0.35758   0.88468   0.19699   0.00000  Uiso   1.00
C659   C     0.14077   0.61385   0.80516   0.00000  Uiso   1.00
C660   C     0.38468   0.64241   0.19699   0.00000  Uiso   1.00
C661   C     0.11385   0.85923   0.80516   0.00000  Uiso   1.00
C662   C     0.14241   0.61532   0.19698   0.00000  Uiso   1.00
C663   C     0.25000   0.50000   0.97331   0.00000  Uiso   1.00
C664   C     0.35923   0.88615   0.80516   0.00000  Uiso   1.00
C665   C     0.11328   0.64020   0.80553   0.00000  Uiso   1.00
C666   C     0.38297   0.85629   0.19725   0.00000  Uiso   1.00
C667   C     0.35980   0.61328   0.80553   0.00000  Uiso   1.00
C668   C     0.14370   0.88298   0.19725   0.00000  Uiso   1.00
C669   C     0.38672   0.85980   0.80553   0.00000  Uiso   1.00
C670   C     0.11702   0.64370   0.19725   0.00000  Uiso   1.00
C671   C     0.14020   0.88672   0.80553   0.00000  Uiso   1.00
C672   C     0.35630   0.61702   0.19725   0.00000  Uiso   1.00
C673   C     0.36532   0.60759   0.69699   0.00000  Uiso   1.00
C674   C     0.25000   0.50000   0.52668   0.00000  Uiso   1.00
C675   C     0.13615   0.89077   0.30516   0.00000  Uiso   1.00
C676   C     0.10759   0.63468   0.69698   0.00000  Uiso   1.00
C677   C     0.39077   0.86385   0.30515   0.00000  Uiso   1.00
C678   C     0.13468   0.89241   0.69698   0.00000  Uiso   1.00
C679   C     0.36385   0.60923   0.30516   0.00000  Uiso   1.00
C680   C     0.39241   0.86532   0.69698   0.00000  Uiso   1.00
C681   C     0.10923   0.63615   0.30516   0.00000  Uiso   1.00
C682   C     0.36329   0.89021   0.30553   0.00000  Uiso   1.00
C683   C     0.13298   0.60630   0.69725   0.00000  Uiso   1.00
C684   C     0.10980   0.86328   0.30553   0.00000  Uiso   1.00
C685   C     0.25000   0.50000   0.47331   0.00000  Uiso   1.00
C686   C     0.39370   0.63298   0.69725   0.00000  Uiso   1.00
C687   C     0.13672   0.60980   0.30553   0.00000  Uiso   1.00
C688   C     0.36702   0.89370   0.69725   0.00000  Uiso   1.00
C689   C     0.39020   0.63672   0.30553   0.00000  Uiso   1.00
C690   C     0.10630   0.86702   0.69725   0.00000  Uiso   1.00
C691   C     0.15268   0.90101   0.25079   0.00000  Uiso   1.00
C692   C     0.34883   0.59726   0.75112   0.00000  Uiso   1.00
C693   C     0.40101   0.84732   0.25079   0.00000  Uiso   1.00
C694   C     0.09726   0.65117   0.75112   0.00000  Uiso   1.00
C695   C     0.34732   0.59899   0.25079   0.00000  Uiso   1.00
C696   C    -0.00000   0.75000   0.52668   0.00000  Uiso   1.00
C697   C     0.15117   0.90274   0.75112   0.00000  Uiso   1.00
C698   C     0.09899   0.65268   0.25079   0.00000  Uiso   1.00
C699   C     0.40274   0.84883   0.75112   0.00000  Uiso   1.00
C700   C     0.15101   0.59732   0.75079   0.00000  Uiso   1.00
C701   C     0.34726   0.90117   0.25112   0.00000  Uiso   1.00
C702   C     0.40268   0.65101   0.75079   0.00000  Uiso   1.00
C703   C     0.09883   0.84726   0.25112   0.00000  Uiso   1.00
C704   C     0.34899   0.90268   0.75079   0.00000  Uiso   1.00
C705   C     0.15274   0.59883   0.25112   0.00000  Uiso   1.00
C706   C     0.09732   0.84899   0.75079   0.00000  Uiso   1.00
C707   C    -0.00000   0.75000   0.47331   0.00000  Uiso   1.00
C708   C     0.40117   0.65274   0.25112   0.00000  Uiso   1.00
C709   C     0.07718   0.86496   0.11818   0.00000  Uiso   1.00
C710   C     0.42543   0.64351   0.88386   0.00000  Uiso   1.00
C711   C     0.36494   0.92280   0.11817   0.00000  Uiso   1.00
C712   C     0.14351   0.57456   0.88386   0.00000  Uiso   1.00
C713   C     0.42282   0.63505   0.11818   0.00000  Uiso   1.00
C714   C     0.07457   0.85649   0.88386   0.00000  Uiso   1.00
C715   C     0.13504   0.57718   0.11818   0.00000  Uiso   1.00
C716   C     0.35649   0.92543   0.88386   0.00000  Uiso   1.00
C717   C     0.06977   0.64218   0.87867   0.00000  Uiso   1.00
C718   C    -0.00000   0.75000   0.41006   0.00000  Uiso   1.00
C719   C     0.36648   0.81504   0.12645   0.00000  Uiso   1.00
C720   C     0.35782   0.56977   0.87867   0.00000  Uiso   1.00
C721   C     0.18495   0.86649   0.12643   0.00000  Uiso   1.00
C722   C     0.43023   0.85782   0.87867   0.00000  Uiso   1.00
C723   C     0.13351   0.68495   0.12643   0.00000  Uiso   1.00
C724   C     0.14218   0.93023   0.87867   0.00000  Uiso   1.00
C725   C     0.31505   0.63351   0.12643   0.00000  Uiso   1.00
C726   C     0.32718   0.61495   0.61818   0.00000  Uiso   1.00
C727   C     0.17544   0.89351   0.38386   0.00000  Uiso   1.00
C728   C     0.11496   0.67282   0.61818   0.00000  Uiso   1.00
H729   H     0.08819   0.89244   0.10751   0.00000  Uiso   1.00
H730   H     0.14240   0.55117   0.85230   0.00000  Uiso   1.00
H731   H     0.11593   0.58039   0.90165   0.00000  Uiso   1.00
H732   H     0.16080   0.56617   0.92209   0.00000  Uiso   1.00
H733   H     0.41181   0.60756   0.10751   0.00000  Uiso   1.00
H734   H     0.44698   0.63266   0.14796   0.00000  Uiso   1.00
H735   H     0.43211   0.64751   0.07569   0.00000  Uiso   1.00
H736   H     0.05117   0.85760   0.85230   0.00000  Uiso   1.00
H737   H     0.08039   0.88407   0.90166   0.00000  Uiso   1.00
H738   H     0.06617   0.83920   0.92209   0.00000  Uiso   1.00
H739   H     0.10756   0.58819   0.10751   0.00000  Uiso   1.00
H740   H     0.05302   0.86734   0.14797   0.00000  Uiso   1.00
H741   H     0.13266   0.55302   0.14797   0.00000  Uiso   1.00
H742   H     0.14751   0.56789   0.07570   0.00000  Uiso   1.00
H743   H     0.35760   0.94883   0.85230   0.00000  Uiso   1.00
H744   H     0.38407   0.91961   0.90166   0.00000  Uiso   1.00
H745   H     0.33920   0.93383   0.92209   0.00000  Uiso   1.00
H746   H     0.06531   0.61308   0.86649   0.00000  Uiso   1.00
H747   H     0.04708   0.65888   0.86077   0.00000  Uiso   1.00
H748   H     0.06859   0.64405   0.92808   0.00000  Uiso   1.00
H749   H     0.34106   0.82899   0.11224   0.00000  Uiso   1.00
H750   H     0.36040   0.79506   0.16255   0.00000  Uiso   1.00
H751   H     0.06789   0.85249   0.07570   0.00000  Uiso   1.00
H752   H     0.37681   0.79946   0.08753   0.00000  Uiso   1.00
H753   H     0.38692   0.56532   0.86650   0.00000  Uiso   1.00
H754   H     0.34112   0.54708   0.86076   0.00000  Uiso   1.00
H755   H     0.35595   0.56860   0.92808   0.00000  Uiso   1.00
H756   H     0.17099   0.84108   0.11221   0.00000  Uiso   1.00
H757   H     0.20493   0.86041   0.16252   0.00000  Uiso   1.00
H758   H     0.20052   0.87683   0.08751   0.00000  Uiso   1.00
H759   H     0.43469   0.88692   0.86650   0.00000  Uiso   1.00
H760   H     0.45292   0.84112   0.86076   0.00000  Uiso   1.00
H761   H     0.43141   0.85595   0.92808   0.00000  Uiso   1.00
H762   H     0.44883   0.64239   0.85230   0.00000  Uiso   1.00
H763   H     0.15892   0.67099   0.11221   0.00000  Uiso   1.00
H764   H     0.13959   0.70493   0.16252   0.00000  Uiso   1.00
H765   H     0.12317   0.70052   0.08751   0.00000  Uiso   1.00
H766   H     0.11308   0.93468   0.86650   0.00000  Uiso   1.00
H767   H     0.15888   0.95292   0.86076   0.00000  Uiso   1.00
H768   H     0.14405   0.93140   0.92808   0.00000  Uiso   1.00
H769   H     0.32901   0.65892   0.11222   0.00000  Uiso   1.00
H770   H     0.29507   0.63959   0.16252   0.00000  Uiso   1.00
H771   H     0.29948   0.62317   0.08751   0.00000  Uiso   1.00
H772   H     0.33819   0.64244   0.60751   0.00000  Uiso   1.00
H773   H     0.41960   0.61593   0.90167   0.00000  Uiso   1.00
H774   H     0.30302   0.61734   0.64796   0.00000  Uiso   1.00
H775   H     0.31789   0.60249   0.57569   0.00000  Uiso   1.00
H776   H     0.19883   0.89240   0.35230   0.00000  Uiso   1.00
H777   H     0.16961   0.86593   0.40165   0.00000  Uiso   1.00
H778   H     0.18383   0.91080   0.42209   0.00000  Uiso   1.00
H779   H     0.14244   0.66181   0.60751   0.00000  Uiso   1.00
H780   H     0.11735   0.69698   0.64797   0.00000  Uiso   1.00
H781   H     0.10250   0.68211   0.57570   0.00000  Uiso   1.00
H782   H     0.39232   0.80121   0.35229   0.00000  Uiso   1.00
H783   H     0.36601   0.83046   0.40184   0.00000  Uiso   1.00
H784   H     0.43383   0.66080   0.92209   0.00000  Uiso   1.00
H785   H     0.41089   0.81615   0.42200   0.00000  Uiso   1.00
H786   H     0.16181   0.85756   0.60751   0.00000  Uiso   1.00
H787   H     0.19698   0.88266   0.64797   0.00000  Uiso   1.00
H788   H     0.18211   0.89751   0.57569   0.00000  Uiso   1.00
H789   H     0.30117   0.60761   0.35230   0.00000  Uiso   1.00
H790   H     0.33040   0.63406   0.40167   0.00000  Uiso   1.00
H791   H     0.31617   0.58919   0.42209   0.00000  Uiso   1.00
H792   H     0.35756   0.83819   0.60751   0.00000  Uiso   1.00
H793   H     0.38266   0.80302   0.64797   0.00000  Uiso   1.00
H794   H     0.39751   0.81789   0.57570   0.00000  Uiso   1.00
H795   H     0.39242   0.91180   0.10749   0.00000  Uiso   1.00
H796   H     0.10760   0.69883   0.35230   0.00000  Uiso   1.00
H797   H     0.13407   0.66961   0.40165   0.00000  Uiso   1.00
H798   H     0.08920   0.68383   0.42209   0.00000  Uiso   1.00
H799   H     0.31537   0.86306   0.36659   0.00000  Uiso   1.00
H800   H     0.29709   0.90884   0.36072   0.00000  Uiso   1.00
H801   H     0.31860   0.89410   0.42809   0.00000  Uiso   1.00
H802   H     0.09108   0.57901   0.61221   0.00000  Uiso   1.00
H803   H     0.11041   0.54507   0.66252   0.00000  Uiso   1.00
H804   H     0.12684   0.54948   0.58750   0.00000  Uiso   1.00
H805   H     0.13692   0.81531   0.36649   0.00000  Uiso   1.00
H806   H     0.36733   0.94697   0.14795   0.00000  Uiso   1.00
H807   H     0.09112   0.79708   0.36077   0.00000  Uiso   1.00
H808   H     0.10595   0.81859   0.42808   0.00000  Uiso   1.00
H809   H     0.42099   0.59108   0.61221   0.00000  Uiso   1.00
H810   H     0.45493   0.61041   0.66252   0.00000  Uiso   1.00
H811   H     0.45052   0.62683   0.58751   0.00000  Uiso   1.00
H812   H     0.18469   0.63692   0.36649   0.00000  Uiso   1.00
H813   H     0.20292   0.59112   0.36076   0.00000  Uiso   1.00
H814   H     0.18141   0.60595   0.42808   0.00000  Uiso   1.00
H815   H     0.40892   0.92099   0.61221   0.00000  Uiso   1.00
H816   H     0.38959   0.95493   0.66252   0.00000  Uiso   1.00
H817   H     0.35248   0.93209   0.07568   0.00000  Uiso   1.00
H818   H     0.37317   0.95052   0.58751   0.00000  Uiso   1.00
H819   H     0.36308   0.68468   0.36650   0.00000  Uiso   1.00
H820   H     0.40888   0.70292   0.36076   0.00000  Uiso   1.00
H821   H     0.39405   0.68140   0.42808   0.00000  Uiso   1.00
H822   H     0.07901   0.90892   0.61221   0.00000  Uiso   1.00
H823   H     0.04507   0.88959   0.66252   0.00000  Uiso   1.00
H824   H     0.04948   0.87317   0.58751   0.00000  Uiso   1.00
O825   O    -0.00000   0.75000   0.25000   0.00000  Uiso   1.00
O826   O    -0.00000   0.78035   0.61781   0.00000  Uiso   1.00
O827   O     0.21964   0.50000   0.38219   0.00000  Uiso   1.00
O828   O     0.28035   0.50000   0.61781   0.00000  Uiso   1.00
O829   O     0.25000   0.53035   0.88219   0.00000  Uiso   1.00
O830   O     0.25000   0.96964   0.11781   0.00000  Uiso   1.00
O831   O     0.03035   0.75000   0.88219   0.00000  Uiso   1.00
O832   O     0.46964   0.75000   0.11781   0.00000  Uiso   1.00
O833   O     0.25000   0.96964   0.88219   0.00000  Uiso   1.00
O834   O     0.25000   0.53035   0.11781   0.00000  Uiso   1.00
O835   O     0.46964   0.75000   0.88219   0.00000  Uiso   1.00
O836   O     0.00000   0.75000   0.75000   0.00000  Uiso   1.00
O837   O     0.03035   0.75000   0.11781   0.00000  Uiso   1.00
O838   O     0.04267   0.67692   0.28474   0.00000  Uiso   1.00
O839   O     0.45732   0.82307   0.71526   0.00000  Uiso   1.00
O840   O     0.17692   0.95732   0.28474   0.00000  Uiso   1.00
O841   O     0.32307   0.54267   0.71526   0.00000  Uiso   1.00
O842   O     0.45732   0.82307   0.28474   0.00000  Uiso   1.00
O843   O     0.04267   0.67692   0.71526   0.00000  Uiso   1.00
O844   O     0.32307   0.54267   0.28474   0.00000  Uiso   1.00
O845   O     0.17692   0.95732   0.71526   0.00000  Uiso   1.00
O846   O     0.04267   0.82307   0.71526   0.00000  Uiso   1.00
O847   O     0.25000   0.50000   0.25000   0.00000  Uiso   1.00
O848   O     0.45732   0.67692   0.28474   0.00000  Uiso   1.00
O849   O     0.17692   0.54267   0.71526   0.00000  Uiso   1.00
O850   O     0.32307   0.95732   0.28474   0.00000  Uiso   1.00
O851   O     0.45732   0.67692   0.71526   0.00000  Uiso   1.00
O852   O     0.04267   0.82307   0.28474   0.00000  Uiso   1.00
O853   O     0.32307   0.95732   0.71526   0.00000  Uiso   1.00
O854   O     0.17692   0.54267   0.28474   0.00000  Uiso   1.00
O855   O     0.29267   0.92692   0.78474   0.00000  Uiso   1.00
O856   O     0.20732   0.57307   0.21526   0.00000  Uiso   1.00
O857   O     0.42692   0.70732   0.78474   0.00000  Uiso   1.00
O858   O     0.25000   0.50000   0.75000   0.00000  Uiso   1.00
O859   O     0.07307   0.79267   0.21526   0.00000  Uiso   1.00
O860   O     0.20732   0.57307   0.78474   0.00000  Uiso   1.00
O861   O     0.29267   0.92692   0.21526   0.00000  Uiso   1.00
O862   O     0.07307   0.79267   0.78474   0.00000  Uiso   1.00
O863   O     0.42692   0.70732   0.21526   0.00000  Uiso   1.00
O864   O     0.29267   0.57307   0.21526   0.00000  Uiso   1.00
O865   O     0.20732   0.92692   0.78474   0.00000  Uiso   1.00
O866   O     0.42692   0.79267   0.21526   0.00000  Uiso   1.00
O867   O     0.07307   0.70732   0.78474   0.00000  Uiso   1.00
O868   O     0.20732   0.92692   0.21526   0.00000  Uiso   1.00
O869   O    -0.00000   0.78035   0.38219   0.00000  Uiso   1.00
O870   O     0.29267   0.57307   0.78474   0.00000  Uiso   1.00
O871   O     0.07307   0.70732   0.21526   0.00000  Uiso   1.00
O872   O     0.42692   0.79267   0.78474   0.00000  Uiso   1.00
O873   O     0.10414   0.84237   0.14347   0.00000  Uiso   1.00
O874   O     0.39403   0.65896   0.85779   0.00000  Uiso   1.00
O875   O     0.34236   0.89584   0.14347   0.00000  Uiso   1.00
O876   O     0.15896   0.60597   0.85779   0.00000  Uiso   1.00
O877   O     0.39585   0.65763   0.14347   0.00000  Uiso   1.00
O878   O     0.10597   0.84104   0.85779   0.00000  Uiso   1.00
O879   O     0.15763   0.60414   0.14347   0.00000  Uiso   1.00
O880   O    -0.00000   0.71964   0.61781   0.00000  Uiso   1.00
O881   O     0.34104   0.89403   0.85779   0.00000  Uiso   1.00
O882   O     0.10372   0.65612   0.85942   0.00000  Uiso   1.00
O883   O     0.39342   0.84032   0.14389   0.00000  Uiso   1.00
O884   O     0.34388   0.60372   0.85942   0.00000  Uiso   1.00
O885   O     0.15966   0.89343   0.14389   0.00000  Uiso   1.00
O886   O     0.39628   0.84388   0.85942   0.00000  Uiso   1.00
O887   O     0.10657   0.65966   0.14389   0.00000  Uiso   1.00
O888   O     0.15612   0.89628   0.85942   0.00000  Uiso   1.00
O889   O     0.34033   0.60657   0.14389   0.00000  Uiso   1.00
O890   O     0.35414   0.59237   0.64347   0.00000  Uiso   1.00
O891   O     0.28035   0.50000   0.38219   0.00000  Uiso   1.00
O892   O     0.14403   0.90896   0.35779   0.00000  Uiso   1.00
O893   O     0.09237   0.64586   0.64347   0.00000  Uiso   1.00
O894   O     0.40898   0.85599   0.35778   0.00000  Uiso   1.00
O895   O     0.14586   0.90763   0.64347   0.00000  Uiso   1.00
O896   O     0.35597   0.59104   0.35779   0.00000  Uiso   1.00
O897   O     0.40763   0.85414   0.64347   0.00000  Uiso   1.00
O898   O     0.09104   0.64403   0.35779   0.00000  Uiso   1.00
O899   O     0.35373   0.90613   0.35941   0.00000  Uiso   1.00
O900   O     0.14343   0.59034   0.64389   0.00000  Uiso   1.00
O901   O     0.09388   0.85372   0.35942   0.00000  Uiso   1.00
O902   O     0.21964   0.50000   0.61781   0.00000  Uiso   1.00
O903   O     0.40967   0.64343   0.64389   0.00000  Uiso   1.00
O904   O     0.14628   0.59388   0.35942   0.00000  Uiso   1.00
O905   O     0.35657   0.90966   0.64389   0.00000  Uiso   1.00
O906   O     0.40612   0.64628   0.35942   0.00000  Uiso   1.00
O907   O     0.09033   0.85657   0.64389   0.00000  Uiso   1.00
O908   O     0.00000   0.71964   0.38219   0.00000  Uiso   1.00
Zn909  Zn    0.04333   0.75000   0.20067   0.00000  Uiso   1.00
Zn910  Zn    0.20667   0.50000   0.29933   0.00000  Uiso   1.00
Zn911  Zn    0.00000   0.70667   0.70067   0.00000  Uiso   1.00
Zn912  Zn   -0.00000   0.79333   0.29933   0.00000  Uiso   1.00
Zn913  Zn    0.20667   0.50000   0.70067   0.00000  Uiso   1.00
Zn914  Zn    0.29333   0.50000   0.29933   0.00000  Uiso   1.00
Zn915  Zn   -0.00000   0.79333   0.70067   0.00000  Uiso   1.00
Zn916  Zn   -0.00000   0.70667   0.29933   0.00000  Uiso   1.00
Zn917  Zn    0.45667   0.75000   0.79933   0.00000  Uiso   1.00
Zn918  Zn    0.25000   0.95667   0.20067   0.00000  Uiso   1.00
Zn919  Zn    0.25000   0.54333   0.79933   0.00000  Uiso   1.00
Zn920  Zn    0.45667   0.75000   0.20067   0.00000  Uiso   1.00
Zn921  Zn    0.04333   0.75000   0.79933   0.00000  Uiso   1.00
Zn922  Zn    0.25000   0.54333   0.20067   0.00000  Uiso   1.00
Zn923  Zn    0.25000   0.95667   0.79933   0.00000  Uiso   1.00
Zn924  Zn    0.29333   0.50000   0.70067   0.00000  Uiso   1.00
C925   C     0.50000   0.75000   0.02668   0.00000  Uiso   1.00
C926   C     0.50000   0.75000   0.58994   0.00000  Uiso   1.00
C927   C     0.89354   0.82459   0.38388   0.00000  Uiso   1.00
C928   C     0.67282   0.88504   0.61818   0.00000  Uiso   1.00
C929   C     0.82457   0.60648   0.38386   0.00000  Uiso   1.00
C930   C     0.88504   0.82718   0.61818   0.00000  Uiso   1.00
C931   C     0.60649   0.67544   0.38386   0.00000  Uiso   1.00
C932   C     0.81979   0.89218   0.37869   0.00000  Uiso   1.00
C933   C     0.61649   0.56506   0.62642   0.00000  Uiso   1.00
C934   C     0.60782   0.81977   0.37867   0.00000  Uiso   1.00
C935   C     0.93495   0.61649   0.62643   0.00000  Uiso   1.00
C936   C     0.68023   0.60782   0.37867   0.00000  Uiso   1.00
C937   C     0.75000   0.50000   0.41006   0.00000  Uiso   1.00
C938   C     0.88351   0.93495   0.62643   0.00000  Uiso   1.00
C939   C     0.89218   0.68023   0.37867   0.00000  Uiso   1.00
C940   C     0.56505   0.88351   0.62643   0.00000  Uiso   1.00
C941   C     0.75000   0.50000   0.58994   0.00000  Uiso   1.00
C942   C     0.75000   0.50000   0.91006   0.00000  Uiso   1.00
C943   C     0.75000   0.50000   0.08994   0.00000  Uiso   1.00
C944   C     0.50000   0.75000   0.91006   0.00000  Uiso   1.00
C945   C     0.50000   0.75000   0.08994   0.00000  Uiso   1.00
C946   C     0.57008   0.67996   0.24990   0.00000  Uiso   1.00
C947   C     0.93008   0.82012   0.75019   0.00000  Uiso   1.00
C948   C     0.67996   0.92992   0.24990   0.00000  Uiso   1.00
C949   C     0.50000   0.75000   0.97331   0.00000  Uiso   1.00
C950   C     0.82012   0.56992   0.75019   0.00000  Uiso   1.00
C951   C     0.92992   0.82004   0.24990   0.00000  Uiso   1.00
C952   C     0.56992   0.67988   0.75019   0.00000  Uiso   1.00
C953   C     0.82004   0.57008   0.24990   0.00000  Uiso   1.00
C954   C     0.67988   0.93008   0.75019   0.00000  Uiso   1.00
C955   C     0.57004   0.82008   0.74990   0.00000  Uiso   1.00
C956   C     0.92988   0.68008   0.25019   0.00000  Uiso   1.00
C957   C     0.67992   0.57004   0.74990   0.00000  Uiso   1.00
C958   C     0.81992   0.92988   0.25019   0.00000  Uiso   1.00
C959   C     0.92996   0.67992   0.74990   0.00000  Uiso   1.00
C960   C     0.75000   0.50000   0.02668   0.00000  Uiso   1.00
C961   C     0.57012   0.81992   0.25019   0.00000  Uiso   1.00
C962   C     0.82008   0.92996   0.74990   0.00000  Uiso   1.00
C963   C     0.68008   0.57012   0.25019   0.00000  Uiso   1.00
C964   C     0.61532   0.85759   0.19698   0.00000  Uiso   1.00
C965   C     0.88615   0.64077   0.80516   0.00000  Uiso   1.00
C966   C     0.85758   0.88468   0.19699   0.00000  Uiso   1.00
C967   C     0.64077   0.61385   0.80516   0.00000  Uiso   1.00
C968   C     0.88468   0.64241   0.19699   0.00000  Uiso   1.00
C969   C     0.61385   0.85923   0.80516   0.00000  Uiso   1.00
C970   C     0.64241   0.61532   0.19698   0.00000  Uiso   1.00
C971   C     0.75000   0.50000   0.97331   0.00000  Uiso   1.00
C972   C     0.85923   0.88615   0.80516   0.00000  Uiso   1.00
C973   C     0.61328   0.64020   0.80553   0.00000  Uiso   1.00
C974   C     0.88297   0.85629   0.19725   0.00000  Uiso   1.00
C975   C     0.85980   0.61328   0.80553   0.00000  Uiso   1.00
C976   C     0.64370   0.88298   0.19725   0.00000  Uiso   1.00
C977   C     0.88672   0.85980   0.80553   0.00000  Uiso   1.00
C978   C     0.61702   0.64370   0.19725   0.00000  Uiso   1.00
C979   C     0.64020   0.88672   0.80553   0.00000  Uiso   1.00
C980   C     0.85630   0.61702   0.19725   0.00000  Uiso   1.00
C981   C     0.86532   0.60759   0.69699   0.00000  Uiso   1.00
C982   C     0.75000   0.50000   0.52668   0.00000  Uiso   1.00
C983   C     0.63615   0.89077   0.30516   0.00000  Uiso   1.00
C984   C     0.60759   0.63468   0.69698   0.00000  Uiso   1.00
C985   C     0.89077   0.86385   0.30515   0.00000  Uiso   1.00
C986   C     0.63468   0.89241   0.69698   0.00000  Uiso   1.00
C987   C     0.86385   0.60923   0.30516   0.00000  Uiso   1.00
C988   C     0.89241   0.86532   0.69698   0.00000  Uiso   1.00
C989   C     0.60923   0.63615   0.30516   0.00000  Uiso   1.00
C990   C     0.86329   0.89021   0.30553   0.00000  Uiso   1.00
C991   C     0.63298   0.60630   0.69725   0.00000  Uiso   1.00
C992   C     0.60980   0.86328   0.30553   0.00000  Uiso   1.00
C993   C     0.75000   0.50000   0.47331   0.00000  Uiso   1.00
C994   C     0.89370   0.63298   0.69725   0.00000  Uiso   1.00
C995   C     0.63672   0.60980   0.30553   0.00000  Uiso   1.00
C996   C     0.86702   0.89370   0.69725   0.00000  Uiso   1.00
C997   C     0.89020   0.63672   0.30553   0.00000  Uiso   1.00
C998   C     0.60630   0.86702   0.69725   0.00000  Uiso   1.00
C999   C     0.65268   0.90101   0.25079   0.00000  Uiso   1.00
C1000  C     0.84883   0.59726   0.75112   0.00000  Uiso   1.00
C1001  C     0.90101   0.84732   0.25079   0.00000  Uiso   1.00
C1002  C     0.59726   0.65117   0.75112   0.00000  Uiso   1.00
C1003  C     0.84732   0.59899   0.25079   0.00000  Uiso   1.00
C1004  C     0.50000   0.75000   0.52668   0.00000  Uiso   1.00
C1005  C     0.65117   0.90274   0.75112   0.00000  Uiso   1.00
C1006  C     0.59899   0.65268   0.25079   0.00000  Uiso   1.00
C1007  C     0.90274   0.84883   0.75112   0.00000  Uiso   1.00
C1008  C     0.65101   0.59732   0.75079   0.00000  Uiso   1.00
C1009  C     0.84726   0.90117   0.25112   0.00000  Uiso   1.00
C1010  C     0.90268   0.65101   0.75079   0.00000  Uiso   1.00
C1011  C     0.59883   0.84726   0.25112   0.00000  Uiso   1.00
C1012  C     0.84899   0.90268   0.75079   0.00000  Uiso   1.00
C1013  C     0.65274   0.59883   0.25112   0.00000  Uiso   1.00
C1014  C     0.59732   0.84899   0.75079   0.00000  Uiso   1.00
C1015  C     0.50000   0.75000   0.47331   0.00000  Uiso   1.00
C1016  C     0.90117   0.65274   0.25112   0.00000  Uiso   1.00
C1017  C     0.57718   0.86496   0.11818   0.00000  Uiso   1.00
C1018  C     0.92543   0.64351   0.88386   0.00000  Uiso   1.00
C1019  C     0.86494   0.92280   0.11817   0.00000  Uiso   1.00
C1020  C     0.64351   0.57456   0.88386   0.00000  Uiso   1.00
C1021  C     0.92282   0.63505   0.11818   0.00000  Uiso   1.00
C1022  C     0.57457   0.85649   0.88386   0.00000  Uiso   1.00
C1023  C     0.63504   0.57718   0.11818   0.00000  Uiso   1.00
C1024  C     0.85649   0.92543   0.88386   0.00000  Uiso   1.00
C1025  C     0.56977   0.64218   0.87867   0.00000  Uiso   1.00
C1026  C     0.50000   0.75000   0.41006   0.00000  Uiso   1.00
C1027  C     0.86648   0.81504   0.12645   0.00000  Uiso   1.00
C1028  C     0.85782   0.56977   0.87867   0.00000  Uiso   1.00
C1029  C     0.68495   0.86649   0.12643   0.00000  Uiso   1.00
C1030  C     0.93023   0.85782   0.87867   0.00000  Uiso   1.00
C1031  C     0.63351   0.68495   0.12643   0.00000  Uiso   1.00
C1032  C     0.64218   0.93023   0.87867   0.00000  Uiso   1.00
C1033  C     0.81505   0.63351   0.12643   0.00000  Uiso   1.00
C1034  C     0.82718   0.61495   0.61818   0.00000  Uiso   1.00
C1035  C     0.67544   0.89351   0.38386   0.00000  Uiso   1.00
C1036  C     0.61496   0.67282   0.61818   0.00000  Uiso   1.00
H1037  H     0.58819   0.89244   0.10751   0.00000  Uiso   1.00
H1038  H     0.64240   0.55117   0.85230   0.00000  Uiso   1.00
H1039  H     0.61593   0.58039   0.90165   0.00000  Uiso   1.00
H1040  H     0.66080   0.56617   0.92209   0.00000  Uiso   1.00
H1041  H     0.91181   0.60756   0.10751   0.00000  Uiso   1.00
H1042  H     0.94698   0.63266   0.14796   0.00000  Uiso   1.00
H1043  H     0.93211   0.64751   0.07569   0.00000  Uiso   1.00
H1044  H     0.55117   0.85760   0.85230   0.00000  Uiso   1.00
H1045  H     0.58039   0.88407   0.90166   0.00000  Uiso   1.00
H1046  H     0.56617   0.83920   0.92209   0.00000  Uiso   1.00
H1047  H     0.60756   0.58819   0.10751   0.00000  Uiso   1.00
H1048  H     0.55302   0.86734   0.14797   0.00000  Uiso   1.00
H1049  H     0.63266   0.55302   0.14797   0.00000  Uiso   1.00
H1050  H     0.64751   0.56789   0.07570   0.00000  Uiso   1.00
H1051  H     0.85760   0.94883   0.85230   0.00000  Uiso   1.00
H1052  H     0.88407   0.91961   0.90166   0.00000  Uiso   1.00
H1053  H     0.83920   0.93383   0.92209   0.00000  Uiso   1.00
H1054  H     0.56531   0.61308   0.86649   0.00000  Uiso   1.00
H1055  H     0.54708   0.65888   0.86077   0.00000  Uiso   1.00
H1056  H     0.56859   0.64405   0.92808   0.00000  Uiso   1.00
H1057  H     0.84106   0.82899   0.11224   0.00000  Uiso   1.00
H1058  H     0.86040   0.79506   0.16255   0.00000  Uiso   1.00
H1059  H     0.56789   0.85249   0.07570   0.00000  Uiso   1.00
H1060  H     0.87681   0.79946   0.08753   0.00000  Uiso   1.00
H1061  H     0.88692   0.56532   0.86650   0.00000  Uiso   1.00
H1062  H     0.84112   0.54708   0.86076   0.00000  Uiso   1.00
H1063  H     0.85595   0.56860   0.92808   0.00000  Uiso   1.00
H1064  H     0.67099   0.84108   0.11221   0.00000  Uiso   1.00
H1065  H     0.70493   0.86041   0.16252   0.00000  Uiso   1.00
H1066  H     0.70052   0.87683   0.08751   0.00000  Uiso   1.00
H1067  H     0.93469   0.88692   0.86650   0.00000  Uiso   1.00
H1068  H     0.95292   0.84112   0.86076   0.00000  Uiso   1.00
H1069  H     0.93141   0.85595   0.92808   0.00000  Uiso   1.00
H1070  H     0.94883   0.64239   0.85230   0.00000  Uiso   1.00
H1071  H     0.65892   0.67099   0.11221   0.00000  Uiso   1.00
H1072  H     0.63959   0.70493   0.16252   0.00000  Uiso   1.00
H1073  H     0.62317   0.70052   0.08751   0.00000  Uiso   1.00
H1074  H     0.61308   0.93468   0.86650   0.00000  Uiso   1.00
H1075  H     0.65888   0.95292   0.86076   0.00000  Uiso   1.00
H1076  H     0.64405   0.93140   0.92808   0.00000  Uiso   1.00
H1077  H     0.82901   0.65892   0.11222   0.00000  Uiso   1.00
H1078  H     0.79507   0.63959   0.16252   0.00000  Uiso   1.00
H1079  H     0.79948   0.62317   0.08751   0.00000  Uiso   1.00
H1080  H     0.83819   0.64244   0.60751   0.00000  Uiso   1.00
H1081  H     0.91960   0.61593   0.90167   0.00000  Uiso   1.00
H1082  H     0.80302   0.61734   0.64796   0.00000  Uiso   1.00
H1083  H     0.81789   0.60249   0.57569   0.00000  Uiso   1.00
H1084  H     0.69883   0.89240   0.35230   0.00000  Uiso   1.00
H1085  H     0.66961   0.86593   0.40165   0.00000  Uiso   1.00
H1086  H     0.68383   0.91080   0.42209   0.00000  Uiso   1.00
H1087  H     0.64244   0.66181   0.60751   0.00000  Uiso   1.00
H1088  H     0.61735   0.69698   0.64797   0.00000  Uiso   1.00
H1089  H     0.60250   0.68211   0.57570   0.00000  Uiso   1.00
H1090  H     0.89232   0.80121   0.35229   0.00000  Uiso   1.00
H1091  H     0.86601   0.83046   0.40184   0.00000  Uiso   1.00
H1092  H     0.93383   0.66080   0.92209   0.00000  Uiso   1.00
H1093  H     0.91089   0.81615   0.42200   0.00000  Uiso   1.00
H1094  H     0.66181   0.85756   0.60751   0.00000  Uiso   1.00
H1095  H     0.69698   0.88266   0.64797   0.00000  Uiso   1.00
H1096  H     0.68211   0.89751   0.57569   0.00000  Uiso   1.00
H1097  H     0.80117   0.60761   0.35230   0.00000  Uiso   1.00
H1098  H     0.83040   0.63406   0.40167   0.00000  Uiso   1.00
H1099  H     0.81617   0.58919   0.42209   0.00000  Uiso   1.00
H1100  H     0.85756   0.83819   0.60751   0.00000  Uiso   1.00
H1101  H     0.88266   0.80302   0.64797   0.00000  Uiso   1.00
H1102  H     0.89751   0.81789   0.57570   0.00000  Uiso   1.00
H1103  H     0.89242   0.91180   0.10749   0.00000  Uiso   1.00
H1104  H     0.60760   0.69883   0.35230   0.00000  Uiso   1.00
H1105  H     0.63407   0.66961   0.40165   0.00000  Uiso   1.00
H1106  H     0.58920   0.68383   0.42209   0.00000  Uiso   1.00
H1107  H     0.81537   0.86306   0.36659   0.00000  Uiso   1.00
H1108  H     0.79709   0.90884   0.36072   0.00000  Uiso   1.00
H1109  H     0.81860   0.89410   0.42809   0.00000  Uiso   1.00
H1110  H     0.59108   0.57901   0.61221   0.00000  Uiso   1.00
H1111  H     0.61041   0.54507   0.66252   0.00000  Uiso   1.00
H1112  H     0.62684   0.54948   0.58750   0.00000  Uiso   1.00
H1113  H     0.63692   0.81531   0.36649   0.00000  Uiso   1.00
H1114  H     0.86733   0.94697   0.14795   0.00000  Uiso   1.00
H1115  H     0.59112   0.79708   0.36077   0.00000  Uiso   1.00
H1116  H     0.60595   0.81859   0.42808   0.00000  Uiso   1.00
H1117  H     0.92099   0.59108   0.61221   0.00000  Uiso   1.00
H1118  H     0.95493   0.61041   0.66252   0.00000  Uiso   1.00
H1119  H     0.95052   0.62683   0.58751   0.00000  Uiso   1.00
H1120  H     0.68469   0.63692   0.36649   0.00000  Uiso   1.00
H1121  H     0.70292   0.59112   0.36076   0.00000  Uiso   1.00
H1122  H     0.68141   0.60595   0.42808   0.00000  Uiso   1.00
H1123  H     0.90892   0.92099   0.61221   0.00000  Uiso   1.00
H1124  H     0.88959   0.95493   0.66252   0.00000  Uiso   1.00
H1125  H     0.85248   0.93209   0.07568   0.00000  Uiso   1.00
H1126  H     0.87317   0.95052   0.58751   0.00000  Uiso   1.00
H1127  H     0.86308   0.68468   0.36650   0.00000  Uiso   1.00
H1128  H     0.90888   0.70292   0.36076   0.00000  Uiso   1.00
H1129  H     0.89405   0.68140   0.42808   0.00000  Uiso   1.00
H1130  H     0.57901   0.90892   0.61221   0.00000  Uiso   1.00
H1131  H     0.54507   0.88959   0.66252   0.00000  Uiso   1.00
H1132  H     0.54948   0.87317   0.58751   0.00000  Uiso   1.00
O1133  O     0.50000   0.75000   0.25000   0.00000  Uiso   1.00
O1134  O     0.50000   0.78035   0.61781   0.00000  Uiso   1.00
O1135  O     0.71964   0.50000   0.38219   0.00000  Uiso   1.00
O1136  O     0.78035   0.50000   0.61781   0.00000  Uiso   1.00
O1137  O     0.75000   0.53035   0.88219   0.00000  Uiso   1.00
O1138  O     0.75000   0.96964   0.11781   0.00000  Uiso   1.00
O1139  O     0.53035   0.75000   0.88219   0.00000  Uiso   1.00
O1140  O     0.96964   0.75000   0.11781   0.00000  Uiso   1.00
O1141  O     0.75000   0.96964   0.88219   0.00000  Uiso   1.00
O1142  O     0.75000   0.53035   0.11781   0.00000  Uiso   1.00
O1143  O     0.96964   0.75000   0.88219   0.00000  Uiso   1.00
O1144  O     0.50000   0.75000   0.75000   0.00000  Uiso   1.00
O1145  O     0.53035   0.75000   0.11781   0.00000  Uiso   1.00
O1146  O     0.54267   0.67692   0.28474   0.00000  Uiso   1.00
O1147  O     0.95732   0.82307   0.71526   0.00000  Uiso   1.00
O1148  O     0.67692   0.95732   0.28474   0.00000  Uiso   1.00
O1149  O     0.82307   0.54267   0.71526   0.00000  Uiso   1.00
O1150  O     0.95732   0.82307   0.28474   0.00000  Uiso   1.00
O1151  O     0.54267   0.67692   0.71526   0.00000  Uiso   1.00
O1152  O     0.82307   0.54267   0.28474   0.00000  Uiso   1.00
O1153  O     0.67692   0.95732   0.71526   0.00000  Uiso   1.00
O1154  O     0.54267   0.82307   0.71526   0.00000  Uiso   1.00
O1155  O     0.75000   0.50000   0.25000   0.00000  Uiso   1.00
O1156  O     0.95732   0.67692   0.28474   0.00000  Uiso   1.00
O1157  O     0.67692   0.54267   0.71526   0.00000  Uiso   1.00
O1158  O     0.82307   0.95732   0.28474   0.00000  Uiso   1.00
O1159  O     0.95732   0.67692   0.71526   0.00000  Uiso   1.00
O1160  O     0.54267   0.82307   0.28474   0.00000  Uiso   1.00
O1161  O     0.82307   0.95732   0.71526   0.00000  Uiso   1.00
O1162  O     0.67692   0.54267   0.28474   0.00000  Uiso   1.00
O1163  O     0.79267   0.92692   0.78474   0.00000  Uiso   1.00
O1164  O     0.70732   0.57307   0.21526   0.00000  Uiso   1.00
O1165  O     0.92692   0.70732   0.78474   0.00000  Uiso   1.00
O1166  O     0.75000   0.50000   0.75000   0.00000  Uiso   1.00
O1167  O     0.57307   0.79267   0.21526   0.00000  Uiso   1.00
O1168  O     0.70732   0.57307   0.78474   0.00000  Uiso   1.00
O1169  O     0.79267   0.92692   0.21526   0.00000  Uiso   1.00
O1170  O     0.57307   0.79267   0.78474   0.00000  Uiso   1.00
O1171  O     0.92692   0.70732   0.21526   0.00000  Uiso   1.00
O1172  O     0.79267   0.57307   0.21526   0.00000  Uiso   1.00
O1173  O     0.70732   0.92692   0.78474   0.00000  Uiso   1.00
O1174  O     0.92692   0.79267   0.21526   0.00000  Uiso   1.00
O1175  O     0.57307   0.70732   0.78474   0.00000  Uiso   1.00
O1176  O     0.70732   0.92692   0.21526   0.00000  Uiso   1.00
O1177  O     0.50000   0.78035   0.38219   0.00000  Uiso   1.00
O1178  O     0.79267   0.57307   0.78474   0.00000  Uiso   1.00
O1179  O     0.57307   0.70732   0.21526   0.00000  Uiso   1.00
O1180  O     0.92692   0.79267   0.78474   0.00000  Uiso   1.00
O1181  O     0.60414   0.84237   0.14347   0.00000  Uiso   1.00
O1182  O     0.89403   0.65896   0.85779   0.00000  Uiso   1.00
O1183  O     0.84236   0.89584   0.14347   0.00000  Uiso   1.00
O1184  O     0.65896   0.60597   0.85779   0.00000  Uiso   1.00
O1185  O     0.89585   0.65763   0.14347   0.00000  Uiso   1.00
O1186  O     0.60597   0.84104   0.85779   0.00000  Uiso   1.00
O1187  O     0.65763   0.60414   0.14347   0.00000  Uiso   1.00
O1188  O     0.50000   0.71964   0.61781   0.00000  Uiso   1.00
O1189  O     0.84104   0.89403   0.85779   0.00000  Uiso   1.00
O1190  O     0.60372   0.65612   0.85942   0.00000  Uiso   1.00
O1191  O     0.89342   0.84032   0.14389   0.00000  Uiso   1.00
O1192  O     0.84388   0.60372   0.85942   0.00000  Uiso   1.00
O1193  O     0.65966   0.89343   0.14389   0.00000  Uiso   1.00
O1194  O     0.89628   0.84388   0.85942   0.00000  Uiso   1.00
O1195  O     0.60657   0.65966   0.14389   0.00000  Uiso   1.00
O1196  O     0.65612   0.89628   0.85942   0.00000  Uiso   1.00
O1197  O     0.84033   0.60657   0.14389   0.00000  Uiso   1.00
O1198  O     0.85414   0.59237   0.64347   0.00000  Uiso   1.00
O1199  O     0.78035   0.50000   0.38219   0.00000  Uiso   1.00
O1200  O     0.64403   0.90896   0.35779   0.00000  Uiso   1.00
O1201  O     0.59237   0.64586   0.64347   0.00000  Uiso   1.00
O1202  O     0.90898   0.85599   0.35778   0.00000  Uiso   1.00
O1203  O     0.64586   0.90763   0.64347   0.00000  Uiso   1.00
O1204  O     0.85597   0.59104   0.35779   0.00000  Uiso   1.00
O1205  O     0.90763   0.85414   0.64347   0.00000  Uiso   1.00
O1206  O     0.59104   0.64403   0.35779   0.00000  Uiso   1.00
O1207  O     0.85373   0.90613   0.35941   0.00000  Uiso   1.00
O1208  O     0.64343   0.59034   0.64389   0.00000  Uiso   1.00
O1209  O     0.59388   0.85372   0.35942   0.00000  Uiso   1.00
O1210  O     0.71964   0.50000   0.61781   0.00000  Uiso   1.00
O1211  O     0.90967   0.64343   0.64389   0.00000  Uiso   1.00
O1212  O     0.64628   0.59388   0.35942   0.00000  Uiso   1.00
O1213  O     0.85657   0.90966   0.64389   0.00000  Uiso   1.00
O1214  O     0.90612   0.64628   0.35942   0.00000  Uiso   1.00
O1215  O     0.59033   0.85657   0.64389   0.00000  Uiso   1.00
O1216  O     0.50000   0.71964   0.38219   0.00000  Uiso   1.00
Zn1217 Zn    0.54333   0.75000   0.20067   0.00000  Uiso   1.00
Zn1218 Zn    0.70667   0.50000   0.29933   0.00000  Uiso   1.00
Zn1219 Zn    0.50000   0.70667   0.70067   0.00000  Uiso   1.00
Zn1220 Zn    0.50000   0.79333   0.29933   0.00000  Uiso   1.00
Zn1221 Zn    0.70667   0.50000   0.70067   0.00000  Uiso   1.00
Zn1222 Zn    0.79333   0.50000   0.29933   0.00000  Uiso   1.00
Zn1223 Zn    0.50000   0.79333   0.70067   0.00000  Uiso   1.00
Zn1224 Zn    0.50000   0.70667   0.29933   0.00000  Uiso   1.00
Zn1225 Zn    0.95667   0.75000   0.79933   0.00000  Uiso   1.00
Zn1226 Zn    0.75000   0.95667   0.20067   0.00000  Uiso   1.00
Zn1227 Zn    0.75000   0.54333   0.79933   0.00000  Uiso   1.00
Zn1228 Zn    0.95667   0.75000   0.20067   0.00000  Uiso   1.00
Zn1229 Zn    0.54333   0.75000   0.79933   0.00000  Uiso   1.00
Zn1230 Zn    0.75000   0.54333   0.20067   0.00000  Uiso   1.00
Zn1231 Zn    0.75000   0.95667   0.79933   0.00000  Uiso   1.00
Zn1232 Zn    0.79333   0.50000   0.70067   0.00000  Uiso   1.00
loop_
_geom_bond_atom_site_label_1
_geom_bond_atom_site_label_2
_geom_bond_distance
_geom_bond_site_symmetry_2
_ccdc_geom_bond_type
C1     C21     1.417   .     S
C1     C25     1.195   1_554 S
C2     O264    1.277   .     A
C2     O210    1.277   .     A
C2     C80     1.417   .     S
C3     H169    1.109   .     S
C3     H167    1.109   .     S
C3     O278    1.411   .     S
C3     H166    1.113   .     S
C4     H171    1.113   .     S
C4     H170    1.113   .     S
C4     H172    1.109   .     S
C4     O279    1.410   .     S
C5     H174    1.109   .     S
C5     H173    1.113   .     S
C5     H175    1.109   .     S
C5     O280    1.411   .     S
C6     H177    1.113   .     S
C6     H178    1.109   .     S
C6     O281    1.410   .     S
C6     H176    1.113   .     S
C7     H181    1.109   .     S
C7     H180    1.113   .     S
C7     O282    1.411   .     S
C7     H182    1.109   .     S
C8     O283    1.415   .     S
C8     H183    1.115   .     S
C8     H184    1.109   .     S
C8     H185    1.109   .     S
C9     H188    1.109   .     S
C9     H186    1.111   .     S
C9     H187    1.114   .     S
C9     O284    1.412   .     S
C10    O285    1.415   .     S
C10    H191    1.109   .     S
C10    H189    1.115   .     S
C10    H192    1.109   .     S
C11    H195    1.109   .     S
C11    H193    1.111   .     S
C11    O287    1.412   .     S
C11    H194    1.114   .     S
C12    H196    1.115   .     S
C12    H198    1.109   .     S
C12    O288    1.415   .     S
C12    H197    1.109   .     S
C13    O275    1.277   .     A
C13    C69     1.416   .     S
C13    O211    1.277   .     A
C14    H199    1.111   .     S
C14    H202    1.109   .     S
C14    H200    1.114   .     S
C14    O289    1.412   .     S
C15    H203    1.115   .     S
C15    O290    1.415   .     S
C15    H205    1.109   .     S
C15    H204    1.109   .     S
C16    H208    1.109   .     S
C16    O291    1.412   .     S
C16    H207    1.114   .     S
C16    H206    1.111   .     S
C17    O212    1.277   .     A
C17    C58     1.417   .     S
C17    O286    1.277   .     A
C18    C47     1.416   .     S
C18    O833    1.277   1_545 A
C18    O213    1.277   .     S
C19    O218    1.277   .     A
C19    C36     1.417   .     S
C19    O830    1.277   1_545 S
C20    O527    1.277   1_455 A
C20    C25     1.416   .     S
C20    O215    1.277   .     S
C21    O221    1.277   .     A
C21    O524    1.277   1_455 S
C22    C82     1.459   .     S
C22    O255    1.274   .     A
C22    O222    1.278   .     A
C23    O223    1.274   .     A
C23    O256    1.276   .     A
C23    C83     1.456   .     S
C24    O252    1.274   .     A
C24    C75     1.460   .     S
C24    O224    1.278   .     A
C25    C1      1.195   1_556 S
C26    O225    1.274   .     A
C26    C76     1.456   .     S
C26    O254    1.276   .     A
C27    O250    1.274   .     A
C27    C77     1.460   .     S
C27    O226    1.278   .     A
C28    O251    1.276   .     A
C28    O227    1.274   .     A
C28    C78     1.456   .     S
C29    O248    1.274   .     A
C29    O228    1.278   .     A
C29    C79     1.460   .     S
C30    C81     1.456   .     S
C30    O249    1.276   .     A
C30    O229    1.274   .     A
C31    C90     1.459   .     S
C31    O246    1.278   .     A
C31    O230    1.274   .     A
C32    C92     1.456   .     S
C32    O232    1.276   .     A
C32    O247    1.274   .     A
C33    O233    1.274   .     A
C33    C84     1.459   .     S
C33    O244    1.278   .     A
C34    C85     1.456   .     S
C34    O234    1.276   .     A
C34    O245    1.274   .     A
C35    C86     1.459   .     S
C35    O241    1.278   .     A
C35    O235    1.274   .     A
C36    C47     1.195   1_554 S
C37    O243    1.274   .     A
C37    O236    1.276   .     A
C37    C87     1.456   .     S
C38    C88     1.459   .     S
C38    O239    1.278   .     A
C38    O237    1.274   .     A
C39    C89     1.456   .     S
C39    O240    1.274   .     A
C39    O238    1.276   .     A
C40    C52     1.398   .     A
C40    O257    1.384   .     S
C40    C87     1.407   .     A
C41    C51     1.398   .     A
C41    C86     1.411   .     A
C41    O258    1.385   .     S
C42    C50     1.398   .     A
C42    C85     1.407   .     A
C42    O259    1.384   .     S
C43    O260    1.385   .     S
C43    C84     1.411   .     A
C43    C49     1.398   .     A
C44    C92     1.407   .     A
C44    O261    1.384   .     S
C44    C56     1.398   .     A
C45    C55     1.398   .     A
C45    C90     1.411   .     A
C45    O262    1.385   .     S
C46    C89     1.407   .     A
C46    O263    1.384   .     S
C46    C54     1.398   .     A
C47    C36     1.195   1_556 S
C48    O265    1.385   .     S
C48    C53     1.398   .     A
C48    C88     1.411   .     A
C49    C78     1.412   .     A
C49    O266    1.386   .     S
C50    C77     1.409   .     A
C50    O267    1.385   .     S
C51    C76     1.412   .     A
C51    O268    1.386   .     S
C52    C75     1.409   .     A
C52    O269    1.385   .     S
C53    O270    1.386   .     S
C53    C83     1.412   .     A
C54    C82     1.409   .     A
C54    O271    1.385   .     S
C55    C81     1.412   .     A
C55    O272    1.386   .     S
C56    C79     1.409   .     A
C56    O273    1.385   .     S
C57    O274    1.384   .     S
C57    C76     1.407   .     A
C57    C70     1.398   .     A
C58    C69     1.195   .     T
C59    O276    1.385   .     S
C59    C68     1.398   .     A
C59    C75     1.411   .     A
C60    O277    1.384   .     S
C60    C78     1.407   .     A
C60    C67     1.398   .     A
C61    O278    1.385   .     S
C61    C77     1.411   .     A
C61    C66     1.398   .     A
C62    C81     1.407   .     A
C62    O279    1.384   .     S
C62    C74     1.398   .     A
C63    O280    1.385   .     S
C63    C73     1.398   .     A
C63    C79     1.411   .     A
C64    C83     1.407   .     A
C64    C72     1.398   .     A
C64    O281    1.384   .     S
C65    C82     1.411   .     A
C65    O282    1.385   .     S
C65    C71     1.398   .     A
C66    C85     1.412   .     A
C66    O283    1.386   .     S
C67    O284    1.385   .     S
C67    C84     1.409   .     A
C68    O285    1.386   .     S
C68    C87     1.412   .     A
C70    O287    1.385   .     S
C70    C86     1.409   .     A
C71    O288    1.386   .     S
C71    C89     1.412   .     A
C72    C88     1.409   .     A
C72    O289    1.385   .     S
C73    O290    1.386   .     S
C73    C92     1.412   .     A
C74    C90     1.409   .     A
C74    O291    1.385   .     S
C80    C91     1.195   .     T
C91    C102    1.416   .     S
C93    O257    1.410   .     S
C93    H135    1.109   .     S
C93    H124    1.113   .     S
C93    H113    1.113   .     S
C94    H157    1.109   .     S
C94    H168    1.109   .     S
C94    O258    1.411   .     S
C94    H146    1.113   .     S
C95    H201    1.109   .     S
C95    H190    1.113   .     S
C95    O259    1.410   .     S
C95    H179    1.113   .     S
C96    H114    1.113   .     S
C96    H116    1.109   .     S
C96    O260    1.411   .     S
C96    H115    1.109   .     S
C97    O261    1.410   .     S
C97    H117    1.113   .     S
C97    H119    1.109   .     S
C97    H118    1.113   .     S
C98    H121    1.109   .     S
C98    H120    1.113   .     S
C98    O262    1.411   .     S
C98    H122    1.109   .     S
C99    O263    1.410   .     S
C99    H126    1.109   .     S
C99    H123    1.113   .     S
C99    H125    1.113   .     S
C100   H127    1.113   .     S
C100   H128    1.109   .     S
C100   H129    1.109   .     S
C100   O265    1.411   .     S
C101   H130    1.115   .     S
C101   H132    1.109   .     S
C101   O266    1.415   .     S
C101   H131    1.109   .     S
C102   O253    1.277   .     A
C102   O292    1.277   .     S
C103   O267    1.412   .     S
C103   H136    1.109   .     S
C103   H134    1.114   .     S
C103   H133    1.111   .     S
C104   H137    1.115   .     S
C104   H139    1.109   .     S
C104   O268    1.415   .     S
C104   H138    1.109   .     S
C105   H140    1.111   .     S
C105   H142    1.109   .     S
C105   O269    1.412   .     S
C105   H141    1.114   .     S
C106   H143    1.115   .     S
C106   H145    1.109   .     S
C106   O270    1.415   .     S
C106   H144    1.109   .     S
C107   H148    1.114   .     S
C107   H149    1.109   .     S
C107   O271    1.412   .     S
C107   H147    1.111   .     S
C108   H151    1.109   .     S
C108   H150    1.115   .     S
C108   H152    1.109   .     S
C108   O272    1.415   .     S
C109   H154    1.114   .     S
C109   H153    1.111   .     S
C109   H155    1.109   .     S
C109   O273    1.412   .     S
C110   O274    1.410   .     S
C110   H158    1.113   .     S
C110   H156    1.113   .     S
C110   H159    1.109   .     S
C111   H161    1.109   .     S
C111   H160    1.113   .     S
C111   O276    1.411   .     S
C111   H162    1.109   .     S
C112   H164    1.113   .     S
C112   H165    1.109   .     S
C112   H163    1.113   .     S
C112   O277    1.410   .     S
O209   Zn612   1.937   1_455 S
O209   Zn296   1.937   .     S
O209   Zn300   1.937   .     S
O209   Zn293   1.937   .     S
O210   Zn299   1.916   .     S
O211   Zn294   1.916   .     S
O212   Zn308   1.916   .     S
O213   Zn303   1.916   .     S
O214   Zn302   1.916   .     S
O214   C635    1.277   .     S
O215   Zn305   1.916   .     S
O216   Zn304   1.916   .     S
O216   C329    1.277   .     S
O217   Zn307   1.916   .     S
O217   C634    1.277   .     A
O218   Zn306   1.916   .     S
O219   C328    1.277   .     A
O219   Zn301   1.916   .     S
O220   Zn305   1.937   .     S
O220   Zn295   1.937   .     S
O220   Zn299   1.937   .     S
O220   Zn609   1.937   1_455 S
O221   Zn293   1.916   .     S
O222   Zn300   1.938   .     S
O223   Zn607   1.938   .     S
O224   Zn910   1.938   .     S
O225   Zn308   1.938   .     S
O226   Zn604   1.938   .     S
O227   Zn295   1.938   .     S
O228   Zn298   1.938   .     S
O229   Zn913   1.938   .     S
O230   Zn299   1.938   .     S
O231   Zn306   1.937   .     S
O231   Zn294   1.937   .     S
O231   Zn298   1.937   .     S
O231   Zn918   1.937   1_545 S
O232   Zn608   1.938   .     S
O233   Zn297   1.938   .     S
O234   Zn914   1.938   .     S
O235   Zn603   1.938   .     S
O236   Zn296   1.938   .     S
O237   Zn924   1.938   .     S
O238   Zn294   1.938   .     S
O239   Zn307   1.938   .     S
O240   Zn306   1.938   .     S
O241   Zn301   1.938   .     S
O242   Zn923   1.937   1_545 S
O242   Zn297   1.937   .     S
O242   Zn303   1.937   .     S
O242   Zn308   1.937   .     S
O243   Zn293   1.938   .     S
O244   Zn303   1.938   .     S
O245   Zn302   1.938   .     S
O246   Zn305   1.938   .     S
O247   Zn304   1.938   .     S
O248   Zn306   1.938   .     S
O249   Zn307   1.938   .     S
O250   Zn304   1.938   .     S
O251   Zn305   1.938   .     S
O252   Zn302   1.938   .     S
O253   Zn296   1.916   .     S
O254   Zn303   1.938   .     S
O255   Zn293   1.938   .     S
O256   Zn301   1.938   .     S
O264   Zn295   1.916   .     S
O275   Zn298   1.916   .     S
O286   Zn297   1.916   .     S
O292   Zn300   1.916   .     S
Zn294  O840    1.938   1_545 S
Zn295  O543    1.938   1_455 S
Zn296  O534    1.938   1_455 S
Zn297  O845    1.938   1_545 S
Zn298  O850    1.938   1_545 S
Zn299  O531    1.938   1_455 S
Zn300  O540    1.938   1_455 S
Zn301  O528    1.937   .     S
Zn302  O847    1.937   .     S
Zn304  O517    1.937   .     S
Zn307  O858    1.937   .     S
Zn308  O853    1.938   1_545 S
C309   C329    1.417   .     S
C309   C333    1.195   1_554 S
C310   O572    1.277   .     A
C310   O518    1.277   .     A
C310   C388    1.417   .     S
C311   H477    1.109   .     S
C311   H475    1.109   .     S
C311   O586    1.411   .     S
C311   H474    1.113   .     S
C312   H479    1.113   .     S
C312   H478    1.113   .     S
C312   H480    1.109   .     S
C312   O587    1.410   .     S
C313   H482    1.109   .     S
C313   H481    1.113   .     S
C313   H483    1.109   .     S
C313   O588    1.411   .     S
C314   H485    1.113   .     S
C314   H486    1.109   .     S
C314   O589    1.410   .     S
C314   H484    1.113   .     S
C315   H489    1.109   .     S
C315   H488    1.113   .     S
C315   O590    1.411   .     S
C315   H490    1.109   .     S
C316   O591    1.415   .     S
C316   H491    1.115   .     S
C316   H492    1.109   .     S
C316   H493    1.109   .     S
C317   H496    1.109   .     S
C317   H494    1.111   .     S
C317   H495    1.114   .     S
C317   O592    1.412   .     S
C318   O593    1.415   .     S
C318   H499    1.109   .     S
C318   H497    1.115   .     S
C318   H500    1.109   .     S
C319   H503    1.109   .     S
C319   H501    1.111   .     S
C319   O595    1.412   .     S
C319   H502    1.114   .     S
C320   H504    1.115   .     S
C320   H506    1.109   .     S
C320   O596    1.415   .     S
C320   H505    1.109   .     S
C321   O583    1.277   .     A
C321   C377    1.416   .     S
C321   O519    1.277   .     A
C322   H507    1.111   .     S
C322   H510    1.109   .     S
C322   H508    1.114   .     S
C322   O597    1.412   .     S
C323   H511    1.115   .     S
C323   O598    1.415   .     S
C323   H513    1.109   .     S
C323   H512    1.109   .     S
C324   H516    1.109   .     S
C324   O599    1.412   .     S
C324   H515    1.114   .     S
C324   H514    1.111   .     S
C325   O520    1.277   .     A
C325   C366    1.417   .     S
C325   O594    1.277   .     A
C326   C355    1.416   .     S
C326   O1141   1.277   1_545 A
C326   O521    1.277   .     S
C327   O526    1.277   .     A
C327   C344    1.417   .     S
C327   O1138   1.277   1_545 S
C328   C333    1.416   .     S
C328   O523    1.277   .     S
C329   O529    1.277   .     A
C330   C390    1.459   .     S
C330   O563    1.274   .     A
C330   O530    1.278   .     A
C331   O531    1.274   .     A
C331   O564    1.276   .     A
C331   C391    1.456   .     S
C332   O560    1.274   .     A
C332   C383    1.460   .     S
C332   O532    1.278   .     A
C333   C309    1.195   1_556 S
C334   O533    1.274   .     A
C334   C384    1.456   .     S
C334   O562    1.276   .     A
C335   O558    1.274   .     A
C335   C385    1.460   .     S
C335   O534    1.278   .     A
C336   O559    1.276   .     A
C336   O535    1.274   .     A
C336   C386    1.456   .     S
C337   O556    1.274   .     A
C337   O536    1.278   .     A
C337   C387    1.460   .     S
C338   C389    1.456   .     S
C338   O557    1.276   .     A
C338   O537    1.274   .     A
C339   C398    1.459   .     S
C339   O554    1.278   .     A
C339   O538    1.274   .     A
C340   C400    1.456   .     S
C340   O540    1.276   .     A
C340   O555    1.274   .     A
C341   O541    1.274   .     A
C341   C392    1.459   .     S
C341   O552    1.278   .     A
C342   C393    1.456   .     S
C342   O542    1.276   .     A
C342   O553    1.274   .     A
C343   C394    1.459   .     S
C343   O549    1.278   .     A
C343   O543    1.274   .     A
C344   C355    1.195   1_554 S
C345   O551    1.274   .     A
C345   O544    1.276   .     A
C345   C395    1.456   .     S
C346   C396    1.459   .     S
C346   O547    1.278   .     A
C346   O545    1.274   .     A
C347   C397    1.456   .     S
C347   O548    1.274   .     A
C347   O546    1.276   .     A
C348   C360    1.398   .     A
C348   O565    1.384   .     S
C348   C395    1.407   .     A
C349   C359    1.398   .     A
C349   C394    1.411   .     A
C349   O566    1.385   .     S
C350   C358    1.398   .     A
C350   C393    1.407   .     A
C350   O567    1.384   .     S
C351   O568    1.385   .     S
C351   C392    1.411   .     A
C351   C357    1.398   .     A
C352   C400    1.407   .     A
C352   O569    1.384   .     S
C352   C364    1.398   .     A
C353   C363    1.398   .     A
C353   C398    1.411   .     A
C353   O570    1.385   .     S
C354   C397    1.407   .     A
C354   O571    1.384   .     S
C354   C362    1.398   .     A
C355   C344    1.195   1_556 S
C356   O573    1.385   .     S
C356   C361    1.398   .     A
C356   C396    1.411   .     A
C357   C386    1.412   .     A
C357   O574    1.386   .     S
C358   C385    1.409   .     A
C358   O575    1.385   .     S
C359   C384    1.412   .     A
C359   O576    1.386   .     S
C360   C383    1.409   .     A
C360   O577    1.385   .     S
C361   O578    1.386   .     S
C361   C391    1.412   .     A
C362   C390    1.409   .     A
C362   O579    1.385   .     S
C363   C389    1.412   .     A
C363   O580    1.386   .     S
C364   C387    1.409   .     A
C364   O581    1.385   .     S
C365   O582    1.384   .     S
C365   C384    1.407   .     A
C365   C378    1.398   .     A
C366   C377    1.195   .     T
C367   O584    1.385   .     S
C367   C376    1.398   .     A
C367   C383    1.411   .     A
C368   O585    1.384   .     S
C368   C386    1.407   .     A
C368   C375    1.398   .     A
C369   O586    1.385   .     S
C369   C385    1.411   .     A
C369   C374    1.398   .     A
C370   C389    1.407   .     A
C370   O587    1.384   .     S
C370   C382    1.398   .     A
C371   O588    1.385   .     S
C371   C381    1.398   .     A
C371   C387    1.411   .     A
C372   C391    1.407   .     A
C372   C380    1.398   .     A
C372   O589    1.384   .     S
C373   C390    1.411   .     A
C373   O590    1.385   .     S
C373   C379    1.398   .     A
C374   C393    1.412   .     A
C374   O591    1.386   .     S
C375   O592    1.385   .     S
C375   C392    1.409   .     A
C376   O593    1.386   .     S
C376   C395    1.412   .     A
C378   O595    1.385   .     S
C378   C394    1.409   .     A
C379   O596    1.386   .     S
C379   C397    1.412   .     A
C380   C396    1.409   .     A
C380   O597    1.385   .     S
C381   O598    1.386   .     S
C381   C400    1.412   .     A
C382   C398    1.409   .     A
C382   O599    1.385   .     S
C388   C399    1.195   .     T
C399   C410    1.416   .     S
C401   O565    1.410   .     S
C401   H443    1.109   .     S
C401   H432    1.113   .     S
C401   H421    1.113   .     S
C402   H465    1.109   .     S
C402   H476    1.109   .     S
C402   O566    1.411   .     S
C402   H454    1.113   .     S
C403   H509    1.109   .     S
C403   H498    1.113   .     S
C403   O567    1.410   .     S
C403   H487    1.113   .     S
C404   H422    1.113   .     S
C404   H424    1.109   .     S
C404   O568    1.411   .     S
C404   H423    1.109   .     S
C405   O569    1.410   .     S
C405   H425    1.113   .     S
C405   H427    1.109   .     S
C405   H426    1.113   .     S
C406   H429    1.109   .     S
C406   H428    1.113   .     S
C406   O570    1.411   .     S
C406   H430    1.109   .     S
C407   O571    1.410   .     S
C407   H434    1.109   .     S
C407   H431    1.113   .     S
C407   H433    1.113   .     S
C408   H435    1.113   .     S
C408   H436    1.109   .     S
C408   H437    1.109   .     S
C408   O573    1.411   .     S
C409   H438    1.115   .     S
C409   H440    1.109   .     S
C409   O574    1.415   .     S
C409   H439    1.109   .     S
C410   O561    1.277   .     A
C410   O600    1.277   .     S
C411   O575    1.412   .     S
C411   H444    1.109   .     S
C411   H442    1.114   .     S
C411   H441    1.111   .     S
C412   H445    1.115   .     S
C412   H447    1.109   .     S
C412   O576    1.415   .     S
C412   H446    1.109   .     S
C413   H448    1.111   .     S
C413   H450    1.109   .     S
C413   O577    1.412   .     S
C413   H449    1.114   .     S
C414   H451    1.115   .     S
C414   H453    1.109   .     S
C414   O578    1.415   .     S
C414   H452    1.109   .     S
C415   H456    1.114   .     S
C415   H457    1.109   .     S
C415   O579    1.412   .     S
C415   H455    1.111   .     S
C416   H459    1.109   .     S
C416   H458    1.115   .     S
C416   H460    1.109   .     S
C416   O580    1.415   .     S
C417   H462    1.114   .     S
C417   H461    1.111   .     S
C417   H463    1.109   .     S
C417   O581    1.412   .     S
C418   O582    1.410   .     S
C418   H466    1.113   .     S
C418   H464    1.113   .     S
C418   H467    1.109   .     S
C419   H469    1.109   .     S
C419   H468    1.113   .     S
C419   O584    1.411   .     S
C419   H470    1.109   .     S
C420   H472    1.113   .     S
C420   H473    1.109   .     S
C420   H471    1.113   .     S
C420   O585    1.410   .     S
O517   Zn604   1.937   .     S
O517   Zn608   1.937   .     S
O517   Zn601   1.937   .     S
O518   Zn607   1.916   .     S
O519   Zn602   1.916   .     S
O520   Zn616   1.916   .     S
O521   Zn611   1.916   .     S
O522   Zn610   1.916   .     S
O522   C943    1.277   .     S
O523   Zn613   1.916   .     S
O524   Zn612   1.916   .     S
O524   C21     1.277   1_655 S
O525   Zn615   1.916   .     S
O525   C942    1.277   .     A
O526   Zn614   1.916   .     S
O527   C20     1.277   1_655 A
O527   Zn609   1.916   .     S
O528   Zn613   1.937   .     S
O528   Zn603   1.937   .     S
O528   Zn607   1.937   .     S
O529   Zn601   1.916   .     S
O530   Zn608   1.938   .     S
O531   Zn299   1.938   1_655 S
O532   Zn1218  1.938   .     S
O533   Zn616   1.938   .     S
O534   Zn296   1.938   1_655 S
O535   Zn603   1.938   .     S
O536   Zn606   1.938   .     S
O537   Zn1221  1.938   .     S
O538   Zn607   1.938   .     S
O539   Zn614   1.937   .     S
O539   Zn602   1.937   .     S
O539   Zn606   1.937   .     S
O539   Zn1226  1.937   1_545 S
O540   Zn300   1.938   1_655 S
O541   Zn605   1.938   .     S
O542   Zn1222  1.938   .     S
O543   Zn295   1.938   1_655 S
O544   Zn604   1.938   .     S
O545   Zn1232  1.938   .     S
O546   Zn602   1.938   .     S
O547   Zn615   1.938   .     S
O548   Zn614   1.938   .     S
O549   Zn609   1.938   .     S
O550   Zn1231  1.937   1_545 S
O550   Zn605   1.937   .     S
O550   Zn611   1.937   .     S
O550   Zn616   1.937   .     S
O551   Zn601   1.938   .     S
O552   Zn611   1.938   .     S
O553   Zn610   1.938   .     S
O554   Zn613   1.938   .     S
O555   Zn612   1.938   .     S
O556   Zn614   1.938   .     S
O557   Zn615   1.938   .     S
O558   Zn612   1.938   .     S
O559   Zn613   1.938   .     S
O560   Zn610   1.938   .     S
O561   Zn604   1.916   .     S
O562   Zn611   1.938   .     S
O563   Zn601   1.938   .     S
O564   Zn609   1.938   .     S
O572   Zn603   1.916   .     S
O583   Zn606   1.916   .     S
O594   Zn605   1.916   .     S
O600   Zn608   1.916   .     S
Zn602  O1148   1.938   1_545 S
Zn605  O1153   1.938   1_545 S
Zn606  O1158   1.938   1_545 S
Zn609  O220    1.937   1_655 S
Zn610  O1155   1.937   .     S
Zn612  O209    1.937   1_655 S
Zn615  O1166   1.937   .     S
Zn616  O1161   1.938   1_545 S
C617   C637    1.417   .     S
C617   C641    1.195   1_554 S
C618   O880    1.277   .     A
C618   O826    1.277   .     A
C618   C696    1.417   .     S
C619   H785    1.109   .     S
C619   H783    1.109   .     S
C619   O894    1.411   .     S
C619   H782    1.113   .     S
C620   H787    1.113   .     S
C620   H786    1.113   .     S
C620   H788    1.109   .     S
C620   O895    1.410   .     S
C621   H790    1.109   .     S
C621   H789    1.113   .     S
C621   H791    1.109   .     S
C621   O896    1.411   .     S
C622   H793    1.113   .     S
C622   H794    1.109   .     S
C622   O897    1.410   .     S
C622   H792    1.113   .     S
C623   H797    1.109   .     S
C623   H796    1.113   .     S
C623   O898    1.411   .     S
C623   H798    1.109   .     S
C624   O899    1.415   .     S
C624   H799    1.115   .     S
C624   H800    1.109   .     S
C624   H801    1.109   .     S
C625   H804    1.109   .     S
C625   H802    1.111   .     S
C625   H803    1.114   .     S
C625   O900    1.412   .     S
C626   O901    1.415   .     S
C626   H807    1.109   .     S
C626   H805    1.115   .     S
C626   H808    1.109   .     S
C627   H811    1.109   .     S
C627   H809    1.111   .     S
C627   O903    1.412   .     S
C627   H810    1.114   .     S
C628   H812    1.115   .     S
C628   H814    1.109   .     S
C628   O904    1.415   .     S
C628   H813    1.109   .     S
C629   O891    1.277   .     A
C629   C685    1.416   .     S
C629   O827    1.277   .     A
C630   H815    1.111   .     S
C630   H818    1.109   .     S
C630   H816    1.114   .     S
C630   O905    1.412   .     S
C631   H819    1.115   .     S
C631   O906    1.415   .     S
C631   H821    1.109   .     S
C631   H820    1.109   .     S
C632   H824    1.109   .     S
C632   O907    1.412   .     S
C632   H823    1.114   .     S
C632   H822    1.111   .     S
C633   O828    1.277   .     A
C633   C674    1.417   .     S
C633   O902    1.277   .     A
C634   C663    1.416   .     S
C634   O829    1.277   .     S
C635   O834    1.277   .     A
C635   C652    1.417   .     S
C636   O1143   1.277   1_455 A
C636   C641    1.416   .     S
C636   O831    1.277   .     S
C637   O837    1.277   .     A
C637   O1140   1.277   1_455 S
C638   C698    1.459   .     S
C638   O871    1.274   .     A
C638   O838    1.278   .     A
C639   O839    1.274   .     A
C639   O872    1.276   .     A
C639   C699    1.456   .     S
C640   O868    1.274   .     A
C640   C691    1.460   .     S
C640   O840    1.278   .     A
C641   C617    1.195   1_556 S
C642   O841    1.274   .     A
C642   C692    1.456   .     S
C642   O870    1.276   .     A
C643   O866    1.274   .     A
C643   C693    1.460   .     S
C643   O842    1.278   .     A
C644   O867    1.276   .     A
C644   O843    1.274   .     A
C644   C694    1.456   .     S
C645   O864    1.274   .     A
C645   O844    1.278   .     A
C645   C695    1.460   .     S
C646   C697    1.456   .     S
C646   O865    1.276   .     A
C646   O845    1.274   .     A
C647   C706    1.459   .     S
C647   O862    1.278   .     A
C647   O846    1.274   .     A
C648   C708    1.456   .     S
C648   O848    1.276   .     A
C648   O863    1.274   .     A
C649   O849    1.274   .     A
C649   C700    1.459   .     S
C649   O860    1.278   .     A
C650   C701    1.456   .     S
C650   O850    1.276   .     A
C650   O861    1.274   .     A
C651   C702    1.459   .     S
C651   O857    1.278   .     A
C651   O851    1.274   .     A
C652   C663    1.195   1_554 S
C653   O859    1.274   .     A
C653   O852    1.276   .     A
C653   C703    1.456   .     S
C654   C704    1.459   .     S
C654   O855    1.278   .     A
C654   O853    1.274   .     A
C655   C705    1.456   .     S
C655   O856    1.274   .     A
C655   O854    1.276   .     A
C656   C668    1.398   .     A
C656   O873    1.384   .     S
C656   C703    1.407   .     A
C657   C667    1.398   .     A
C657   C702    1.411   .     A
C657   O874    1.385   .     S
C658   C666    1.398   .     A
C658   C701    1.407   .     A
C658   O875    1.384   .     S
C659   O876    1.385   .     S
C659   C700    1.411   .     A
C659   C665    1.398   .     A
C660   C708    1.407   .     A
C660   O877    1.384   .     S
C660   C672    1.398   .     A
C661   C671    1.398   .     A
C661   C706    1.411   .     A
C661   O878    1.385   .     S
C662   C705    1.407   .     A
C662   O879    1.384   .     S
C662   C670    1.398   .     A
C663   C652    1.195   1_556 S
C664   O881    1.385   .     S
C664   C669    1.398   .     A
C664   C704    1.411   .     A
C665   C694    1.412   .     A
C665   O882    1.386   .     S
C666   C693    1.409   .     A
C666   O883    1.385   .     S
C667   C692    1.412   .     A
C667   O884    1.386   .     S
C668   C691    1.409   .     A
C668   O885    1.385   .     S
C669   O886    1.386   .     S
C669   C699    1.412   .     A
C670   C698    1.409   .     A
C670   O887    1.385   .     S
C671   C697    1.412   .     A
C671   O888    1.386   .     S
C672   C695    1.409   .     A
C672   O889    1.385   .     S
C673   O890    1.384   .     S
C673   C692    1.407   .     A
C673   C686    1.398   .     A
C674   C685    1.195   .     T
C675   O892    1.385   .     S
C675   C684    1.398   .     A
C675   C691    1.411   .     A
C676   O893    1.384   .     S
C676   C694    1.407   .     A
C676   C683    1.398   .     A
C677   O894    1.385   .     S
C677   C693    1.411   .     A
C677   C682    1.398   .     A
C678   C697    1.407   .     A
C678   O895    1.384   .     S
C678   C690    1.398   .     A
C679   O896    1.385   .     S
C679   C689    1.398   .     A
C679   C695    1.411   .     A
C680   C699    1.407   .     A
C680   C688    1.398   .     A
C680   O897    1.384   .     S
C681   C698    1.411   .     A
C681   O898    1.385   .     S
C681   C687    1.398   .     A
C682   C701    1.412   .     A
C682   O899    1.386   .     S
C683   O900    1.385   .     S
C683   C700    1.409   .     A
C684   O901    1.386   .     S
C684   C703    1.412   .     A
C686   O903    1.385   .     S
C686   C702    1.409   .     A
C687   O904    1.386   .     S
C687   C705    1.412   .     A
C688   C704    1.409   .     A
C688   O905    1.385   .     S
C689   O906    1.386   .     S
C689   C708    1.412   .     A
C690   C706    1.409   .     A
C690   O907    1.385   .     S
C696   C707    1.195   .     T
C707   C718    1.416   .     S
C709   O873    1.410   .     S
C709   H751    1.109   .     S
C709   H740    1.113   .     S
C709   H729    1.113   .     S
C710   H773    1.109   .     S
C710   H784    1.109   .     S
C710   O874    1.411   .     S
C710   H762    1.113   .     S
C711   H817    1.109   .     S
C711   H806    1.113   .     S
C711   O875    1.410   .     S
C711   H795    1.113   .     S
C712   H730    1.113   .     S
C712   H732    1.109   .     S
C712   O876    1.411   .     S
C712   H731    1.109   .     S
C713   O877    1.410   .     S
C713   H733    1.113   .     S
C713   H735    1.109   .     S
C713   H734    1.113   .     S
C714   H737    1.109   .     S
C714   H736    1.113   .     S
C714   O878    1.411   .     S
C714   H738    1.109   .     S
C715   O879    1.410   .     S
C715   H742    1.109   .     S
C715   H739    1.113   .     S
C715   H741    1.113   .     S
C716   H743    1.113   .     S
C716   H744    1.109   .     S
C716   H745    1.109   .     S
C716   O881    1.411   .     S
C717   H746    1.115   .     S
C717   H748    1.109   .     S
C717   O882    1.415   .     S
C717   H747    1.109   .     S
C718   O869    1.277   .     A
C718   O908    1.277   .     S
C719   O883    1.412   .     S
C719   H752    1.109   .     S
C719   H750    1.114   .     S
C719   H749    1.111   .     S
C720   H753    1.115   .     S
C720   H755    1.109   .     S
C720   O884    1.415   .     S
C720   H754    1.109   .     S
C721   H756    1.111   .     S
C721   H758    1.109   .     S
C721   O885    1.412   .     S
C721   H757    1.114   .     S
C722   H759    1.115   .     S
C722   H761    1.109   .     S
C722   O886    1.415   .     S
C722   H760    1.109   .     S
C723   H764    1.114   .     S
C723   H765    1.109   .     S
C723   O887    1.412   .     S
C723   H763    1.111   .     S
C724   H767    1.109   .     S
C724   H766    1.115   .     S
C724   H768    1.109   .     S
C724   O888    1.415   .     S
C725   H770    1.114   .     S
C725   H769    1.111   .     S
C725   H771    1.109   .     S
C725   O889    1.412   .     S
C726   O890    1.410   .     S
C726   H774    1.113   .     S
C726   H772    1.113   .     S
C726   H775    1.109   .     S
C727   H777    1.109   .     S
C727   H776    1.113   .     S
C727   O892    1.411   .     S
C727   H778    1.109   .     S
C728   H780    1.113   .     S
C728   H781    1.109   .     S
C728   H779    1.113   .     S
C728   O893    1.410   .     S
O825   Zn1228  1.937   1_455 S
O825   Zn912   1.937   .     S
O825   Zn916   1.937   .     S
O825   Zn909   1.937   .     S
O826   Zn915   1.916   .     S
O827   Zn910   1.916   .     S
O828   Zn924   1.916   .     S
O829   Zn919   1.916   .     S
O830   Zn918   1.916   .     S
O830   C19     1.277   1_565 S
O831   Zn921   1.916   .     S
O832   Zn920   1.916   .     S
O832   C945    1.277   .     S
O833   Zn923   1.916   .     S
O833   C18     1.277   1_565 A
O834   Zn922   1.916   .     S
O835   C944    1.277   .     A
O835   Zn917   1.916   .     S
O836   Zn921   1.937   .     S
O836   Zn911   1.937   .     S
O836   Zn915   1.937   .     S
O836   Zn1225  1.937   1_455 S
O837   Zn909   1.916   .     S
O838   Zn916   1.938   .     S
O839   Zn1223  1.938   .     S
O840   Zn294   1.938   1_565 S
O841   Zn924   1.938   .     S
O842   Zn1220  1.938   .     S
O843   Zn911   1.938   .     S
O844   Zn914   1.938   .     S
O845   Zn297   1.938   1_565 S
O846   Zn915   1.938   .     S
O847   Zn922   1.937   .     S
O847   Zn910   1.937   .     S
O847   Zn914   1.937   .     S
O848   Zn1224  1.938   .     S
O849   Zn913   1.938   .     S
O850   Zn298   1.938   1_565 S
O851   Zn1219  1.938   .     S
O852   Zn912   1.938   .     S
O853   Zn308   1.938   1_565 S
O854   Zn910   1.938   .     S
O855   Zn923   1.938   .     S
O856   Zn922   1.938   .     S
O857   Zn917   1.938   .     S
O858   Zn913   1.937   .     S
O858   Zn919   1.937   .     S
O858   Zn924   1.937   .     S
O859   Zn909   1.938   .     S
O860   Zn919   1.938   .     S
O861   Zn918   1.938   .     S
O862   Zn921   1.938   .     S
O863   Zn920   1.938   .     S
O864   Zn922   1.938   .     S
O865   Zn923   1.938   .     S
O866   Zn920   1.938   .     S
O867   Zn921   1.938   .     S
O868   Zn918   1.938   .     S
O869   Zn912   1.916   .     S
O870   Zn919   1.938   .     S
O871   Zn909   1.938   .     S
O872   Zn917   1.938   .     S
O880   Zn911   1.916   .     S
O891   Zn914   1.916   .     S
O902   Zn913   1.916   .     S
O908   Zn916   1.916   .     S
Zn911  O1159   1.938   1_455 S
Zn912  O1150   1.938   1_455 S
Zn915  O1147   1.938   1_455 S
Zn916  O1156   1.938   1_455 S
Zn917  O1144   1.937   .     S
Zn918  O231    1.937   1_565 S
Zn920  O1133   1.937   .     S
Zn923  O242    1.937   1_565 S
C925   C945    1.417   .     S
C925   C949    1.195   1_554 S
C926   O1188   1.277   .     A
C926   O1134   1.277   .     A
C926   C1004   1.417   .     S
C927   H1093   1.109   .     S
C927   H1091   1.109   .     S
C927   O1202   1.411   .     S
C927   H1090   1.113   .     S
C928   H1095   1.113   .     S
C928   H1094   1.113   .     S
C928   H1096   1.109   .     S
C928   O1203   1.410   .     S
C929   H1098   1.109   .     S
C929   H1097   1.113   .     S
C929   H1099   1.109   .     S
C929   O1204   1.411   .     S
C930   H1101   1.113   .     S
C930   H1102   1.109   .     S
C930   O1205   1.410   .     S
C930   H1100   1.113   .     S
C931   H1105   1.109   .     S
C931   H1104   1.113   .     S
C931   O1206   1.411   .     S
C931   H1106   1.109   .     S
C932   O1207   1.415   .     S
C932   H1107   1.115   .     S
C932   H1108   1.109   .     S
C932   H1109   1.109   .     S
C933   H1112   1.109   .     S
C933   H1110   1.111   .     S
C933   H1111   1.114   .     S
C933   O1208   1.412   .     S
C934   O1209   1.415   .     S
C934   H1115   1.109   .     S
C934   H1113   1.115   .     S
C934   H1116   1.109   .     S
C935   H1119   1.109   .     S
C935   H1117   1.111   .     S
C935   O1211   1.412   .     S
C935   H1118   1.114   .     S
C936   H1120   1.115   .     S
C936   H1122   1.109   .     S
C936   O1212   1.415   .     S
C936   H1121   1.109   .     S
C937   O1199   1.277   .     A
C937   C993    1.416   .     S
C937   O1135   1.277   .     A
C938   H1123   1.111   .     S
C938   H1126   1.109   .     S
C938   H1124   1.114   .     S
C938   O1213   1.412   .     S
C939   H1127   1.115   .     S
C939   O1214   1.415   .     S
C939   H1129   1.109   .     S
C939   H1128   1.109   .     S
C940   H1132   1.109   .     S
C940   O1215   1.412   .     S
C940   H1131   1.114   .     S
C940   H1130   1.111   .     S
C941   O1136   1.277   .     A
C941   C982    1.417   .     S
C941   O1210   1.277   .     A
C942   C971    1.416   .     S
C942   O1137   1.277   .     S
C943   O1142   1.277   .     A
C943   C960    1.417   .     S
C944   C949    1.416   .     S
C944   O1139   1.277   .     S
C945   O1145   1.277   .     A
C946   C1006   1.459   .     S
C946   O1179   1.274   .     A
C946   O1146   1.278   .     A
C947   O1147   1.274   .     A
C947   O1180   1.276   .     A
C947   C1007   1.456   .     S
C948   O1176   1.274   .     A
C948   C999    1.460   .     S
C948   O1148   1.278   .     A
C949   C925    1.195   1_556 S
C950   O1149   1.274   .     A
C950   C1000   1.456   .     S
C950   O1178   1.276   .     A
C951   O1174   1.274   .     A
C951   C1001   1.460   .     S
C951   O1150   1.278   .     A
C952   O1175   1.276   .     A
C952   O1151   1.274   .     A
C952   C1002   1.456   .     S
C953   O1172   1.274   .     A
C953   O1152   1.278   .     A
C953   C1003   1.460   .     S
C954   C1005   1.456   .     S
C954   O1173   1.276   .     A
C954   O1153   1.274   .     A
C955   C1014   1.459   .     S
C955   O1170   1.278   .     A
C955   O1154   1.274   .     A
C956   C1016   1.456   .     S
C956   O1156   1.276   .     A
C956   O1171   1.274   .     A
C957   O1157   1.274   .     A
C957   C1008   1.459   .     S
C957   O1168   1.278   .     A
C958   C1009   1.456   .     S
C958   O1158   1.276   .     A
C958   O1169   1.274   .     A
C959   C1010   1.459   .     S
C959   O1165   1.278   .     A
C959   O1159   1.274   .     A
C960   C971    1.195   1_554 S
C961   O1167   1.274   .     A
C961   O1160   1.276   .     A
C961   C1011   1.456   .     S
C962   C1012   1.459   .     S
C962   O1163   1.278   .     A
C962   O1161   1.274   .     A
C963   C1013   1.456   .     S
C963   O1164   1.274   .     A
C963   O1162   1.276   .     A
C964   C976    1.398   .     A
C964   O1181   1.384   .     S
C964   C1011   1.407   .     A
C965   C975    1.398   .     A
C965   C1010   1.411   .     A
C965   O1182   1.385   .     S
C966   C974    1.398   .     A
C966   C1009   1.407   .     A
C966   O1183   1.384   .     S
C967   O1184   1.385   .     S
C967   C1008   1.411   .     A
C967   C973    1.398   .     A
C968   C1016   1.407   .     A
C968   O1185   1.384   .     S
C968   C980    1.398   .     A
C969   C979    1.398   .     A
C969   C1014   1.411   .     A
C969   O1186   1.385   .     S
C970   C1013   1.407   .     A
C970   O1187   1.384   .     S
C970   C978    1.398   .     A
C971   C960    1.195   1_556 S
C972   O1189   1.385   .     S
C972   C977    1.398   .     A
C972   C1012   1.411   .     A
C973   C1002   1.412   .     A
C973   O1190   1.386   .     S
C974   C1001   1.409   .     A
C974   O1191   1.385   .     S
C975   C1000   1.412   .     A
C975   O1192   1.386   .     S
C976   C999    1.409   .     A
C976   O1193   1.385   .     S
C977   O1194   1.386   .     S
C977   C1007   1.412   .     A
C978   C1006   1.409   .     A
C978   O1195   1.385   .     S
C979   C1005   1.412   .     A
C979   O1196   1.386   .     S
C980   C1003   1.409   .     A
C980   O1197   1.385   .     S
C981   O1198   1.384   .     S
C981   C1000   1.407   .     A
C981   C994    1.398   .     A
C982   C993    1.195   .     T
C983   O1200   1.385   .     S
C983   C992    1.398   .     A
C983   C999    1.411   .     A
C984   O1201   1.384   .     S
C984   C1002   1.407   .     A
C984   C991    1.398   .     A
C985   O1202   1.385   .     S
C985   C1001   1.411   .     A
C985   C990    1.398   .     A
C986   C1005   1.407   .     A
C986   O1203   1.384   .     S
C986   C998    1.398   .     A
C987   O1204   1.385   .     S
C987   C997    1.398   .     A
C987   C1003   1.411   .     A
C988   C1007   1.407   .     A
C988   C996    1.398   .     A
C988   O1205   1.384   .     S
C989   C1006   1.411   .     A
C989   O1206   1.385   .     S
C989   C995    1.398   .     A
C990   C1009   1.412   .     A
C990   O1207   1.386   .     S
C991   O1208   1.385   .     S
C991   C1008   1.409   .     A
C992   O1209   1.386   .     S
C992   C1011   1.412   .     A
C994   O1211   1.385   .     S
C994   C1010   1.409   .     A
C995   O1212   1.386   .     S
C995   C1013   1.412   .     A
C996   C1012   1.409   .     A
C996   O1213   1.385   .     S
C997   O1214   1.386   .     S
C997   C1016   1.412   .     A
C998   C1014   1.409   .     A
C998   O1215   1.385   .     S
C1004  C1015   1.195   .     T
C1015  C1026   1.416   .     S
C1017  O1181   1.410   .     S
C1017  H1059   1.109   .     S
C1017  H1048   1.113   .     S
C1017  H1037   1.113   .     S
C1018  H1081   1.109   .     S
C1018  H1092   1.109   .     S
C1018  O1182   1.411   .     S
C1018  H1070   1.113   .     S
C1019  H1125   1.109   .     S
C1019  H1114   1.113   .     S
C1019  O1183   1.410   .     S
C1019  H1103   1.113   .     S
C1020  H1038   1.113   .     S
C1020  H1040   1.109   .     S
C1020  O1184   1.411   .     S
C1020  H1039   1.109   .     S
C1021  O1185   1.410   .     S
C1021  H1041   1.113   .     S
C1021  H1043   1.109   .     S
C1021  H1042   1.113   .     S
C1022  H1045   1.109   .     S
C1022  H1044   1.113   .     S
C1022  O1186   1.411   .     S
C1022  H1046   1.109   .     S
C1023  O1187   1.410   .     S
C1023  H1050   1.109   .     S
C1023  H1047   1.113   .     S
C1023  H1049   1.113   .     S
C1024  H1051   1.113   .     S
C1024  H1052   1.109   .     S
C1024  H1053   1.109   .     S
C1024  O1189   1.411   .     S
C1025  H1054   1.115   .     S
C1025  H1056   1.109   .     S
C1025  O1190   1.415   .     S
C1025  H1055   1.109   .     S
C1026  O1177   1.277   .     A
C1026  O1216   1.277   .     S
C1027  O1191   1.412   .     S
C1027  H1060   1.109   .     S
C1027  H1058   1.114   .     S
C1027  H1057   1.111   .     S
C1028  H1061   1.115   .     S
C1028  H1063   1.109   .     S
C1028  O1192   1.415   .     S
C1028  H1062   1.109   .     S
C1029  H1064   1.111   .     S
C1029  H1066   1.109   .     S
C1029  O1193   1.412   .     S
C1029  H1065   1.114   .     S
C1030  H1067   1.115   .     S
C1030  H1069   1.109   .     S
C1030  O1194   1.415   .     S
C1030  H1068   1.109   .     S
C1031  H1072   1.114   .     S
C1031  H1073   1.109   .     S
C1031  O1195   1.412   .     S
C1031  H1071   1.111   .     S
C1032  H1075   1.109   .     S
C1032  H1074   1.115   .     S
C1032  H1076   1.109   .     S
C1032  O1196   1.415   .     S
C1033  H1078   1.114   .     S
C1033  H1077   1.111   .     S
C1033  H1079   1.109   .     S
C1033  O1197   1.412   .     S
C1034  O1198   1.410   .     S
C1034  H1082   1.113   .     S
C1034  H1080   1.113   .     S
C1034  H1083   1.109   .     S
C1035  H1085   1.109   .     S
C1035  H1084   1.113   .     S
C1035  O1200   1.411   .     S
C1035  H1086   1.109   .     S
C1036  H1088   1.113   .     S
C1036  H1089   1.109   .     S
C1036  H1087   1.113   .     S
C1036  O1201   1.410   .     S
O1133  Zn1220  1.937   .     S
O1133  Zn1224  1.937   .     S
O1133  Zn1217  1.937   .     S
O1134  Zn1223  1.916   .     S
O1135  Zn1218  1.916   .     S
O1136  Zn1232  1.916   .     S
O1137  Zn1227  1.916   .     S
O1138  Zn1226  1.916   .     S
O1138  C327    1.277   1_565 S
O1139  Zn1229  1.916   .     S
O1140  Zn1228  1.916   .     S
O1140  C637    1.277   1_655 S
O1141  Zn1231  1.916   .     S
O1141  C326    1.277   1_565 A
O1142  Zn1230  1.916   .     S
O1143  C636    1.277   1_655 A
O1143  Zn1225  1.916   .     S
O1144  Zn1229  1.937   .     S
O1144  Zn1219  1.937   .     S
O1144  Zn1223  1.937   .     S
O1145  Zn1217  1.916   .     S
O1146  Zn1224  1.938   .     S
O1147  Zn915   1.938   1_655 S
O1148  Zn602   1.938   1_565 S
O1149  Zn1232  1.938   .     S
O1150  Zn912   1.938   1_655 S
O1151  Zn1219  1.938   .     S
O1152  Zn1222  1.938   .     S
O1153  Zn605   1.938   1_565 S
O1154  Zn1223  1.938   .     S
O1155  Zn1230  1.937   .     S
O1155  Zn1218  1.937   .     S
O1155  Zn1222  1.937   .     S
O1156  Zn916   1.938   1_655 S
O1157  Zn1221  1.938   .     S
O1158  Zn606   1.938   1_565 S
O1159  Zn911   1.938   1_655 S
O1160  Zn1220  1.938   .     S
O1161  Zn616   1.938   1_565 S
O1162  Zn1218  1.938   .     S
O1163  Zn1231  1.938   .     S
O1164  Zn1230  1.938   .     S
O1165  Zn1225  1.938   .     S
O1166  Zn1221  1.937   .     S
O1166  Zn1227  1.937   .     S
O1166  Zn1232  1.937   .     S
O1167  Zn1217  1.938   .     S
O1168  Zn1227  1.938   .     S
O1169  Zn1226  1.938   .     S
O1170  Zn1229  1.938   .     S
O1171  Zn1228  1.938   .     S
O1172  Zn1230  1.938   .     S
O1173  Zn1231  1.938   .     S
O1174  Zn1228  1.938   .     S
O1175  Zn1229  1.938   .     S
O1176  Zn1226  1.938   .     S
O1177  Zn1220  1.916   .     S
O1178  Zn1227  1.938   .     S
O1179  Zn1217  1.938   .     S
O1180  Zn1225  1.938   .     S
O1188  Zn1219  1.916   .     S
O1199  Zn1222  1.916   .     S
O1210  Zn1221  1.916   .     S
O1216  Zn1224  1.916   .     S
Zn1225 O836    1.937   1_655 S
Zn1226 O539    1.937   1_565 S
Zn1228 O825    1.937   1_655 S
Zn1231 O550    1.937   1_565 S
