data_str_m2_o1_o16_pcu_sym.177
_audit_creation_date              2020-01-03
_audit_creation_method            'Materials Studio'
_symmetry_space_group_name_H-M    'P1'
_symmetry_Int_Tables_number       1
_symmetry_cell_setting            triclinic
loop_
_symmetry_equiv_pos_as_xyz
  x,y,z
_cell_length_a                    28.5974
_cell_length_b                    32.4966
_cell_length_c                    27.0800
_cell_angle_alpha                 90.4829
_cell_angle_beta                  73.6800
_cell_angle_gamma                 90.1817
loop_
_atom_site_label
_atom_site_type_symbol
_atom_site_fract_x
_atom_site_fract_y
_atom_site_fract_z
_atom_site_U_iso_or_equiv
_atom_site_adp_type
_atom_site_occupancy
C1     C     0.16670   0.24596   0.25008   0.00000  Uiso   1.00
C2     C     0.14928   0.15211   0.48760   0.00000  Uiso   1.00
C3     C     0.16483   0.15239   0.43304   0.00000  Uiso   1.00
C4     C     0.18417   0.16063   0.01507   0.00000  Uiso   1.00
C5     C     0.23239   0.17251   0.48782   0.00000  Uiso   1.00
C6     C     0.24803   0.16630   0.43488   0.00000  Uiso   1.00
C7     C     0.21560   0.15283   0.40899   0.00000  Uiso   1.00
C8     C     0.17272   0.15817   0.06867   0.00000  Uiso   1.00
C9     C     0.25167   0.18587   0.06791   0.00000  Uiso   1.00
C10    C     0.12922   0.15223   0.40491   0.00000  Uiso   1.00
C11    C     0.20953   0.31218   0.24868   0.00000  Uiso   1.00
C12    C     0.14154   0.16219   0.34936   0.00000  Uiso   1.00
C13    C     0.20948   0.02141   0.24866   0.00000  Uiso   1.00
C14    C     0.16660   0.04275   0.25003   0.00000  Uiso   1.00
C15    C     0.12377   0.02116   0.25147   0.00000  Uiso   1.00
C16    C     0.12381   0.31192   0.25155   0.00000  Uiso   1.00
C17    C     0.16670   0.29059   0.25013   0.00000  Uiso   1.00
C18    C     0.30066   0.19293   0.28151   0.00000  Uiso   1.00
C19    C     0.01682   0.19264   0.28153   0.00000  Uiso   1.00
C20    C     0.03306   0.14067   0.21837   0.00000  Uiso   1.00
C21    C     0.31679   0.14062   0.21844   0.00000  Uiso   1.00
C22    C     0.16662   0.08737   0.24997   0.00000  Uiso   1.00
C23    C     0.19233   0.16748   0.15053   0.00000  Uiso   1.00
C24    C     0.26462   0.18813   0.01459   0.00000  Uiso   1.00
C25    C     0.20645   0.16978   0.09473   0.00000  Uiso   1.00
C26    C     0.08068   0.14327   0.43088   0.00000  Uiso   1.00
C27    C     0.06633   0.13828   0.48391   0.00000  Uiso   1.00
C28    C     0.09947   0.14428   0.01231   0.00000  Uiso   1.00
Cu29   Cu    0.11978   0.16666   0.25000   0.00000  Uiso   1.00
Cu30   Cu    0.21355   0.16667   0.25000   0.00000  Uiso   1.00
H31    H     0.27663   0.19738   0.08841   0.00000  Uiso   1.00
H32    H     0.24300   0.03752   0.24748   0.00000  Uiso   1.00
H33    H     0.09025   0.03707   0.25259   0.00000  Uiso   1.00
H34    H     0.09028   0.29581   0.25274   0.00000  Uiso   1.00
H35    H     0.02936   0.21336   0.30668   0.00000  Uiso   1.00
H36    H     0.05836   0.11982   0.19301   0.00000  Uiso   1.00
H37    H     0.30477   0.11975   0.19316   0.00000  Uiso   1.00
H38    H     0.28584   0.16977   0.41320   0.00000  Uiso   1.00
H39    H     0.13820   0.14621   0.09108   0.00000  Uiso   1.00
H40    H     0.05348   0.14049   0.41013   0.00000  Uiso   1.00
H41    H     0.08463   0.14299   0.05347   0.00000  Uiso   1.00
H42    H     0.02863   0.13147   0.00354   0.00000  Uiso   1.00
H43    H     0.23216   0.14185   0.37051   0.00000  Uiso   1.00
H44    H     0.24307   0.29628   0.24747   0.00000  Uiso   1.00
N45    N     0.04931   0.16666   0.24998   0.00000  Uiso   1.00
N46    N     0.28402   0.16669   0.24999   0.00000  Uiso   1.00
O47    O     0.12708   0.22678   0.25000   0.00000  Uiso   1.00
O48    O     0.20627   0.22679   0.25000   0.00000  Uiso   1.00
O49    O     0.10775   0.16665   0.32549   0.00000  Uiso   1.00
O50    O     0.18694   0.16666   0.32549   0.00000  Uiso   1.00
O51    O     0.12706   0.10654   0.24999   0.00000  Uiso   1.00
O52    O     0.20625   0.10655   0.24999   0.00000  Uiso   1.00
O53    O     0.14640   0.16667   0.17451   0.00000  Uiso   1.00
O54    O     0.22559   0.16668   0.17451   0.00000  Uiso   1.00
C55    C     0.26842   0.22157   0.31525   0.00000  Uiso   1.00
N56    N     0.24276   0.24471   0.34257   0.00000  Uiso   1.00
N57    N     0.30889   0.20902   0.48898   0.00000  Uiso   1.00
H58    H     0.33149   0.18891   0.46293   0.00000  Uiso   1.00
H59    H     0.30021   0.23343   0.46824   0.00000  Uiso   1.00
C60    C     0.50003   0.24596   0.25008   0.00000  Uiso   1.00
C61    C     0.48261   0.15211   0.48760   0.00000  Uiso   1.00
C62    C     0.49816   0.15239   0.43304   0.00000  Uiso   1.00
C63    C     0.51750   0.16063   0.01507   0.00000  Uiso   1.00
C64    C     0.56573   0.17251   0.48782   0.00000  Uiso   1.00
C65    C     0.58137   0.16630   0.43488   0.00000  Uiso   1.00
C66    C     0.54894   0.15283   0.40899   0.00000  Uiso   1.00
C67    C     0.50605   0.15817   0.06867   0.00000  Uiso   1.00
C68    C     0.58500   0.18587   0.06791   0.00000  Uiso   1.00
C69    C     0.46255   0.15223   0.40491   0.00000  Uiso   1.00
C70    C     0.54286   0.31218   0.24868   0.00000  Uiso   1.00
C71    C     0.47487   0.16219   0.34936   0.00000  Uiso   1.00
C72    C     0.54281   0.02141   0.24866   0.00000  Uiso   1.00
C73    C     0.49994   0.04275   0.25003   0.00000  Uiso   1.00
C74    C     0.45710   0.02116   0.25147   0.00000  Uiso   1.00
C75    C     0.45714   0.31192   0.25155   0.00000  Uiso   1.00
C76    C     0.50003   0.29059   0.25013   0.00000  Uiso   1.00
C77    C     0.63400   0.19293   0.28151   0.00000  Uiso   1.00
C78    C     0.35016   0.19264   0.28153   0.00000  Uiso   1.00
C79    C     0.36639   0.14067   0.21837   0.00000  Uiso   1.00
C80    C     0.65013   0.14062   0.21844   0.00000  Uiso   1.00
C81    C     0.49996   0.08737   0.24997   0.00000  Uiso   1.00
C82    C     0.52567   0.16748   0.15053   0.00000  Uiso   1.00
C83    C     0.59795   0.18813   0.01459   0.00000  Uiso   1.00
C84    C     0.53978   0.16978   0.09473   0.00000  Uiso   1.00
C85    C     0.41401   0.14327   0.43088   0.00000  Uiso   1.00
C86    C     0.39967   0.13828   0.48391   0.00000  Uiso   1.00
C87    C     0.43280   0.14428   0.01231   0.00000  Uiso   1.00
Cu88   Cu    0.45311   0.16666   0.25000   0.00000  Uiso   1.00
Cu89   Cu    0.54689   0.16667   0.25000   0.00000  Uiso   1.00
H90    H     0.60996   0.19738   0.08841   0.00000  Uiso   1.00
H91    H     0.57633   0.03752   0.24748   0.00000  Uiso   1.00
H92    H     0.42358   0.03707   0.25259   0.00000  Uiso   1.00
H93    H     0.42362   0.29581   0.25274   0.00000  Uiso   1.00
H94    H     0.36270   0.21336   0.30668   0.00000  Uiso   1.00
H95    H     0.39170   0.11982   0.19301   0.00000  Uiso   1.00
H96    H     0.63810   0.11975   0.19316   0.00000  Uiso   1.00
H97    H     0.61918   0.16977   0.41320   0.00000  Uiso   1.00
H98    H     0.47153   0.14621   0.09108   0.00000  Uiso   1.00
H99    H     0.38681   0.14049   0.41013   0.00000  Uiso   1.00
H100   H     0.41797   0.14299   0.05347   0.00000  Uiso   1.00
H101   H     0.36196   0.13147   0.00354   0.00000  Uiso   1.00
H102   H     0.56550   0.14185   0.37051   0.00000  Uiso   1.00
H103   H     0.57641   0.29628   0.24747   0.00000  Uiso   1.00
N104   N     0.38265   0.16666   0.24998   0.00000  Uiso   1.00
N105   N     0.61735   0.16669   0.24999   0.00000  Uiso   1.00
O106   O     0.46042   0.22678   0.25000   0.00000  Uiso   1.00
O107   O     0.53961   0.22679   0.25000   0.00000  Uiso   1.00
O108   O     0.44108   0.16665   0.32549   0.00000  Uiso   1.00
O109   O     0.52027   0.16666   0.32549   0.00000  Uiso   1.00
O110   O     0.46039   0.10654   0.24999   0.00000  Uiso   1.00
O111   O     0.53958   0.10655   0.24999   0.00000  Uiso   1.00
O112   O     0.47973   0.16667   0.17451   0.00000  Uiso   1.00
O113   O     0.55892   0.16668   0.17451   0.00000  Uiso   1.00
C114   C     0.60175   0.22157   0.31525   0.00000  Uiso   1.00
N115   N     0.57610   0.24471   0.34257   0.00000  Uiso   1.00
N116   N     0.64222   0.20902   0.48898   0.00000  Uiso   1.00
H117   H     0.66482   0.18891   0.46293   0.00000  Uiso   1.00
H118   H     0.63354   0.23343   0.46824   0.00000  Uiso   1.00
C119   C     0.83337   0.24596   0.25008   0.00000  Uiso   1.00
C120   C     0.81594   0.15211   0.48760   0.00000  Uiso   1.00
C121   C     0.83150   0.15239   0.43304   0.00000  Uiso   1.00
C122   C     0.85084   0.16063   0.01507   0.00000  Uiso   1.00
C123   C     0.89906   0.17251   0.48782   0.00000  Uiso   1.00
C124   C     0.91470   0.16630   0.43488   0.00000  Uiso   1.00
C125   C     0.88227   0.15283   0.40899   0.00000  Uiso   1.00
C126   C     0.83938   0.15817   0.06867   0.00000  Uiso   1.00
C127   C     0.91834   0.18587   0.06791   0.00000  Uiso   1.00
C128   C     0.79589   0.15223   0.40491   0.00000  Uiso   1.00
C129   C     0.87620   0.31218   0.24868   0.00000  Uiso   1.00
C130   C     0.80820   0.16219   0.34936   0.00000  Uiso   1.00
C131   C     0.87615   0.02141   0.24866   0.00000  Uiso   1.00
C132   C     0.83327   0.04275   0.25003   0.00000  Uiso   1.00
C133   C     0.79044   0.02116   0.25147   0.00000  Uiso   1.00
C134   C     0.79047   0.31192   0.25155   0.00000  Uiso   1.00
C135   C     0.83336   0.29059   0.25013   0.00000  Uiso   1.00
C136   C     0.96733   0.19293   0.28151   0.00000  Uiso   1.00
C137   C     0.68349   0.19264   0.28153   0.00000  Uiso   1.00
C138   C     0.69973   0.14067   0.21837   0.00000  Uiso   1.00
C139   C     0.98346   0.14062   0.21844   0.00000  Uiso   1.00
C140   C     0.83329   0.08737   0.24997   0.00000  Uiso   1.00
C141   C     0.85900   0.16748   0.15053   0.00000  Uiso   1.00
C142   C     0.93128   0.18813   0.01459   0.00000  Uiso   1.00
C143   C     0.87311   0.16978   0.09473   0.00000  Uiso   1.00
C144   C     0.74734   0.14327   0.43088   0.00000  Uiso   1.00
C145   C     0.73300   0.13828   0.48391   0.00000  Uiso   1.00
C146   C     0.76614   0.14428   0.01231   0.00000  Uiso   1.00
Cu147  Cu    0.78645   0.16666   0.25000   0.00000  Uiso   1.00
Cu148  Cu    0.88022   0.16667   0.25000   0.00000  Uiso   1.00
H149   H     0.94330   0.19738   0.08841   0.00000  Uiso   1.00
H150   H     0.90967   0.03752   0.24748   0.00000  Uiso   1.00
H151   H     0.75692   0.03707   0.25259   0.00000  Uiso   1.00
H152   H     0.75695   0.29581   0.25274   0.00000  Uiso   1.00
H153   H     0.69603   0.21336   0.30668   0.00000  Uiso   1.00
H154   H     0.72503   0.11982   0.19301   0.00000  Uiso   1.00
H155   H     0.97143   0.11975   0.19316   0.00000  Uiso   1.00
H156   H     0.95251   0.16977   0.41320   0.00000  Uiso   1.00
H157   H     0.80487   0.14621   0.09108   0.00000  Uiso   1.00
H158   H     0.72015   0.14049   0.41013   0.00000  Uiso   1.00
H159   H     0.75130   0.14299   0.05347   0.00000  Uiso   1.00
H160   H     0.69529   0.13147   0.00354   0.00000  Uiso   1.00
H161   H     0.89883   0.14185   0.37051   0.00000  Uiso   1.00
H162   H     0.90974   0.29628   0.24747   0.00000  Uiso   1.00
N163   N     0.71598   0.16666   0.24998   0.00000  Uiso   1.00
N164   N     0.95069   0.16669   0.24999   0.00000  Uiso   1.00
O165   O     0.79375   0.22678   0.25000   0.00000  Uiso   1.00
O166   O     0.87294   0.22679   0.25000   0.00000  Uiso   1.00
O167   O     0.77441   0.16665   0.32549   0.00000  Uiso   1.00
O168   O     0.85360   0.16666   0.32549   0.00000  Uiso   1.00
O169   O     0.79373   0.10654   0.24999   0.00000  Uiso   1.00
O170   O     0.87292   0.10655   0.24999   0.00000  Uiso   1.00
O171   O     0.81306   0.16667   0.17451   0.00000  Uiso   1.00
O172   O     0.89225   0.16668   0.17451   0.00000  Uiso   1.00
C173   C     0.93508   0.22157   0.31525   0.00000  Uiso   1.00
N174   N     0.90943   0.24471   0.34257   0.00000  Uiso   1.00
N175   N     0.97555   0.20902   0.48898   0.00000  Uiso   1.00
H176   H     0.99815   0.18891   0.46293   0.00000  Uiso   1.00
H177   H     0.96687   0.23343   0.46824   0.00000  Uiso   1.00
C178   C     0.16670   0.57929   0.25008   0.00000  Uiso   1.00
C179   C     0.14928   0.48545   0.48760   0.00000  Uiso   1.00
C180   C     0.16483   0.48573   0.43304   0.00000  Uiso   1.00
C181   C     0.18417   0.49396   0.01507   0.00000  Uiso   1.00
C182   C     0.23239   0.50584   0.48782   0.00000  Uiso   1.00
C183   C     0.24803   0.49964   0.43488   0.00000  Uiso   1.00
C184   C     0.21560   0.48617   0.40899   0.00000  Uiso   1.00
C185   C     0.17272   0.49150   0.06867   0.00000  Uiso   1.00
C186   C     0.25167   0.51920   0.06791   0.00000  Uiso   1.00
C187   C     0.12922   0.48556   0.40491   0.00000  Uiso   1.00
C188   C     0.20953   0.64551   0.24868   0.00000  Uiso   1.00
C189   C     0.14154   0.49553   0.34936   0.00000  Uiso   1.00
C190   C     0.20948   0.35475   0.24866   0.00000  Uiso   1.00
C191   C     0.16660   0.37608   0.25003   0.00000  Uiso   1.00
C192   C     0.12377   0.35449   0.25147   0.00000  Uiso   1.00
C193   C     0.12381   0.64525   0.25155   0.00000  Uiso   1.00
C194   C     0.16670   0.62392   0.25013   0.00000  Uiso   1.00
C195   C     0.30066   0.52626   0.28151   0.00000  Uiso   1.00
C196   C     0.01682   0.52598   0.28153   0.00000  Uiso   1.00
C197   C     0.03306   0.47400   0.21837   0.00000  Uiso   1.00
C198   C     0.31679   0.47396   0.21844   0.00000  Uiso   1.00
C199   C     0.16662   0.42070   0.24997   0.00000  Uiso   1.00
C200   C     0.19233   0.50081   0.15053   0.00000  Uiso   1.00
C201   C     0.26462   0.52146   0.01459   0.00000  Uiso   1.00
C202   C     0.20645   0.50311   0.09473   0.00000  Uiso   1.00
C203   C     0.08068   0.47661   0.43088   0.00000  Uiso   1.00
C204   C     0.06633   0.47162   0.48391   0.00000  Uiso   1.00
C205   C     0.09947   0.47762   0.01231   0.00000  Uiso   1.00
Cu206  Cu    0.11978   0.49999   0.25000   0.00000  Uiso   1.00
Cu207  Cu    0.21355   0.50001   0.25000   0.00000  Uiso   1.00
H208   H     0.27663   0.53071   0.08841   0.00000  Uiso   1.00
H209   H     0.24300   0.37085   0.24748   0.00000  Uiso   1.00
H210   H     0.09025   0.37040   0.25259   0.00000  Uiso   1.00
H211   H     0.09028   0.62915   0.25274   0.00000  Uiso   1.00
H212   H     0.02936   0.54669   0.30668   0.00000  Uiso   1.00
H213   H     0.05836   0.45315   0.19301   0.00000  Uiso   1.00
H214   H     0.30477   0.45308   0.19316   0.00000  Uiso   1.00
H215   H     0.28584   0.50311   0.41320   0.00000  Uiso   1.00
H216   H     0.13820   0.47954   0.09108   0.00000  Uiso   1.00
H217   H     0.05348   0.47383   0.41013   0.00000  Uiso   1.00
H218   H     0.08463   0.47633   0.05347   0.00000  Uiso   1.00
H219   H     0.02863   0.46480   0.00354   0.00000  Uiso   1.00
H220   H     0.23216   0.47518   0.37051   0.00000  Uiso   1.00
H221   H     0.24307   0.62961   0.24747   0.00000  Uiso   1.00
N222   N     0.04931   0.49999   0.24998   0.00000  Uiso   1.00
N223   N     0.28402   0.50002   0.24999   0.00000  Uiso   1.00
O224   O     0.12708   0.56011   0.25000   0.00000  Uiso   1.00
O225   O     0.20627   0.56012   0.25000   0.00000  Uiso   1.00
O226   O     0.10775   0.49998   0.32549   0.00000  Uiso   1.00
O227   O     0.18694   0.49999   0.32549   0.00000  Uiso   1.00
O228   O     0.12706   0.43988   0.24999   0.00000  Uiso   1.00
O229   O     0.20625   0.43989   0.24999   0.00000  Uiso   1.00
O230   O     0.14640   0.50001   0.17451   0.00000  Uiso   1.00
O231   O     0.22559   0.50002   0.17451   0.00000  Uiso   1.00
C232   C     0.26842   0.55490   0.31525   0.00000  Uiso   1.00
N233   N     0.24276   0.57805   0.34257   0.00000  Uiso   1.00
N234   N     0.30889   0.54236   0.48898   0.00000  Uiso   1.00
H235   H     0.33149   0.52225   0.46293   0.00000  Uiso   1.00
H236   H     0.30021   0.56677   0.46824   0.00000  Uiso   1.00
C237   C     0.50003   0.57929   0.25008   0.00000  Uiso   1.00
C238   C     0.48261   0.48545   0.48760   0.00000  Uiso   1.00
C239   C     0.49816   0.48573   0.43304   0.00000  Uiso   1.00
C240   C     0.51750   0.49396   0.01507   0.00000  Uiso   1.00
C241   C     0.56573   0.50584   0.48782   0.00000  Uiso   1.00
C242   C     0.58137   0.49964   0.43488   0.00000  Uiso   1.00
C243   C     0.54894   0.48617   0.40899   0.00000  Uiso   1.00
C244   C     0.50605   0.49150   0.06867   0.00000  Uiso   1.00
C245   C     0.58500   0.51920   0.06791   0.00000  Uiso   1.00
C246   C     0.46255   0.48556   0.40491   0.00000  Uiso   1.00
C247   C     0.54286   0.64551   0.24868   0.00000  Uiso   1.00
C248   C     0.47487   0.49553   0.34936   0.00000  Uiso   1.00
C249   C     0.54281   0.35475   0.24866   0.00000  Uiso   1.00
C250   C     0.49994   0.37608   0.25003   0.00000  Uiso   1.00
C251   C     0.45710   0.35449   0.25147   0.00000  Uiso   1.00
C252   C     0.45714   0.64525   0.25155   0.00000  Uiso   1.00
C253   C     0.50003   0.62392   0.25013   0.00000  Uiso   1.00
C254   C     0.63400   0.52626   0.28151   0.00000  Uiso   1.00
C255   C     0.35016   0.52598   0.28153   0.00000  Uiso   1.00
C256   C     0.36639   0.47400   0.21837   0.00000  Uiso   1.00
C257   C     0.65013   0.47396   0.21844   0.00000  Uiso   1.00
C258   C     0.49996   0.42070   0.24997   0.00000  Uiso   1.00
C259   C     0.52567   0.50081   0.15053   0.00000  Uiso   1.00
C260   C     0.59795   0.52146   0.01459   0.00000  Uiso   1.00
C261   C     0.53978   0.50311   0.09473   0.00000  Uiso   1.00
C262   C     0.41401   0.47661   0.43088   0.00000  Uiso   1.00
C263   C     0.39967   0.47162   0.48391   0.00000  Uiso   1.00
C264   C     0.43280   0.47762   0.01231   0.00000  Uiso   1.00
Cu265  Cu    0.45311   0.49999   0.25000   0.00000  Uiso   1.00
Cu266  Cu    0.54689   0.50001   0.25000   0.00000  Uiso   1.00
H267   H     0.60996   0.53071   0.08841   0.00000  Uiso   1.00
H268   H     0.57633   0.37085   0.24748   0.00000  Uiso   1.00
H269   H     0.42358   0.37040   0.25259   0.00000  Uiso   1.00
H270   H     0.42362   0.62915   0.25274   0.00000  Uiso   1.00
H271   H     0.36270   0.54669   0.30668   0.00000  Uiso   1.00
H272   H     0.39170   0.45315   0.19301   0.00000  Uiso   1.00
H273   H     0.63810   0.45308   0.19316   0.00000  Uiso   1.00
H274   H     0.61918   0.50311   0.41320   0.00000  Uiso   1.00
H275   H     0.47153   0.47954   0.09108   0.00000  Uiso   1.00
H276   H     0.38681   0.47383   0.41013   0.00000  Uiso   1.00
H277   H     0.41797   0.47633   0.05347   0.00000  Uiso   1.00
H278   H     0.36196   0.46480   0.00354   0.00000  Uiso   1.00
H279   H     0.56550   0.47518   0.37051   0.00000  Uiso   1.00
H280   H     0.57641   0.62961   0.24747   0.00000  Uiso   1.00
N281   N     0.38265   0.49999   0.24998   0.00000  Uiso   1.00
N282   N     0.61735   0.50002   0.24999   0.00000  Uiso   1.00
O283   O     0.46042   0.56011   0.25000   0.00000  Uiso   1.00
O284   O     0.53961   0.56012   0.25000   0.00000  Uiso   1.00
O285   O     0.44108   0.49998   0.32549   0.00000  Uiso   1.00
O286   O     0.52027   0.49999   0.32549   0.00000  Uiso   1.00
O287   O     0.46039   0.43988   0.24999   0.00000  Uiso   1.00
O288   O     0.53958   0.43989   0.24999   0.00000  Uiso   1.00
O289   O     0.47973   0.50001   0.17451   0.00000  Uiso   1.00
O290   O     0.55892   0.50002   0.17451   0.00000  Uiso   1.00
C291   C     0.60175   0.55490   0.31525   0.00000  Uiso   1.00
N292   N     0.57610   0.57805   0.34257   0.00000  Uiso   1.00
N293   N     0.64222   0.54236   0.48898   0.00000  Uiso   1.00
H294   H     0.66482   0.52225   0.46293   0.00000  Uiso   1.00
H295   H     0.63354   0.56677   0.46824   0.00000  Uiso   1.00
C296   C     0.83337   0.57929   0.25008   0.00000  Uiso   1.00
C297   C     0.81594   0.48545   0.48760   0.00000  Uiso   1.00
C298   C     0.83150   0.48573   0.43304   0.00000  Uiso   1.00
C299   C     0.85084   0.49396   0.01507   0.00000  Uiso   1.00
C300   C     0.89906   0.50584   0.48782   0.00000  Uiso   1.00
C301   C     0.91470   0.49964   0.43488   0.00000  Uiso   1.00
C302   C     0.88227   0.48617   0.40899   0.00000  Uiso   1.00
C303   C     0.83938   0.49150   0.06867   0.00000  Uiso   1.00
C304   C     0.91834   0.51920   0.06791   0.00000  Uiso   1.00
C305   C     0.79589   0.48556   0.40491   0.00000  Uiso   1.00
C306   C     0.87620   0.64551   0.24868   0.00000  Uiso   1.00
C307   C     0.80820   0.49553   0.34936   0.00000  Uiso   1.00
C308   C     0.87615   0.35475   0.24866   0.00000  Uiso   1.00
C309   C     0.83327   0.37608   0.25003   0.00000  Uiso   1.00
C310   C     0.79044   0.35449   0.25147   0.00000  Uiso   1.00
C311   C     0.79047   0.64525   0.25155   0.00000  Uiso   1.00
C312   C     0.83336   0.62392   0.25013   0.00000  Uiso   1.00
C313   C     0.96733   0.52626   0.28151   0.00000  Uiso   1.00
C314   C     0.68349   0.52598   0.28153   0.00000  Uiso   1.00
C315   C     0.69973   0.47400   0.21837   0.00000  Uiso   1.00
C316   C     0.98346   0.47396   0.21844   0.00000  Uiso   1.00
C317   C     0.83329   0.42070   0.24997   0.00000  Uiso   1.00
C318   C     0.85900   0.50081   0.15053   0.00000  Uiso   1.00
C319   C     0.93128   0.52146   0.01459   0.00000  Uiso   1.00
C320   C     0.87311   0.50311   0.09473   0.00000  Uiso   1.00
C321   C     0.74734   0.47661   0.43088   0.00000  Uiso   1.00
C322   C     0.73300   0.47162   0.48391   0.00000  Uiso   1.00
C323   C     0.76614   0.47762   0.01231   0.00000  Uiso   1.00
Cu324  Cu    0.78645   0.49999   0.25000   0.00000  Uiso   1.00
Cu325  Cu    0.88022   0.50001   0.25000   0.00000  Uiso   1.00
H326   H     0.94330   0.53071   0.08841   0.00000  Uiso   1.00
H327   H     0.90967   0.37085   0.24748   0.00000  Uiso   1.00
H328   H     0.75692   0.37040   0.25259   0.00000  Uiso   1.00
H329   H     0.75695   0.62915   0.25274   0.00000  Uiso   1.00
H330   H     0.69603   0.54669   0.30668   0.00000  Uiso   1.00
H331   H     0.72503   0.45315   0.19301   0.00000  Uiso   1.00
H332   H     0.97143   0.45308   0.19316   0.00000  Uiso   1.00
H333   H     0.95251   0.50311   0.41320   0.00000  Uiso   1.00
H334   H     0.80487   0.47954   0.09108   0.00000  Uiso   1.00
H335   H     0.72015   0.47383   0.41013   0.00000  Uiso   1.00
H336   H     0.75130   0.47633   0.05347   0.00000  Uiso   1.00
H337   H     0.69529   0.46480   0.00354   0.00000  Uiso   1.00
H338   H     0.89883   0.47518   0.37051   0.00000  Uiso   1.00
H339   H     0.90974   0.62961   0.24747   0.00000  Uiso   1.00
N340   N     0.71598   0.49999   0.24998   0.00000  Uiso   1.00
N341   N     0.95069   0.50002   0.24999   0.00000  Uiso   1.00
O342   O     0.79375   0.56011   0.25000   0.00000  Uiso   1.00
O343   O     0.87294   0.56012   0.25000   0.00000  Uiso   1.00
O344   O     0.77441   0.49998   0.32549   0.00000  Uiso   1.00
O345   O     0.85360   0.49999   0.32549   0.00000  Uiso   1.00
O346   O     0.79373   0.43988   0.24999   0.00000  Uiso   1.00
O347   O     0.87292   0.43989   0.24999   0.00000  Uiso   1.00
O348   O     0.81306   0.50001   0.17451   0.00000  Uiso   1.00
O349   O     0.89225   0.50002   0.17451   0.00000  Uiso   1.00
C350   C     0.93508   0.55490   0.31525   0.00000  Uiso   1.00
N351   N     0.90943   0.57805   0.34257   0.00000  Uiso   1.00
N352   N     0.97555   0.54236   0.48898   0.00000  Uiso   1.00
H353   H     0.99815   0.52225   0.46293   0.00000  Uiso   1.00
H354   H     0.96687   0.56677   0.46824   0.00000  Uiso   1.00
C355   C     0.16670   0.91263   0.25008   0.00000  Uiso   1.00
C356   C     0.14928   0.81878   0.48760   0.00000  Uiso   1.00
C357   C     0.16483   0.81906   0.43304   0.00000  Uiso   1.00
C358   C     0.18417   0.82729   0.01507   0.00000  Uiso   1.00
C359   C     0.23239   0.83917   0.48782   0.00000  Uiso   1.00
C360   C     0.24803   0.83297   0.43488   0.00000  Uiso   1.00
C361   C     0.21560   0.81950   0.40899   0.00000  Uiso   1.00
C362   C     0.17272   0.82483   0.06867   0.00000  Uiso   1.00
C363   C     0.25167   0.85254   0.06791   0.00000  Uiso   1.00
C364   C     0.12922   0.81889   0.40491   0.00000  Uiso   1.00
C365   C     0.20953   0.97884   0.24868   0.00000  Uiso   1.00
C366   C     0.14154   0.82886   0.34936   0.00000  Uiso   1.00
C367   C     0.20948   0.68808   0.24866   0.00000  Uiso   1.00
C368   C     0.16660   0.70941   0.25003   0.00000  Uiso   1.00
C369   C     0.12377   0.68783   0.25147   0.00000  Uiso   1.00
C370   C     0.12381   0.97859   0.25155   0.00000  Uiso   1.00
C371   C     0.16670   0.95725   0.25013   0.00000  Uiso   1.00
C372   C     0.30066   0.85960   0.28151   0.00000  Uiso   1.00
C373   C     0.01682   0.85931   0.28153   0.00000  Uiso   1.00
C374   C     0.03306   0.80733   0.21837   0.00000  Uiso   1.00
C375   C     0.31679   0.80729   0.21844   0.00000  Uiso   1.00
C376   C     0.16662   0.75404   0.24997   0.00000  Uiso   1.00
C377   C     0.19233   0.83415   0.15053   0.00000  Uiso   1.00
C378   C     0.26462   0.85479   0.01459   0.00000  Uiso   1.00
C379   C     0.20645   0.83645   0.09473   0.00000  Uiso   1.00
C380   C     0.08068   0.80994   0.43088   0.00000  Uiso   1.00
C381   C     0.06633   0.80495   0.48391   0.00000  Uiso   1.00
C382   C     0.09947   0.81095   0.01231   0.00000  Uiso   1.00
Cu383  Cu    0.11978   0.83333   0.25000   0.00000  Uiso   1.00
Cu384  Cu    0.21355   0.83334   0.25000   0.00000  Uiso   1.00
H385   H     0.27663   0.86404   0.08841   0.00000  Uiso   1.00
H386   H     0.24300   0.70419   0.24748   0.00000  Uiso   1.00
H387   H     0.09025   0.70374   0.25259   0.00000  Uiso   1.00
H388   H     0.09028   0.96248   0.25274   0.00000  Uiso   1.00
H389   H     0.02936   0.88002   0.30668   0.00000  Uiso   1.00
H390   H     0.05836   0.78648   0.19301   0.00000  Uiso   1.00
H391   H     0.30477   0.78642   0.19316   0.00000  Uiso   1.00
H392   H     0.28584   0.83644   0.41320   0.00000  Uiso   1.00
H393   H     0.13820   0.81287   0.09108   0.00000  Uiso   1.00
H394   H     0.05348   0.80716   0.41013   0.00000  Uiso   1.00
H395   H     0.08463   0.80966   0.05347   0.00000  Uiso   1.00
H396   H     0.02863   0.79813   0.00354   0.00000  Uiso   1.00
H397   H     0.23216   0.80852   0.37051   0.00000  Uiso   1.00
H398   H     0.24307   0.96294   0.24747   0.00000  Uiso   1.00
N399   N     0.04931   0.83332   0.24998   0.00000  Uiso   1.00
N400   N     0.28402   0.83335   0.24999   0.00000  Uiso   1.00
O401   O     0.12708   0.89345   0.25000   0.00000  Uiso   1.00
O402   O     0.20627   0.89346   0.25000   0.00000  Uiso   1.00
O403   O     0.10775   0.83332   0.32549   0.00000  Uiso   1.00
O404   O     0.18694   0.83333   0.32549   0.00000  Uiso   1.00
O405   O     0.12706   0.77321   0.24999   0.00000  Uiso   1.00
O406   O     0.20625   0.77322   0.24999   0.00000  Uiso   1.00
O407   O     0.14640   0.83334   0.17451   0.00000  Uiso   1.00
O408   O     0.22559   0.83335   0.17451   0.00000  Uiso   1.00
C409   C     0.26842   0.88824   0.31525   0.00000  Uiso   1.00
N410   N     0.24276   0.91138   0.34257   0.00000  Uiso   1.00
N411   N     0.30889   0.87569   0.48898   0.00000  Uiso   1.00
H412   H     0.33149   0.85558   0.46293   0.00000  Uiso   1.00
H413   H     0.30021   0.90010   0.46824   0.00000  Uiso   1.00
C414   C     0.50003   0.91263   0.25008   0.00000  Uiso   1.00
C415   C     0.48261   0.81878   0.48760   0.00000  Uiso   1.00
C416   C     0.49816   0.81906   0.43304   0.00000  Uiso   1.00
C417   C     0.51750   0.82729   0.01507   0.00000  Uiso   1.00
C418   C     0.56573   0.83917   0.48782   0.00000  Uiso   1.00
C419   C     0.58137   0.83297   0.43488   0.00000  Uiso   1.00
C420   C     0.54894   0.81950   0.40899   0.00000  Uiso   1.00
C421   C     0.50605   0.82483   0.06867   0.00000  Uiso   1.00
C422   C     0.58500   0.85254   0.06791   0.00000  Uiso   1.00
C423   C     0.46255   0.81889   0.40491   0.00000  Uiso   1.00
C424   C     0.54286   0.97884   0.24868   0.00000  Uiso   1.00
C425   C     0.47487   0.82886   0.34936   0.00000  Uiso   1.00
C426   C     0.54281   0.68808   0.24866   0.00000  Uiso   1.00
C427   C     0.49994   0.70941   0.25003   0.00000  Uiso   1.00
C428   C     0.45710   0.68783   0.25147   0.00000  Uiso   1.00
C429   C     0.45714   0.97859   0.25155   0.00000  Uiso   1.00
C430   C     0.50003   0.95725   0.25013   0.00000  Uiso   1.00
C431   C     0.63400   0.85960   0.28151   0.00000  Uiso   1.00
C432   C     0.35016   0.85931   0.28153   0.00000  Uiso   1.00
C433   C     0.36639   0.80733   0.21837   0.00000  Uiso   1.00
C434   C     0.65013   0.80729   0.21844   0.00000  Uiso   1.00
C435   C     0.49996   0.75404   0.24997   0.00000  Uiso   1.00
C436   C     0.52567   0.83415   0.15053   0.00000  Uiso   1.00
C437   C     0.59795   0.85479   0.01459   0.00000  Uiso   1.00
C438   C     0.53978   0.83645   0.09473   0.00000  Uiso   1.00
C439   C     0.41401   0.80994   0.43088   0.00000  Uiso   1.00
C440   C     0.39967   0.80495   0.48391   0.00000  Uiso   1.00
C441   C     0.43280   0.81095   0.01231   0.00000  Uiso   1.00
Cu442  Cu    0.45311   0.83333   0.25000   0.00000  Uiso   1.00
Cu443  Cu    0.54689   0.83334   0.25000   0.00000  Uiso   1.00
H444   H     0.60996   0.86404   0.08841   0.00000  Uiso   1.00
H445   H     0.57633   0.70419   0.24748   0.00000  Uiso   1.00
H446   H     0.42358   0.70374   0.25259   0.00000  Uiso   1.00
H447   H     0.42362   0.96248   0.25274   0.00000  Uiso   1.00
H448   H     0.36270   0.88002   0.30668   0.00000  Uiso   1.00
H449   H     0.39170   0.78648   0.19301   0.00000  Uiso   1.00
H450   H     0.63810   0.78642   0.19316   0.00000  Uiso   1.00
H451   H     0.61918   0.83644   0.41320   0.00000  Uiso   1.00
H452   H     0.47153   0.81287   0.09108   0.00000  Uiso   1.00
H453   H     0.38681   0.80716   0.41013   0.00000  Uiso   1.00
H454   H     0.41797   0.80966   0.05347   0.00000  Uiso   1.00
H455   H     0.36196   0.79813   0.00354   0.00000  Uiso   1.00
H456   H     0.56550   0.80852   0.37051   0.00000  Uiso   1.00
H457   H     0.57641   0.96294   0.24747   0.00000  Uiso   1.00
N458   N     0.38265   0.83332   0.24998   0.00000  Uiso   1.00
N459   N     0.61735   0.83335   0.24999   0.00000  Uiso   1.00
O460   O     0.46042   0.89345   0.25000   0.00000  Uiso   1.00
O461   O     0.53961   0.89346   0.25000   0.00000  Uiso   1.00
O462   O     0.44108   0.83332   0.32549   0.00000  Uiso   1.00
O463   O     0.52027   0.83333   0.32549   0.00000  Uiso   1.00
O464   O     0.46039   0.77321   0.24999   0.00000  Uiso   1.00
O465   O     0.53958   0.77322   0.24999   0.00000  Uiso   1.00
O466   O     0.47973   0.83334   0.17451   0.00000  Uiso   1.00
O467   O     0.55892   0.83335   0.17451   0.00000  Uiso   1.00
C468   C     0.60175   0.88824   0.31525   0.00000  Uiso   1.00
N469   N     0.57610   0.91138   0.34257   0.00000  Uiso   1.00
N470   N     0.64222   0.87569   0.48898   0.00000  Uiso   1.00
H471   H     0.66482   0.85558   0.46293   0.00000  Uiso   1.00
H472   H     0.63354   0.90010   0.46824   0.00000  Uiso   1.00
C473   C     0.83337   0.91263   0.25008   0.00000  Uiso   1.00
C474   C     0.81594   0.81878   0.48760   0.00000  Uiso   1.00
C475   C     0.83150   0.81906   0.43304   0.00000  Uiso   1.00
C476   C     0.85084   0.82729   0.01507   0.00000  Uiso   1.00
C477   C     0.89906   0.83917   0.48782   0.00000  Uiso   1.00
C478   C     0.91470   0.83297   0.43488   0.00000  Uiso   1.00
C479   C     0.88227   0.81950   0.40899   0.00000  Uiso   1.00
C480   C     0.83938   0.82483   0.06867   0.00000  Uiso   1.00
C481   C     0.91834   0.85254   0.06791   0.00000  Uiso   1.00
C482   C     0.79589   0.81889   0.40491   0.00000  Uiso   1.00
C483   C     0.87620   0.97884   0.24868   0.00000  Uiso   1.00
C484   C     0.80820   0.82886   0.34936   0.00000  Uiso   1.00
C485   C     0.87615   0.68808   0.24866   0.00000  Uiso   1.00
C486   C     0.83327   0.70941   0.25003   0.00000  Uiso   1.00
C487   C     0.79044   0.68783   0.25147   0.00000  Uiso   1.00
C488   C     0.79047   0.97859   0.25155   0.00000  Uiso   1.00
C489   C     0.83336   0.95725   0.25013   0.00000  Uiso   1.00
C490   C     0.96733   0.85960   0.28151   0.00000  Uiso   1.00
C491   C     0.68349   0.85931   0.28153   0.00000  Uiso   1.00
C492   C     0.69973   0.80733   0.21837   0.00000  Uiso   1.00
C493   C     0.98346   0.80729   0.21844   0.00000  Uiso   1.00
C494   C     0.83329   0.75404   0.24997   0.00000  Uiso   1.00
C495   C     0.85900   0.83415   0.15053   0.00000  Uiso   1.00
C496   C     0.93128   0.85479   0.01459   0.00000  Uiso   1.00
C497   C     0.87311   0.83645   0.09473   0.00000  Uiso   1.00
C498   C     0.74734   0.80994   0.43088   0.00000  Uiso   1.00
C499   C     0.73300   0.80495   0.48391   0.00000  Uiso   1.00
C500   C     0.76614   0.81095   0.01231   0.00000  Uiso   1.00
Cu501  Cu    0.78645   0.83333   0.25000   0.00000  Uiso   1.00
Cu502  Cu    0.88022   0.83334   0.25000   0.00000  Uiso   1.00
H503   H     0.94330   0.86404   0.08841   0.00000  Uiso   1.00
H504   H     0.90967   0.70419   0.24748   0.00000  Uiso   1.00
H505   H     0.75692   0.70374   0.25259   0.00000  Uiso   1.00
H506   H     0.75695   0.96248   0.25274   0.00000  Uiso   1.00
H507   H     0.69603   0.88002   0.30668   0.00000  Uiso   1.00
H508   H     0.72503   0.78648   0.19301   0.00000  Uiso   1.00
H509   H     0.97143   0.78642   0.19316   0.00000  Uiso   1.00
H510   H     0.95251   0.83644   0.41320   0.00000  Uiso   1.00
H511   H     0.80487   0.81287   0.09108   0.00000  Uiso   1.00
H512   H     0.72015   0.80716   0.41013   0.00000  Uiso   1.00
H513   H     0.75130   0.80966   0.05347   0.00000  Uiso   1.00
H514   H     0.69529   0.79813   0.00354   0.00000  Uiso   1.00
H515   H     0.89883   0.80852   0.37051   0.00000  Uiso   1.00
H516   H     0.90974   0.96294   0.24747   0.00000  Uiso   1.00
N517   N     0.71598   0.83332   0.24998   0.00000  Uiso   1.00
N518   N     0.95069   0.83335   0.24999   0.00000  Uiso   1.00
O519   O     0.79375   0.89345   0.25000   0.00000  Uiso   1.00
O520   O     0.87294   0.89346   0.25000   0.00000  Uiso   1.00
O521   O     0.77441   0.83332   0.32549   0.00000  Uiso   1.00
O522   O     0.85360   0.83333   0.32549   0.00000  Uiso   1.00
O523   O     0.79373   0.77321   0.24999   0.00000  Uiso   1.00
O524   O     0.87292   0.77322   0.24999   0.00000  Uiso   1.00
O525   O     0.81306   0.83334   0.17451   0.00000  Uiso   1.00
O526   O     0.89225   0.83335   0.17451   0.00000  Uiso   1.00
C527   C     0.93508   0.88824   0.31525   0.00000  Uiso   1.00
N528   N     0.90943   0.91138   0.34257   0.00000  Uiso   1.00
N529   N     0.97555   0.87569   0.48898   0.00000  Uiso   1.00
H530   H     0.99815   0.85558   0.46293   0.00000  Uiso   1.00
H531   H     0.96687   0.90010   0.46824   0.00000  Uiso   1.00
C532   C     0.16670   0.24596   0.75008   0.00000  Uiso   1.00
C533   C     0.14928   0.15211   0.98760   0.00000  Uiso   1.00
C534   C     0.16483   0.15239   0.93304   0.00000  Uiso   1.00
C535   C     0.18417   0.16063   0.51507   0.00000  Uiso   1.00
C536   C     0.23239   0.17251   0.98782   0.00000  Uiso   1.00
C537   C     0.24803   0.16630   0.93488   0.00000  Uiso   1.00
C538   C     0.21560   0.15283   0.90899   0.00000  Uiso   1.00
C539   C     0.17272   0.15817   0.56867   0.00000  Uiso   1.00
C540   C     0.25167   0.18587   0.56791   0.00000  Uiso   1.00
C541   C     0.12922   0.15223   0.90491   0.00000  Uiso   1.00
C542   C     0.20953   0.31218   0.74868   0.00000  Uiso   1.00
C543   C     0.14154   0.16219   0.84936   0.00000  Uiso   1.00
C544   C     0.20948   0.02141   0.74866   0.00000  Uiso   1.00
C545   C     0.16660   0.04275   0.75003   0.00000  Uiso   1.00
C546   C     0.12377   0.02116   0.75147   0.00000  Uiso   1.00
C547   C     0.12381   0.31192   0.75155   0.00000  Uiso   1.00
C548   C     0.16670   0.29059   0.75013   0.00000  Uiso   1.00
C549   C     0.30066   0.19293   0.78151   0.00000  Uiso   1.00
C550   C     0.01682   0.19264   0.78153   0.00000  Uiso   1.00
C551   C     0.03306   0.14067   0.71837   0.00000  Uiso   1.00
C552   C     0.31679   0.14062   0.71844   0.00000  Uiso   1.00
C553   C     0.16662   0.08737   0.74997   0.00000  Uiso   1.00
C554   C     0.19233   0.16748   0.65053   0.00000  Uiso   1.00
C555   C     0.26462   0.18813   0.51459   0.00000  Uiso   1.00
C556   C     0.20645   0.16978   0.59473   0.00000  Uiso   1.00
C557   C     0.08068   0.14327   0.93088   0.00000  Uiso   1.00
C558   C     0.06633   0.13828   0.98391   0.00000  Uiso   1.00
C559   C     0.09947   0.14428   0.51231   0.00000  Uiso   1.00
Cu560  Cu    0.11978   0.16666   0.75000   0.00000  Uiso   1.00
Cu561  Cu    0.21355   0.16667   0.75000   0.00000  Uiso   1.00
H562   H     0.27663   0.19738   0.58841   0.00000  Uiso   1.00
H563   H     0.24300   0.03752   0.74748   0.00000  Uiso   1.00
H564   H     0.09025   0.03707   0.75259   0.00000  Uiso   1.00
H565   H     0.09028   0.29581   0.75274   0.00000  Uiso   1.00
H566   H     0.02936   0.21336   0.80668   0.00000  Uiso   1.00
H567   H     0.05836   0.11982   0.69301   0.00000  Uiso   1.00
H568   H     0.30477   0.11975   0.69316   0.00000  Uiso   1.00
H569   H     0.28584   0.16977   0.91320   0.00000  Uiso   1.00
H570   H     0.13820   0.14621   0.59108   0.00000  Uiso   1.00
H571   H     0.05348   0.14049   0.91013   0.00000  Uiso   1.00
H572   H     0.08463   0.14299   0.55347   0.00000  Uiso   1.00
H573   H     0.02863   0.13147   0.50354   0.00000  Uiso   1.00
H574   H     0.23216   0.14185   0.87051   0.00000  Uiso   1.00
H575   H     0.24307   0.29628   0.74747   0.00000  Uiso   1.00
N576   N     0.04931   0.16666   0.74998   0.00000  Uiso   1.00
N577   N     0.28402   0.16669   0.74999   0.00000  Uiso   1.00
O578   O     0.12708   0.22678   0.75000   0.00000  Uiso   1.00
O579   O     0.20627   0.22679   0.75000   0.00000  Uiso   1.00
O580   O     0.10775   0.16665   0.82549   0.00000  Uiso   1.00
O581   O     0.18694   0.16666   0.82549   0.00000  Uiso   1.00
O582   O     0.12706   0.10654   0.74999   0.00000  Uiso   1.00
O583   O     0.20625   0.10655   0.74999   0.00000  Uiso   1.00
O584   O     0.14640   0.16667   0.67451   0.00000  Uiso   1.00
O585   O     0.22559   0.16668   0.67451   0.00000  Uiso   1.00
C586   C     0.26842   0.22157   0.81525   0.00000  Uiso   1.00
N587   N     0.24276   0.24471   0.84257   0.00000  Uiso   1.00
N588   N     0.30889   0.20902   0.98898   0.00000  Uiso   1.00
H589   H     0.33149   0.18891   0.96293   0.00000  Uiso   1.00
H590   H     0.30021   0.23343   0.96824   0.00000  Uiso   1.00
C591   C     0.50003   0.24596   0.75008   0.00000  Uiso   1.00
C592   C     0.48261   0.15211   0.98760   0.00000  Uiso   1.00
C593   C     0.49816   0.15239   0.93304   0.00000  Uiso   1.00
C594   C     0.51750   0.16063   0.51507   0.00000  Uiso   1.00
C595   C     0.56573   0.17251   0.98782   0.00000  Uiso   1.00
C596   C     0.58137   0.16630   0.93488   0.00000  Uiso   1.00
C597   C     0.54894   0.15283   0.90899   0.00000  Uiso   1.00
C598   C     0.50605   0.15817   0.56867   0.00000  Uiso   1.00
C599   C     0.58500   0.18587   0.56791   0.00000  Uiso   1.00
C600   C     0.46255   0.15223   0.90491   0.00000  Uiso   1.00
C601   C     0.54286   0.31218   0.74868   0.00000  Uiso   1.00
C602   C     0.47487   0.16219   0.84936   0.00000  Uiso   1.00
C603   C     0.54281   0.02141   0.74866   0.00000  Uiso   1.00
C604   C     0.49994   0.04275   0.75003   0.00000  Uiso   1.00
C605   C     0.45710   0.02116   0.75147   0.00000  Uiso   1.00
C606   C     0.45714   0.31192   0.75155   0.00000  Uiso   1.00
C607   C     0.50003   0.29059   0.75013   0.00000  Uiso   1.00
C608   C     0.63400   0.19293   0.78151   0.00000  Uiso   1.00
C609   C     0.35016   0.19264   0.78153   0.00000  Uiso   1.00
C610   C     0.36639   0.14067   0.71837   0.00000  Uiso   1.00
C611   C     0.65013   0.14062   0.71844   0.00000  Uiso   1.00
C612   C     0.49996   0.08737   0.74997   0.00000  Uiso   1.00
C613   C     0.52567   0.16748   0.65053   0.00000  Uiso   1.00
C614   C     0.59795   0.18813   0.51459   0.00000  Uiso   1.00
C615   C     0.53978   0.16978   0.59473   0.00000  Uiso   1.00
C616   C     0.41401   0.14327   0.93088   0.00000  Uiso   1.00
C617   C     0.39967   0.13828   0.98391   0.00000  Uiso   1.00
C618   C     0.43280   0.14428   0.51231   0.00000  Uiso   1.00
Cu619  Cu    0.45311   0.16666   0.75000   0.00000  Uiso   1.00
Cu620  Cu    0.54689   0.16667   0.75000   0.00000  Uiso   1.00
H621   H     0.60996   0.19738   0.58841   0.00000  Uiso   1.00
H622   H     0.57633   0.03752   0.74748   0.00000  Uiso   1.00
H623   H     0.42358   0.03707   0.75259   0.00000  Uiso   1.00
H624   H     0.42362   0.29581   0.75274   0.00000  Uiso   1.00
H625   H     0.36270   0.21336   0.80668   0.00000  Uiso   1.00
H626   H     0.39170   0.11982   0.69301   0.00000  Uiso   1.00
H627   H     0.63810   0.11975   0.69316   0.00000  Uiso   1.00
H628   H     0.61918   0.16977   0.91320   0.00000  Uiso   1.00
H629   H     0.47153   0.14621   0.59108   0.00000  Uiso   1.00
H630   H     0.38681   0.14049   0.91013   0.00000  Uiso   1.00
H631   H     0.41797   0.14299   0.55347   0.00000  Uiso   1.00
H632   H     0.36196   0.13147   0.50354   0.00000  Uiso   1.00
H633   H     0.56550   0.14185   0.87051   0.00000  Uiso   1.00
H634   H     0.57641   0.29628   0.74747   0.00000  Uiso   1.00
N635   N     0.38265   0.16666   0.74998   0.00000  Uiso   1.00
N636   N     0.61735   0.16669   0.74999   0.00000  Uiso   1.00
O637   O     0.46042   0.22678   0.75000   0.00000  Uiso   1.00
O638   O     0.53961   0.22679   0.75000   0.00000  Uiso   1.00
O639   O     0.44108   0.16665   0.82549   0.00000  Uiso   1.00
O640   O     0.52027   0.16666   0.82549   0.00000  Uiso   1.00
O641   O     0.46039   0.10654   0.74999   0.00000  Uiso   1.00
O642   O     0.53958   0.10655   0.74999   0.00000  Uiso   1.00
O643   O     0.47973   0.16667   0.67451   0.00000  Uiso   1.00
O644   O     0.55892   0.16668   0.67451   0.00000  Uiso   1.00
C645   C     0.60175   0.22157   0.81525   0.00000  Uiso   1.00
N646   N     0.57610   0.24471   0.84257   0.00000  Uiso   1.00
N647   N     0.64222   0.20902   0.98898   0.00000  Uiso   1.00
H648   H     0.66482   0.18891   0.96293   0.00000  Uiso   1.00
H649   H     0.63354   0.23343   0.96824   0.00000  Uiso   1.00
C650   C     0.83337   0.24596   0.75008   0.00000  Uiso   1.00
C651   C     0.81594   0.15211   0.98760   0.00000  Uiso   1.00
C652   C     0.83150   0.15239   0.93304   0.00000  Uiso   1.00
C653   C     0.85084   0.16063   0.51507   0.00000  Uiso   1.00
C654   C     0.89906   0.17251   0.98782   0.00000  Uiso   1.00
C655   C     0.91470   0.16630   0.93488   0.00000  Uiso   1.00
C656   C     0.88227   0.15283   0.90899   0.00000  Uiso   1.00
C657   C     0.83938   0.15817   0.56867   0.00000  Uiso   1.00
C658   C     0.91834   0.18587   0.56791   0.00000  Uiso   1.00
C659   C     0.79589   0.15223   0.90491   0.00000  Uiso   1.00
C660   C     0.87620   0.31218   0.74868   0.00000  Uiso   1.00
C661   C     0.80820   0.16219   0.84936   0.00000  Uiso   1.00
C662   C     0.87615   0.02141   0.74866   0.00000  Uiso   1.00
C663   C     0.83327   0.04275   0.75003   0.00000  Uiso   1.00
C664   C     0.79044   0.02116   0.75147   0.00000  Uiso   1.00
C665   C     0.79047   0.31192   0.75155   0.00000  Uiso   1.00
C666   C     0.83336   0.29059   0.75013   0.00000  Uiso   1.00
C667   C     0.96733   0.19293   0.78151   0.00000  Uiso   1.00
C668   C     0.68349   0.19264   0.78153   0.00000  Uiso   1.00
C669   C     0.69973   0.14067   0.71837   0.00000  Uiso   1.00
C670   C     0.98346   0.14062   0.71844   0.00000  Uiso   1.00
C671   C     0.83329   0.08737   0.74997   0.00000  Uiso   1.00
C672   C     0.85900   0.16748   0.65053   0.00000  Uiso   1.00
C673   C     0.93128   0.18813   0.51459   0.00000  Uiso   1.00
C674   C     0.87311   0.16978   0.59473   0.00000  Uiso   1.00
C675   C     0.74734   0.14327   0.93088   0.00000  Uiso   1.00
C676   C     0.73300   0.13828   0.98391   0.00000  Uiso   1.00
C677   C     0.76614   0.14428   0.51231   0.00000  Uiso   1.00
Cu678  Cu    0.78645   0.16666   0.75000   0.00000  Uiso   1.00
Cu679  Cu    0.88022   0.16667   0.75000   0.00000  Uiso   1.00
H680   H     0.94330   0.19738   0.58841   0.00000  Uiso   1.00
H681   H     0.90967   0.03752   0.74748   0.00000  Uiso   1.00
H682   H     0.75692   0.03707   0.75259   0.00000  Uiso   1.00
H683   H     0.75695   0.29581   0.75274   0.00000  Uiso   1.00
H684   H     0.69603   0.21336   0.80668   0.00000  Uiso   1.00
H685   H     0.72503   0.11982   0.69301   0.00000  Uiso   1.00
H686   H     0.97143   0.11975   0.69316   0.00000  Uiso   1.00
H687   H     0.95251   0.16977   0.91320   0.00000  Uiso   1.00
H688   H     0.80487   0.14621   0.59108   0.00000  Uiso   1.00
H689   H     0.72015   0.14049   0.91013   0.00000  Uiso   1.00
H690   H     0.75130   0.14299   0.55347   0.00000  Uiso   1.00
H691   H     0.69529   0.13147   0.50354   0.00000  Uiso   1.00
H692   H     0.89883   0.14185   0.87051   0.00000  Uiso   1.00
H693   H     0.90974   0.29628   0.74747   0.00000  Uiso   1.00
N694   N     0.71598   0.16666   0.74998   0.00000  Uiso   1.00
N695   N     0.95069   0.16669   0.74999   0.00000  Uiso   1.00
O696   O     0.79375   0.22678   0.75000   0.00000  Uiso   1.00
O697   O     0.87294   0.22679   0.75000   0.00000  Uiso   1.00
O698   O     0.77441   0.16665   0.82549   0.00000  Uiso   1.00
O699   O     0.85360   0.16666   0.82549   0.00000  Uiso   1.00
O700   O     0.79373   0.10654   0.74999   0.00000  Uiso   1.00
O701   O     0.87292   0.10655   0.74999   0.00000  Uiso   1.00
O702   O     0.81306   0.16667   0.67451   0.00000  Uiso   1.00
O703   O     0.89225   0.16668   0.67451   0.00000  Uiso   1.00
C704   C     0.93508   0.22157   0.81525   0.00000  Uiso   1.00
N705   N     0.90943   0.24471   0.84257   0.00000  Uiso   1.00
N706   N     0.97555   0.20902   0.98898   0.00000  Uiso   1.00
H707   H     0.99815   0.18891   0.96293   0.00000  Uiso   1.00
H708   H     0.96687   0.23343   0.96824   0.00000  Uiso   1.00
C709   C     0.16670   0.57929   0.75008   0.00000  Uiso   1.00
C710   C     0.14928   0.48545   0.98760   0.00000  Uiso   1.00
C711   C     0.16483   0.48573   0.93304   0.00000  Uiso   1.00
C712   C     0.18417   0.49396   0.51507   0.00000  Uiso   1.00
C713   C     0.23239   0.50584   0.98782   0.00000  Uiso   1.00
C714   C     0.24803   0.49964   0.93488   0.00000  Uiso   1.00
C715   C     0.21560   0.48617   0.90899   0.00000  Uiso   1.00
C716   C     0.17272   0.49150   0.56867   0.00000  Uiso   1.00
C717   C     0.25167   0.51920   0.56791   0.00000  Uiso   1.00
C718   C     0.12922   0.48556   0.90491   0.00000  Uiso   1.00
C719   C     0.20953   0.64551   0.74868   0.00000  Uiso   1.00
C720   C     0.14154   0.49553   0.84936   0.00000  Uiso   1.00
C721   C     0.20948   0.35475   0.74866   0.00000  Uiso   1.00
C722   C     0.16660   0.37608   0.75003   0.00000  Uiso   1.00
C723   C     0.12377   0.35449   0.75147   0.00000  Uiso   1.00
C724   C     0.12381   0.64525   0.75155   0.00000  Uiso   1.00
C725   C     0.16670   0.62392   0.75013   0.00000  Uiso   1.00
C726   C     0.30066   0.52626   0.78151   0.00000  Uiso   1.00
C727   C     0.01682   0.52598   0.78153   0.00000  Uiso   1.00
C728   C     0.03306   0.47400   0.71837   0.00000  Uiso   1.00
C729   C     0.31679   0.47396   0.71844   0.00000  Uiso   1.00
C730   C     0.16662   0.42070   0.74997   0.00000  Uiso   1.00
C731   C     0.19233   0.50081   0.65053   0.00000  Uiso   1.00
C732   C     0.26462   0.52146   0.51459   0.00000  Uiso   1.00
C733   C     0.20645   0.50311   0.59473   0.00000  Uiso   1.00
C734   C     0.08068   0.47661   0.93088   0.00000  Uiso   1.00
C735   C     0.06633   0.47162   0.98391   0.00000  Uiso   1.00
C736   C     0.09947   0.47762   0.51231   0.00000  Uiso   1.00
Cu737  Cu    0.11978   0.49999   0.75000   0.00000  Uiso   1.00
Cu738  Cu    0.21355   0.50001   0.75000   0.00000  Uiso   1.00
H739   H     0.27663   0.53071   0.58841   0.00000  Uiso   1.00
H740   H     0.24300   0.37085   0.74748   0.00000  Uiso   1.00
H741   H     0.09025   0.37040   0.75259   0.00000  Uiso   1.00
H742   H     0.09028   0.62915   0.75274   0.00000  Uiso   1.00
H743   H     0.02936   0.54669   0.80668   0.00000  Uiso   1.00
H744   H     0.05836   0.45315   0.69301   0.00000  Uiso   1.00
H745   H     0.30477   0.45308   0.69316   0.00000  Uiso   1.00
H746   H     0.28584   0.50311   0.91320   0.00000  Uiso   1.00
H747   H     0.13820   0.47954   0.59108   0.00000  Uiso   1.00
H748   H     0.05348   0.47383   0.91013   0.00000  Uiso   1.00
H749   H     0.08463   0.47633   0.55347   0.00000  Uiso   1.00
H750   H     0.02863   0.46480   0.50354   0.00000  Uiso   1.00
H751   H     0.23216   0.47518   0.87051   0.00000  Uiso   1.00
H752   H     0.24307   0.62961   0.74747   0.00000  Uiso   1.00
N753   N     0.04931   0.49999   0.74998   0.00000  Uiso   1.00
N754   N     0.28402   0.50002   0.74999   0.00000  Uiso   1.00
O755   O     0.12708   0.56011   0.75000   0.00000  Uiso   1.00
O756   O     0.20627   0.56012   0.75000   0.00000  Uiso   1.00
O757   O     0.10775   0.49998   0.82549   0.00000  Uiso   1.00
O758   O     0.18694   0.49999   0.82549   0.00000  Uiso   1.00
O759   O     0.12706   0.43988   0.74999   0.00000  Uiso   1.00
O760   O     0.20625   0.43989   0.74999   0.00000  Uiso   1.00
O761   O     0.14640   0.50001   0.67451   0.00000  Uiso   1.00
O762   O     0.22559   0.50002   0.67451   0.00000  Uiso   1.00
C763   C     0.26842   0.55490   0.81525   0.00000  Uiso   1.00
N764   N     0.24276   0.57805   0.84257   0.00000  Uiso   1.00
N765   N     0.30889   0.54236   0.98898   0.00000  Uiso   1.00
H766   H     0.33149   0.52225   0.96293   0.00000  Uiso   1.00
H767   H     0.30021   0.56677   0.96824   0.00000  Uiso   1.00
C768   C     0.50003   0.57929   0.75008   0.00000  Uiso   1.00
C769   C     0.48261   0.48545   0.98760   0.00000  Uiso   1.00
C770   C     0.49816   0.48573   0.93304   0.00000  Uiso   1.00
C771   C     0.51750   0.49396   0.51507   0.00000  Uiso   1.00
C772   C     0.56573   0.50584   0.98782   0.00000  Uiso   1.00
C773   C     0.58137   0.49964   0.93488   0.00000  Uiso   1.00
C774   C     0.54894   0.48617   0.90899   0.00000  Uiso   1.00
C775   C     0.50605   0.49150   0.56867   0.00000  Uiso   1.00
C776   C     0.58500   0.51920   0.56791   0.00000  Uiso   1.00
C777   C     0.46255   0.48556   0.90491   0.00000  Uiso   1.00
C778   C     0.54286   0.64551   0.74868   0.00000  Uiso   1.00
C779   C     0.47487   0.49553   0.84936   0.00000  Uiso   1.00
C780   C     0.54281   0.35475   0.74866   0.00000  Uiso   1.00
C781   C     0.49994   0.37608   0.75003   0.00000  Uiso   1.00
C782   C     0.45710   0.35449   0.75147   0.00000  Uiso   1.00
C783   C     0.45714   0.64525   0.75155   0.00000  Uiso   1.00
C784   C     0.50003   0.62392   0.75013   0.00000  Uiso   1.00
C785   C     0.63400   0.52626   0.78151   0.00000  Uiso   1.00
C786   C     0.35016   0.52598   0.78153   0.00000  Uiso   1.00
C787   C     0.36639   0.47400   0.71837   0.00000  Uiso   1.00
C788   C     0.65013   0.47396   0.71844   0.00000  Uiso   1.00
C789   C     0.49996   0.42070   0.74997   0.00000  Uiso   1.00
C790   C     0.52567   0.50081   0.65053   0.00000  Uiso   1.00
C791   C     0.59795   0.52146   0.51459   0.00000  Uiso   1.00
C792   C     0.53978   0.50311   0.59473   0.00000  Uiso   1.00
C793   C     0.41401   0.47661   0.93088   0.00000  Uiso   1.00
C794   C     0.39967   0.47162   0.98391   0.00000  Uiso   1.00
C795   C     0.43280   0.47762   0.51231   0.00000  Uiso   1.00
Cu796  Cu    0.45311   0.49999   0.75000   0.00000  Uiso   1.00
Cu797  Cu    0.54689   0.50001   0.75000   0.00000  Uiso   1.00
H798   H     0.60996   0.53071   0.58841   0.00000  Uiso   1.00
H799   H     0.57633   0.37085   0.74748   0.00000  Uiso   1.00
H800   H     0.42358   0.37040   0.75259   0.00000  Uiso   1.00
H801   H     0.42362   0.62915   0.75274   0.00000  Uiso   1.00
H802   H     0.36270   0.54669   0.80668   0.00000  Uiso   1.00
H803   H     0.39170   0.45315   0.69301   0.00000  Uiso   1.00
H804   H     0.63810   0.45308   0.69316   0.00000  Uiso   1.00
H805   H     0.61918   0.50311   0.91320   0.00000  Uiso   1.00
H806   H     0.47153   0.47954   0.59108   0.00000  Uiso   1.00
H807   H     0.38681   0.47383   0.91013   0.00000  Uiso   1.00
H808   H     0.41797   0.47633   0.55347   0.00000  Uiso   1.00
H809   H     0.36196   0.46480   0.50354   0.00000  Uiso   1.00
H810   H     0.56550   0.47518   0.87051   0.00000  Uiso   1.00
H811   H     0.57641   0.62961   0.74747   0.00000  Uiso   1.00
N812   N     0.38265   0.49999   0.74998   0.00000  Uiso   1.00
N813   N     0.61735   0.50002   0.74999   0.00000  Uiso   1.00
O814   O     0.46042   0.56011   0.75000   0.00000  Uiso   1.00
O815   O     0.53961   0.56012   0.75000   0.00000  Uiso   1.00
O816   O     0.44108   0.49998   0.82549   0.00000  Uiso   1.00
O817   O     0.52027   0.49999   0.82549   0.00000  Uiso   1.00
O818   O     0.46039   0.43988   0.74999   0.00000  Uiso   1.00
O819   O     0.53958   0.43989   0.74999   0.00000  Uiso   1.00
O820   O     0.47973   0.50001   0.67451   0.00000  Uiso   1.00
O821   O     0.55892   0.50002   0.67451   0.00000  Uiso   1.00
C822   C     0.60175   0.55490   0.81525   0.00000  Uiso   1.00
N823   N     0.57610   0.57805   0.84257   0.00000  Uiso   1.00
N824   N     0.64222   0.54236   0.98898   0.00000  Uiso   1.00
H825   H     0.66482   0.52225   0.96293   0.00000  Uiso   1.00
H826   H     0.63354   0.56677   0.96824   0.00000  Uiso   1.00
C827   C     0.83337   0.57929   0.75008   0.00000  Uiso   1.00
C828   C     0.81594   0.48545   0.98760   0.00000  Uiso   1.00
C829   C     0.83150   0.48573   0.93304   0.00000  Uiso   1.00
C830   C     0.85084   0.49396   0.51507   0.00000  Uiso   1.00
C831   C     0.89906   0.50584   0.98782   0.00000  Uiso   1.00
C832   C     0.91470   0.49964   0.93488   0.00000  Uiso   1.00
C833   C     0.88227   0.48617   0.90899   0.00000  Uiso   1.00
C834   C     0.83938   0.49150   0.56867   0.00000  Uiso   1.00
C835   C     0.91834   0.51920   0.56791   0.00000  Uiso   1.00
C836   C     0.79589   0.48556   0.90491   0.00000  Uiso   1.00
C837   C     0.87620   0.64551   0.74868   0.00000  Uiso   1.00
C838   C     0.80820   0.49553   0.84936   0.00000  Uiso   1.00
C839   C     0.87615   0.35475   0.74866   0.00000  Uiso   1.00
C840   C     0.83327   0.37608   0.75003   0.00000  Uiso   1.00
C841   C     0.79044   0.35449   0.75147   0.00000  Uiso   1.00
C842   C     0.79047   0.64525   0.75155   0.00000  Uiso   1.00
C843   C     0.83336   0.62392   0.75013   0.00000  Uiso   1.00
C844   C     0.96733   0.52626   0.78151   0.00000  Uiso   1.00
C845   C     0.68349   0.52598   0.78153   0.00000  Uiso   1.00
C846   C     0.69973   0.47400   0.71837   0.00000  Uiso   1.00
C847   C     0.98346   0.47396   0.71844   0.00000  Uiso   1.00
C848   C     0.83329   0.42070   0.74997   0.00000  Uiso   1.00
C849   C     0.85900   0.50081   0.65053   0.00000  Uiso   1.00
C850   C     0.93128   0.52146   0.51459   0.00000  Uiso   1.00
C851   C     0.87311   0.50311   0.59473   0.00000  Uiso   1.00
C852   C     0.74734   0.47661   0.93088   0.00000  Uiso   1.00
C853   C     0.73300   0.47162   0.98391   0.00000  Uiso   1.00
C854   C     0.76614   0.47762   0.51231   0.00000  Uiso   1.00
Cu855  Cu    0.78645   0.49999   0.75000   0.00000  Uiso   1.00
Cu856  Cu    0.88022   0.50001   0.75000   0.00000  Uiso   1.00
H857   H     0.94330   0.53071   0.58841   0.00000  Uiso   1.00
H858   H     0.90967   0.37085   0.74748   0.00000  Uiso   1.00
H859   H     0.75692   0.37040   0.75259   0.00000  Uiso   1.00
H860   H     0.75695   0.62915   0.75274   0.00000  Uiso   1.00
H861   H     0.69603   0.54669   0.80668   0.00000  Uiso   1.00
H862   H     0.72503   0.45315   0.69301   0.00000  Uiso   1.00
H863   H     0.97143   0.45308   0.69316   0.00000  Uiso   1.00
H864   H     0.95251   0.50311   0.91320   0.00000  Uiso   1.00
H865   H     0.80487   0.47954   0.59108   0.00000  Uiso   1.00
H866   H     0.72015   0.47383   0.91013   0.00000  Uiso   1.00
H867   H     0.75130   0.47633   0.55347   0.00000  Uiso   1.00
H868   H     0.69529   0.46480   0.50354   0.00000  Uiso   1.00
H869   H     0.89883   0.47518   0.87051   0.00000  Uiso   1.00
H870   H     0.90974   0.62961   0.74747   0.00000  Uiso   1.00
N871   N     0.71598   0.49999   0.74998   0.00000  Uiso   1.00
N872   N     0.95069   0.50002   0.74999   0.00000  Uiso   1.00
O873   O     0.79375   0.56011   0.75000   0.00000  Uiso   1.00
O874   O     0.87294   0.56012   0.75000   0.00000  Uiso   1.00
O875   O     0.77441   0.49998   0.82549   0.00000  Uiso   1.00
O876   O     0.85360   0.49999   0.82549   0.00000  Uiso   1.00
O877   O     0.79373   0.43988   0.74999   0.00000  Uiso   1.00
O878   O     0.87292   0.43989   0.74999   0.00000  Uiso   1.00
O879   O     0.81306   0.50001   0.67451   0.00000  Uiso   1.00
O880   O     0.89225   0.50002   0.67451   0.00000  Uiso   1.00
C881   C     0.93508   0.55490   0.81525   0.00000  Uiso   1.00
N882   N     0.90943   0.57805   0.84257   0.00000  Uiso   1.00
N883   N     0.97555   0.54236   0.98898   0.00000  Uiso   1.00
H884   H     0.99815   0.52225   0.96293   0.00000  Uiso   1.00
H885   H     0.96687   0.56677   0.96824   0.00000  Uiso   1.00
C886   C     0.16670   0.91263   0.75008   0.00000  Uiso   1.00
C887   C     0.14928   0.81878   0.98760   0.00000  Uiso   1.00
C888   C     0.16483   0.81906   0.93304   0.00000  Uiso   1.00
C889   C     0.18417   0.82729   0.51507   0.00000  Uiso   1.00
C890   C     0.23239   0.83917   0.98782   0.00000  Uiso   1.00
C891   C     0.24803   0.83297   0.93488   0.00000  Uiso   1.00
C892   C     0.21560   0.81950   0.90899   0.00000  Uiso   1.00
C893   C     0.17272   0.82483   0.56867   0.00000  Uiso   1.00
C894   C     0.25167   0.85254   0.56791   0.00000  Uiso   1.00
C895   C     0.12922   0.81889   0.90491   0.00000  Uiso   1.00
C896   C     0.20953   0.97884   0.74868   0.00000  Uiso   1.00
C897   C     0.14154   0.82886   0.84936   0.00000  Uiso   1.00
C898   C     0.20948   0.68808   0.74866   0.00000  Uiso   1.00
C899   C     0.16660   0.70941   0.75003   0.00000  Uiso   1.00
C900   C     0.12377   0.68783   0.75147   0.00000  Uiso   1.00
C901   C     0.12381   0.97859   0.75155   0.00000  Uiso   1.00
C902   C     0.16670   0.95725   0.75013   0.00000  Uiso   1.00
C903   C     0.30066   0.85960   0.78151   0.00000  Uiso   1.00
C904   C     0.01682   0.85931   0.78153   0.00000  Uiso   1.00
C905   C     0.03306   0.80733   0.71837   0.00000  Uiso   1.00
C906   C     0.31679   0.80729   0.71844   0.00000  Uiso   1.00
C907   C     0.16662   0.75404   0.74997   0.00000  Uiso   1.00
C908   C     0.19233   0.83415   0.65053   0.00000  Uiso   1.00
C909   C     0.26462   0.85479   0.51459   0.00000  Uiso   1.00
C910   C     0.20645   0.83645   0.59473   0.00000  Uiso   1.00
C911   C     0.08068   0.80994   0.93088   0.00000  Uiso   1.00
C912   C     0.06633   0.80495   0.98391   0.00000  Uiso   1.00
C913   C     0.09947   0.81095   0.51231   0.00000  Uiso   1.00
Cu914  Cu    0.11978   0.83333   0.75000   0.00000  Uiso   1.00
Cu915  Cu    0.21355   0.83334   0.75000   0.00000  Uiso   1.00
H916   H     0.27663   0.86404   0.58841   0.00000  Uiso   1.00
H917   H     0.24300   0.70419   0.74748   0.00000  Uiso   1.00
H918   H     0.09025   0.70374   0.75259   0.00000  Uiso   1.00
H919   H     0.09028   0.96248   0.75274   0.00000  Uiso   1.00
H920   H     0.02936   0.88002   0.80668   0.00000  Uiso   1.00
H921   H     0.05836   0.78648   0.69301   0.00000  Uiso   1.00
H922   H     0.30477   0.78642   0.69316   0.00000  Uiso   1.00
H923   H     0.28584   0.83644   0.91320   0.00000  Uiso   1.00
H924   H     0.13820   0.81287   0.59108   0.00000  Uiso   1.00
H925   H     0.05348   0.80716   0.91013   0.00000  Uiso   1.00
H926   H     0.08463   0.80966   0.55347   0.00000  Uiso   1.00
H927   H     0.02863   0.79813   0.50354   0.00000  Uiso   1.00
H928   H     0.23216   0.80852   0.87051   0.00000  Uiso   1.00
H929   H     0.24307   0.96294   0.74747   0.00000  Uiso   1.00
N930   N     0.04931   0.83332   0.74998   0.00000  Uiso   1.00
N931   N     0.28402   0.83335   0.74999   0.00000  Uiso   1.00
O932   O     0.12708   0.89345   0.75000   0.00000  Uiso   1.00
O933   O     0.20627   0.89346   0.75000   0.00000  Uiso   1.00
O934   O     0.10775   0.83332   0.82549   0.00000  Uiso   1.00
O935   O     0.18694   0.83333   0.82549   0.00000  Uiso   1.00
O936   O     0.12706   0.77321   0.74999   0.00000  Uiso   1.00
O937   O     0.20625   0.77322   0.74999   0.00000  Uiso   1.00
O938   O     0.14640   0.83334   0.67451   0.00000  Uiso   1.00
O939   O     0.22559   0.83335   0.67451   0.00000  Uiso   1.00
C940   C     0.26842   0.88824   0.81525   0.00000  Uiso   1.00
N941   N     0.24276   0.91138   0.84257   0.00000  Uiso   1.00
N942   N     0.30889   0.87569   0.98898   0.00000  Uiso   1.00
H943   H     0.33149   0.85558   0.96293   0.00000  Uiso   1.00
H944   H     0.30021   0.90010   0.96824   0.00000  Uiso   1.00
C945   C     0.50003   0.91263   0.75008   0.00000  Uiso   1.00
C946   C     0.48261   0.81878   0.98760   0.00000  Uiso   1.00
C947   C     0.49816   0.81906   0.93304   0.00000  Uiso   1.00
C948   C     0.51750   0.82729   0.51507   0.00000  Uiso   1.00
C949   C     0.56573   0.83917   0.98782   0.00000  Uiso   1.00
C950   C     0.58137   0.83297   0.93488   0.00000  Uiso   1.00
C951   C     0.54894   0.81950   0.90899   0.00000  Uiso   1.00
C952   C     0.50605   0.82483   0.56867   0.00000  Uiso   1.00
C953   C     0.58500   0.85254   0.56791   0.00000  Uiso   1.00
C954   C     0.46255   0.81889   0.90491   0.00000  Uiso   1.00
C955   C     0.54286   0.97884   0.74868   0.00000  Uiso   1.00
C956   C     0.47487   0.82886   0.84936   0.00000  Uiso   1.00
C957   C     0.54281   0.68808   0.74866   0.00000  Uiso   1.00
C958   C     0.49994   0.70941   0.75003   0.00000  Uiso   1.00
C959   C     0.45710   0.68783   0.75147   0.00000  Uiso   1.00
C960   C     0.45714   0.97859   0.75155   0.00000  Uiso   1.00
C961   C     0.50003   0.95725   0.75013   0.00000  Uiso   1.00
C962   C     0.63400   0.85960   0.78151   0.00000  Uiso   1.00
C963   C     0.35016   0.85931   0.78153   0.00000  Uiso   1.00
C964   C     0.36639   0.80733   0.71837   0.00000  Uiso   1.00
C965   C     0.65013   0.80729   0.71844   0.00000  Uiso   1.00
C966   C     0.49996   0.75404   0.74997   0.00000  Uiso   1.00
C967   C     0.52567   0.83415   0.65053   0.00000  Uiso   1.00
C968   C     0.59795   0.85479   0.51459   0.00000  Uiso   1.00
C969   C     0.53978   0.83645   0.59473   0.00000  Uiso   1.00
C970   C     0.41401   0.80994   0.93088   0.00000  Uiso   1.00
C971   C     0.39967   0.80495   0.98391   0.00000  Uiso   1.00
C972   C     0.43280   0.81095   0.51231   0.00000  Uiso   1.00
Cu973  Cu    0.45311   0.83333   0.75000   0.00000  Uiso   1.00
Cu974  Cu    0.54689   0.83334   0.75000   0.00000  Uiso   1.00
H975   H     0.60996   0.86404   0.58841   0.00000  Uiso   1.00
H976   H     0.57633   0.70419   0.74748   0.00000  Uiso   1.00
H977   H     0.42358   0.70374   0.75259   0.00000  Uiso   1.00
H978   H     0.42362   0.96248   0.75274   0.00000  Uiso   1.00
H979   H     0.36270   0.88002   0.80668   0.00000  Uiso   1.00
H980   H     0.39170   0.78648   0.69301   0.00000  Uiso   1.00
H981   H     0.63810   0.78642   0.69316   0.00000  Uiso   1.00
H982   H     0.61918   0.83644   0.91320   0.00000  Uiso   1.00
H983   H     0.47153   0.81287   0.59108   0.00000  Uiso   1.00
H984   H     0.38681   0.80716   0.91013   0.00000  Uiso   1.00
H985   H     0.41797   0.80966   0.55347   0.00000  Uiso   1.00
H986   H     0.36196   0.79813   0.50354   0.00000  Uiso   1.00
H987   H     0.56550   0.80852   0.87051   0.00000  Uiso   1.00
H988   H     0.57641   0.96294   0.74747   0.00000  Uiso   1.00
N989   N     0.38265   0.83332   0.74998   0.00000  Uiso   1.00
N990   N     0.61735   0.83335   0.74999   0.00000  Uiso   1.00
O991   O     0.46042   0.89345   0.75000   0.00000  Uiso   1.00
O992   O     0.53961   0.89346   0.75000   0.00000  Uiso   1.00
O993   O     0.44108   0.83332   0.82549   0.00000  Uiso   1.00
O994   O     0.52027   0.83333   0.82549   0.00000  Uiso   1.00
O995   O     0.46039   0.77321   0.74999   0.00000  Uiso   1.00
O996   O     0.53958   0.77322   0.74999   0.00000  Uiso   1.00
O997   O     0.47973   0.83334   0.67451   0.00000  Uiso   1.00
O998   O     0.55892   0.83335   0.67451   0.00000  Uiso   1.00
C999   C     0.60175   0.88824   0.81525   0.00000  Uiso   1.00
N1000  N     0.57610   0.91138   0.84257   0.00000  Uiso   1.00
N1001  N     0.64222   0.87569   0.98898   0.00000  Uiso   1.00
H1002  H     0.66482   0.85558   0.96293   0.00000  Uiso   1.00
H1003  H     0.63354   0.90010   0.96824   0.00000  Uiso   1.00
C1004  C     0.83337   0.91263   0.75008   0.00000  Uiso   1.00
C1005  C     0.81594   0.81878   0.98760   0.00000  Uiso   1.00
C1006  C     0.83150   0.81906   0.93304   0.00000  Uiso   1.00
C1007  C     0.85084   0.82729   0.51507   0.00000  Uiso   1.00
C1008  C     0.89906   0.83917   0.98782   0.00000  Uiso   1.00
C1009  C     0.91470   0.83297   0.93488   0.00000  Uiso   1.00
C1010  C     0.88227   0.81950   0.90899   0.00000  Uiso   1.00
C1011  C     0.83938   0.82483   0.56867   0.00000  Uiso   1.00
C1012  C     0.91834   0.85254   0.56791   0.00000  Uiso   1.00
C1013  C     0.79589   0.81889   0.90491   0.00000  Uiso   1.00
C1014  C     0.87620   0.97884   0.74868   0.00000  Uiso   1.00
C1015  C     0.80820   0.82886   0.84936   0.00000  Uiso   1.00
C1016  C     0.87615   0.68808   0.74866   0.00000  Uiso   1.00
C1017  C     0.83327   0.70941   0.75003   0.00000  Uiso   1.00
C1018  C     0.79044   0.68783   0.75147   0.00000  Uiso   1.00
C1019  C     0.79047   0.97859   0.75155   0.00000  Uiso   1.00
C1020  C     0.83336   0.95725   0.75013   0.00000  Uiso   1.00
C1021  C     0.96733   0.85960   0.78151   0.00000  Uiso   1.00
C1022  C     0.68349   0.85931   0.78153   0.00000  Uiso   1.00
C1023  C     0.69973   0.80733   0.71837   0.00000  Uiso   1.00
C1024  C     0.98346   0.80729   0.71844   0.00000  Uiso   1.00
C1025  C     0.83329   0.75404   0.74997   0.00000  Uiso   1.00
C1026  C     0.85900   0.83415   0.65053   0.00000  Uiso   1.00
C1027  C     0.93128   0.85479   0.51459   0.00000  Uiso   1.00
C1028  C     0.87311   0.83645   0.59473   0.00000  Uiso   1.00
C1029  C     0.74734   0.80994   0.93088   0.00000  Uiso   1.00
C1030  C     0.73300   0.80495   0.98391   0.00000  Uiso   1.00
C1031  C     0.76614   0.81095   0.51231   0.00000  Uiso   1.00
Cu1032 Cu    0.78645   0.83333   0.75000   0.00000  Uiso   1.00
Cu1033 Cu    0.88022   0.83334   0.75000   0.00000  Uiso   1.00
H1034  H     0.94330   0.86404   0.58841   0.00000  Uiso   1.00
H1035  H     0.90967   0.70419   0.74748   0.00000  Uiso   1.00
H1036  H     0.75692   0.70374   0.75259   0.00000  Uiso   1.00
H1037  H     0.75695   0.96248   0.75274   0.00000  Uiso   1.00
H1038  H     0.69603   0.88002   0.80668   0.00000  Uiso   1.00
H1039  H     0.72503   0.78648   0.69301   0.00000  Uiso   1.00
H1040  H     0.97143   0.78642   0.69316   0.00000  Uiso   1.00
H1041  H     0.95251   0.83644   0.91320   0.00000  Uiso   1.00
H1042  H     0.80487   0.81287   0.59108   0.00000  Uiso   1.00
H1043  H     0.72015   0.80716   0.91013   0.00000  Uiso   1.00
H1044  H     0.75130   0.80966   0.55347   0.00000  Uiso   1.00
H1045  H     0.69529   0.79813   0.50354   0.00000  Uiso   1.00
H1046  H     0.89883   0.80852   0.87051   0.00000  Uiso   1.00
H1047  H     0.90974   0.96294   0.74747   0.00000  Uiso   1.00
N1048  N     0.71598   0.83332   0.74998   0.00000  Uiso   1.00
N1049  N     0.95069   0.83335   0.74999   0.00000  Uiso   1.00
O1050  O     0.79375   0.89345   0.75000   0.00000  Uiso   1.00
O1051  O     0.87294   0.89346   0.75000   0.00000  Uiso   1.00
O1052  O     0.77441   0.83332   0.82549   0.00000  Uiso   1.00
O1053  O     0.85360   0.83333   0.82549   0.00000  Uiso   1.00
O1054  O     0.79373   0.77321   0.74999   0.00000  Uiso   1.00
O1055  O     0.87292   0.77322   0.74999   0.00000  Uiso   1.00
O1056  O     0.81306   0.83334   0.67451   0.00000  Uiso   1.00
O1057  O     0.89225   0.83335   0.67451   0.00000  Uiso   1.00
C1058  C     0.93508   0.88824   0.81525   0.00000  Uiso   1.00
N1059  N     0.90943   0.91138   0.84257   0.00000  Uiso   1.00
N1060  N     0.97555   0.87569   0.98898   0.00000  Uiso   1.00
H1061  H     0.99815   0.85558   0.96293   0.00000  Uiso   1.00
H1062  H     0.96687   0.90010   0.96824   0.00000  Uiso   1.00
loop_
_geom_bond_atom_site_label_1
_geom_bond_atom_site_label_2
_geom_bond_distance
_geom_bond_site_symmetry_2
_ccdc_geom_bond_type
C1     O48     1.293   .     A
C1     C17     1.450   .     S
C1     O47     1.292   .     A
C2     C3      1.419   .     A
C2     C535    1.427   .     S
C2     C559    1.416   .     S
C3     C10     1.433   .     A
C3     C7      1.415   .     A
C4     C8      1.398   .     A
C4     C533    1.427   1_554 S
C4     C536    1.423   1_554 S
C5     C6      1.390   .     A
C5     C535    1.423   .     S
C5     C555    1.414   .     S
C6     C7      1.379   .     A
C6     H38     1.082   .     S
C7     H43     1.075   .     S
C8     H39     1.076   .     S
C8     C25     1.395   .     A
C9     C25     1.396   .     A
C9     C24     1.389   .     A
C9     H31     1.084   .     S
C10    C12     1.484   .     S
C10    C26     1.399   .     A
C11    H44     1.083   .     S
C11    C17     1.401   .     A
C11    C190    1.383   .     S
C12    O50     1.286   .     A
C12    O49     1.314   .     A
C13    H32     1.083   .     S
C13    C14     1.402   .     A
C13    C365    1.383   1_545 S
C14    C22     1.450   .     S
C14    C15     1.401   .     A
C15    H33     1.083   .     S
C15    C370    1.384   1_545 S
C16    C17     1.402   .     A
C16    H34     1.083   .     S
C16    C192    1.384   .     S
C18    C55     1.438   .     S
C18    N46     1.377   .     A
C18    C78     1.416   .     S
C19    N45     1.361   .     A
C19    H35     1.083   .     S
C19    C136    1.416   1_455 S
C20    N45     1.368   .     A
C20    H36     1.082   .     S
C20    C139    1.418   1_455 S
C21    H37     1.082   .     S
C21    N46     1.367   .     A
C21    C79     1.418   .     S
C22    O52     1.292   .     A
C22    O51     1.293   .     A
C23    O53     1.292   .     A
C23    C25     1.453   .     S
C23    O54     1.294   .     A
C24    C536    1.414   1_554 S
C24    N588    1.433   1_554 S
C26    H40     1.083   .     S
C26    C27     1.389   .     A
C27    C559    1.390   .     S
C27    H573    1.083   .     S
C28    H41     1.077   .     S
C28    C558    1.390   1_554 S
C28    C533    1.416   1_554 S
Cu29   O49     1.975   .     S
Cu29   Cu30    2.682   .     S
Cu29   O47     1.964   .     S
Cu29   O51     1.965   .     S
Cu29   N45     2.015   .     S
Cu29   O53     1.971   .     S
Cu30   O50     1.971   .     S
Cu30   O54     1.975   .     S
Cu30   O48     1.965   .     S
Cu30   N46     2.015   .     S
Cu30   O52     1.964   .     S
H42    C558    1.083   1_554 S
C55    N56     1.158   .     T
N57    H59     1.046   .     S
N57    H58     1.040   .     S
N57    C555    1.433   .     S
C60    O107    1.293   .     A
C60    C76     1.450   .     S
C60    O106    1.292   .     A
C61    C62     1.419   .     A
C61    C594    1.427   .     S
C61    C618    1.416   .     S
C62    C69     1.433   .     A
C62    C66     1.415   .     A
C63    C67     1.398   .     A
C63    C592    1.427   1_554 S
C63    C595    1.423   1_554 S
C64    C65     1.390   .     A
C64    C594    1.423   .     S
C64    C614    1.414   .     S
C65    C66     1.379   .     A
C65    H97     1.082   .     S
C66    H102    1.075   .     S
C67    H98     1.076   .     S
C67    C84     1.395   .     A
C68    C84     1.396   .     A
C68    C83     1.389   .     A
C68    H90     1.084   .     S
C69    C71     1.484   .     S
C69    C85     1.399   .     A
C70    H103    1.083   .     S
C70    C76     1.401   .     A
C70    C249    1.383   .     S
C71    O109    1.286   .     A
C71    O108    1.314   .     A
C72    H91     1.083   .     S
C72    C73     1.402   .     A
C72    C424    1.383   1_545 S
C73    C81     1.450   .     S
C73    C74     1.401   .     A
C74    H92     1.083   .     S
C74    C429    1.384   1_545 S
C75    C76     1.402   .     A
C75    H93     1.083   .     S
C75    C251    1.384   .     S
C77    C114    1.438   .     S
C77    N105    1.377   .     A
C77    C137    1.416   .     S
C78    N104    1.361   .     A
C78    H94     1.083   .     S
C79    N104    1.368   .     A
C79    H95     1.082   .     S
C80    H96     1.082   .     S
C80    N105    1.367   .     A
C80    C138    1.418   .     S
C81    O111    1.292   .     A
C81    O110    1.293   .     A
C82    O112    1.292   .     A
C82    C84     1.453   .     S
C82    O113    1.294   .     A
C83    C595    1.414   1_554 S
C83    N647    1.433   1_554 S
C85    H99     1.083   .     S
C85    C86     1.389   .     A
C86    C618    1.390   .     S
C86    H632    1.083   .     S
C87    H100    1.077   .     S
C87    C617    1.390   1_554 S
C87    C592    1.416   1_554 S
Cu88   O108    1.975   .     S
Cu88   Cu89    2.682   .     S
Cu88   O106    1.964   .     S
Cu88   O110    1.965   .     S
Cu88   N104    2.015   .     S
Cu88   O112    1.971   .     S
Cu89   O109    1.971   .     S
Cu89   O113    1.975   .     S
Cu89   O107    1.965   .     S
Cu89   N105    2.015   .     S
Cu89   O111    1.964   .     S
H101   C617    1.083   1_554 S
C114   N115    1.158   .     T
N116   H118    1.046   .     S
N116   H117    1.040   .     S
N116   C614    1.433   .     S
C119   O166    1.293   .     A
C119   C135    1.450   .     S
C119   O165    1.292   .     A
C120   C121    1.419   .     A
C120   C653    1.427   .     S
C120   C677    1.416   .     S
C121   C128    1.433   .     A
C121   C125    1.415   .     A
C122   C126    1.398   .     A
C122   C651    1.427   1_554 S
C122   C654    1.423   1_554 S
C123   C124    1.390   .     A
C123   C653    1.423   .     S
C123   C673    1.414   .     S
C124   C125    1.379   .     A
C124   H156    1.082   .     S
C125   H161    1.075   .     S
C126   H157    1.076   .     S
C126   C143    1.395   .     A
C127   C143    1.396   .     A
C127   C142    1.389   .     A
C127   H149    1.084   .     S
C128   C130    1.484   .     S
C128   C144    1.399   .     A
C129   H162    1.083   .     S
C129   C135    1.401   .     A
C129   C308    1.383   .     S
C130   O168    1.286   .     A
C130   O167    1.314   .     A
C131   H150    1.083   .     S
C131   C132    1.402   .     A
C131   C483    1.383   1_545 S
C132   C140    1.450   .     S
C132   C133    1.401   .     A
C133   H151    1.083   .     S
C133   C488    1.384   1_545 S
C134   C135    1.402   .     A
C134   H152    1.083   .     S
C134   C310    1.384   .     S
C136   C173    1.438   .     S
C136   N164    1.377   .     A
C136   C19     1.416   1_655 S
C137   N163    1.361   .     A
C137   H153    1.083   .     S
C138   N163    1.368   .     A
C138   H154    1.082   .     S
C139   H155    1.082   .     S
C139   N164    1.367   .     A
C139   C20     1.418   1_655 S
C140   O170    1.292   .     A
C140   O169    1.293   .     A
C141   O171    1.292   .     A
C141   C143    1.453   .     S
C141   O172    1.294   .     A
C142   C654    1.414   1_554 S
C142   N706    1.433   1_554 S
C144   H158    1.083   .     S
C144   C145    1.389   .     A
C145   C677    1.390   .     S
C145   H691    1.083   .     S
C146   H159    1.077   .     S
C146   C676    1.390   1_554 S
C146   C651    1.416   1_554 S
Cu147  O167    1.975   .     S
Cu147  Cu148   2.682   .     S
Cu147  O165    1.964   .     S
Cu147  O169    1.965   .     S
Cu147  N163    2.015   .     S
Cu147  O171    1.971   .     S
Cu148  O168    1.971   .     S
Cu148  O172    1.975   .     S
Cu148  O166    1.965   .     S
Cu148  N164    2.015   .     S
Cu148  O170    1.964   .     S
H160   C676    1.083   1_554 S
C173   N174    1.158   .     T
N175   H177    1.046   .     S
N175   H176    1.040   .     S
N175   C673    1.433   .     S
C178   O225    1.293   .     A
C178   C194    1.450   .     S
C178   O224    1.292   .     A
C179   C180    1.419   .     A
C179   C712    1.427   .     S
C179   C736    1.416   .     S
C180   C187    1.433   .     A
C180   C184    1.415   .     A
C181   C185    1.398   .     A
C181   C710    1.427   1_554 S
C181   C713    1.423   1_554 S
C182   C183    1.390   .     A
C182   C712    1.423   .     S
C182   C732    1.414   .     S
C183   C184    1.379   .     A
C183   H215    1.082   .     S
C184   H220    1.075   .     S
C185   H216    1.076   .     S
C185   C202    1.395   .     A
C186   C202    1.396   .     A
C186   C201    1.389   .     A
C186   H208    1.084   .     S
C187   C189    1.484   .     S
C187   C203    1.399   .     A
C188   H221    1.083   .     S
C188   C194    1.401   .     A
C188   C367    1.383   .     S
C189   O227    1.286   .     A
C189   O226    1.314   .     A
C190   H209    1.083   .     S
C190   C191    1.402   .     A
C191   C199    1.450   .     S
C191   C192    1.401   .     A
C192   H210    1.083   .     S
C193   C194    1.402   .     A
C193   H211    1.083   .     S
C193   C369    1.384   .     S
C195   C232    1.438   .     S
C195   N223    1.377   .     A
C195   C255    1.416   .     S
C196   N222    1.361   .     A
C196   H212    1.083   .     S
C196   C313    1.416   1_455 S
C197   N222    1.368   .     A
C197   H213    1.082   .     S
C197   C316    1.418   1_455 S
C198   H214    1.082   .     S
C198   N223    1.367   .     A
C198   C256    1.418   .     S
C199   O229    1.292   .     A
C199   O228    1.293   .     A
C200   O230    1.292   .     A
C200   C202    1.453   .     S
C200   O231    1.294   .     A
C201   C713    1.414   1_554 S
C201   N765    1.433   1_554 S
C203   H217    1.083   .     S
C203   C204    1.389   .     A
C204   C736    1.390   .     S
C204   H750    1.083   .     S
C205   H218    1.077   .     S
C205   C735    1.390   1_554 S
C205   C710    1.416   1_554 S
Cu206  O226    1.975   .     S
Cu206  Cu207   2.682   .     S
Cu206  O224    1.964   .     S
Cu206  O228    1.965   .     S
Cu206  N222    2.015   .     S
Cu206  O230    1.971   .     S
Cu207  O227    1.971   .     S
Cu207  O231    1.975   .     S
Cu207  O225    1.965   .     S
Cu207  N223    2.015   .     S
Cu207  O229    1.964   .     S
H219   C735    1.083   1_554 S
C232   N233    1.158   .     T
N234   H236    1.046   .     S
N234   H235    1.040   .     S
N234   C732    1.433   .     S
C237   O284    1.293   .     A
C237   C253    1.450   .     S
C237   O283    1.292   .     A
C238   C239    1.419   .     A
C238   C771    1.427   .     S
C238   C795    1.416   .     S
C239   C246    1.433   .     A
C239   C243    1.415   .     A
C240   C244    1.398   .     A
C240   C769    1.427   1_554 S
C240   C772    1.423   1_554 S
C241   C242    1.390   .     A
C241   C771    1.423   .     S
C241   C791    1.414   .     S
C242   C243    1.379   .     A
C242   H274    1.082   .     S
C243   H279    1.075   .     S
C244   H275    1.076   .     S
C244   C261    1.395   .     A
C245   C261    1.396   .     A
C245   C260    1.389   .     A
C245   H267    1.084   .     S
C246   C248    1.484   .     S
C246   C262    1.399   .     A
C247   H280    1.083   .     S
C247   C253    1.401   .     A
C247   C426    1.383   .     S
C248   O286    1.286   .     A
C248   O285    1.314   .     A
C249   H268    1.083   .     S
C249   C250    1.402   .     A
C250   C258    1.450   .     S
C250   C251    1.401   .     A
C251   H269    1.083   .     S
C252   C253    1.402   .     A
C252   H270    1.083   .     S
C252   C428    1.384   .     S
C254   C291    1.438   .     S
C254   N282    1.377   .     A
C254   C314    1.416   .     S
C255   N281    1.361   .     A
C255   H271    1.083   .     S
C256   N281    1.368   .     A
C256   H272    1.082   .     S
C257   H273    1.082   .     S
C257   N282    1.367   .     A
C257   C315    1.418   .     S
C258   O288    1.292   .     A
C258   O287    1.293   .     A
C259   O289    1.292   .     A
C259   C261    1.453   .     S
C259   O290    1.294   .     A
C260   C772    1.414   1_554 S
C260   N824    1.433   1_554 S
C262   H276    1.083   .     S
C262   C263    1.389   .     A
C263   C795    1.390   .     S
C263   H809    1.083   .     S
C264   H277    1.077   .     S
C264   C794    1.390   1_554 S
C264   C769    1.416   1_554 S
Cu265  O285    1.975   .     S
Cu265  Cu266   2.682   .     S
Cu265  O283    1.964   .     S
Cu265  O287    1.965   .     S
Cu265  N281    2.015   .     S
Cu265  O289    1.971   .     S
Cu266  O286    1.971   .     S
Cu266  O290    1.975   .     S
Cu266  O284    1.965   .     S
Cu266  N282    2.015   .     S
Cu266  O288    1.964   .     S
H278   C794    1.083   1_554 S
C291   N292    1.158   .     T
N293   H295    1.046   .     S
N293   H294    1.040   .     S
N293   C791    1.433   .     S
C296   O343    1.293   .     A
C296   C312    1.450   .     S
C296   O342    1.292   .     A
C297   C298    1.419   .     A
C297   C830    1.427   .     S
C297   C854    1.416   .     S
C298   C305    1.433   .     A
C298   C302    1.415   .     A
C299   C303    1.398   .     A
C299   C828    1.427   1_554 S
C299   C831    1.423   1_554 S
C300   C301    1.390   .     A
C300   C830    1.423   .     S
C300   C850    1.414   .     S
C301   C302    1.379   .     A
C301   H333    1.082   .     S
C302   H338    1.075   .     S
C303   H334    1.076   .     S
C303   C320    1.395   .     A
C304   C320    1.396   .     A
C304   C319    1.389   .     A
C304   H326    1.084   .     S
C305   C307    1.484   .     S
C305   C321    1.399   .     A
C306   H339    1.083   .     S
C306   C312    1.401   .     A
C306   C485    1.383   .     S
C307   O345    1.286   .     A
C307   O344    1.314   .     A
C308   H327    1.083   .     S
C308   C309    1.402   .     A
C309   C317    1.450   .     S
C309   C310    1.401   .     A
C310   H328    1.083   .     S
C311   C312    1.402   .     A
C311   H329    1.083   .     S
C311   C487    1.384   .     S
C313   C350    1.438   .     S
C313   N341    1.377   .     A
C313   C196    1.416   1_655 S
C314   N340    1.361   .     A
C314   H330    1.083   .     S
C315   N340    1.368   .     A
C315   H331    1.082   .     S
C316   H332    1.082   .     S
C316   N341    1.367   .     A
C316   C197    1.418   1_655 S
C317   O347    1.292   .     A
C317   O346    1.293   .     A
C318   O348    1.292   .     A
C318   C320    1.453   .     S
C318   O349    1.294   .     A
C319   C831    1.414   1_554 S
C319   N883    1.433   1_554 S
C321   H335    1.083   .     S
C321   C322    1.389   .     A
C322   C854    1.390   .     S
C322   H868    1.083   .     S
C323   H336    1.077   .     S
C323   C853    1.390   1_554 S
C323   C828    1.416   1_554 S
Cu324  O344    1.975   .     S
Cu324  Cu325   2.682   .     S
Cu324  O342    1.964   .     S
Cu324  O346    1.965   .     S
Cu324  N340    2.015   .     S
Cu324  O348    1.971   .     S
Cu325  O345    1.971   .     S
Cu325  O349    1.975   .     S
Cu325  O343    1.965   .     S
Cu325  N341    2.015   .     S
Cu325  O347    1.964   .     S
H337   C853    1.083   1_554 S
C350   N351    1.158   .     T
N352   H354    1.046   .     S
N352   H353    1.040   .     S
N352   C850    1.433   .     S
C355   O402    1.293   .     A
C355   C371    1.450   .     S
C355   O401    1.292   .     A
C356   C357    1.419   .     A
C356   C889    1.427   .     S
C356   C913    1.416   .     S
C357   C364    1.433   .     A
C357   C361    1.415   .     A
C358   C362    1.398   .     A
C358   C887    1.427   1_554 S
C358   C890    1.423   1_554 S
C359   C360    1.390   .     A
C359   C889    1.423   .     S
C359   C909    1.414   .     S
C360   C361    1.379   .     A
C360   H392    1.082   .     S
C361   H397    1.075   .     S
C362   H393    1.076   .     S
C362   C379    1.395   .     A
C363   C379    1.396   .     A
C363   C378    1.389   .     A
C363   H385    1.084   .     S
C364   C366    1.484   .     S
C364   C380    1.399   .     A
C365   H398    1.083   .     S
C365   C371    1.401   .     A
C365   C13     1.383   1_565 S
C366   O404    1.286   .     A
C366   O403    1.314   .     A
C367   H386    1.083   .     S
C367   C368    1.402   .     A
C368   C376    1.450   .     S
C368   C369    1.401   .     A
C369   H387    1.083   .     S
C370   C371    1.402   .     A
C370   H388    1.083   .     S
C370   C15     1.384   1_565 S
C372   C409    1.438   .     S
C372   N400    1.377   .     A
C372   C432    1.416   .     S
C373   N399    1.361   .     A
C373   H389    1.083   .     S
C373   C490    1.416   1_455 S
C374   N399    1.368   .     A
C374   H390    1.082   .     S
C374   C493    1.418   1_455 S
C375   H391    1.082   .     S
C375   N400    1.367   .     A
C375   C433    1.418   .     S
C376   O406    1.292   .     A
C376   O405    1.293   .     A
C377   O407    1.292   .     A
C377   C379    1.453   .     S
C377   O408    1.294   .     A
C378   C890    1.414   1_554 S
C378   N942    1.433   1_554 S
C380   H394    1.083   .     S
C380   C381    1.389   .     A
C381   C913    1.390   .     S
C381   H927    1.083   .     S
C382   H395    1.077   .     S
C382   C912    1.390   1_554 S
C382   C887    1.416   1_554 S
Cu383  O403    1.975   .     S
Cu383  Cu384   2.682   .     S
Cu383  O401    1.964   .     S
Cu383  O405    1.965   .     S
Cu383  N399    2.015   .     S
Cu383  O407    1.971   .     S
Cu384  O404    1.971   .     S
Cu384  O408    1.975   .     S
Cu384  O402    1.965   .     S
Cu384  N400    2.015   .     S
Cu384  O406    1.964   .     S
H396   C912    1.083   1_554 S
C409   N410    1.158   .     T
N411   H413    1.046   .     S
N411   H412    1.040   .     S
N411   C909    1.433   .     S
C414   O461    1.293   .     A
C414   C430    1.450   .     S
C414   O460    1.292   .     A
C415   C416    1.419   .     A
C415   C948    1.427   .     S
C415   C972    1.416   .     S
C416   C423    1.433   .     A
C416   C420    1.415   .     A
C417   C421    1.398   .     A
C417   C946    1.427   1_554 S
C417   C949    1.423   1_554 S
C418   C419    1.390   .     A
C418   C948    1.423   .     S
C418   C968    1.414   .     S
C419   C420    1.379   .     A
C419   H451    1.082   .     S
C420   H456    1.075   .     S
C421   H452    1.076   .     S
C421   C438    1.395   .     A
C422   C438    1.396   .     A
C422   C437    1.389   .     A
C422   H444    1.084   .     S
C423   C425    1.484   .     S
C423   C439    1.399   .     A
C424   H457    1.083   .     S
C424   C430    1.401   .     A
C424   C72     1.383   1_565 S
C425   O463    1.286   .     A
C425   O462    1.314   .     A
C426   H445    1.083   .     S
C426   C427    1.402   .     A
C427   C435    1.450   .     S
C427   C428    1.401   .     A
C428   H446    1.083   .     S
C429   C430    1.402   .     A
C429   H447    1.083   .     S
C429   C74     1.384   1_565 S
C431   C468    1.438   .     S
C431   N459    1.377   .     A
C431   C491    1.416   .     S
C432   N458    1.361   .     A
C432   H448    1.083   .     S
C433   N458    1.368   .     A
C433   H449    1.082   .     S
C434   H450    1.082   .     S
C434   N459    1.367   .     A
C434   C492    1.418   .     S
C435   O465    1.292   .     A
C435   O464    1.293   .     A
C436   O466    1.292   .     A
C436   C438    1.453   .     S
C436   O467    1.294   .     A
C437   C949    1.414   1_554 S
C437   N1001   1.433   1_554 S
C439   H453    1.083   .     S
C439   C440    1.389   .     A
C440   C972    1.390   .     S
C440   H986    1.083   .     S
C441   H454    1.077   .     S
C441   C971    1.390   1_554 S
C441   C946    1.416   1_554 S
Cu442  O462    1.975   .     S
Cu442  Cu443   2.682   .     S
Cu442  O460    1.964   .     S
Cu442  O464    1.965   .     S
Cu442  N458    2.015   .     S
Cu442  O466    1.971   .     S
Cu443  O463    1.971   .     S
Cu443  O467    1.975   .     S
Cu443  O461    1.965   .     S
Cu443  N459    2.015   .     S
Cu443  O465    1.964   .     S
H455   C971    1.083   1_554 S
C468   N469    1.158   .     T
N470   H472    1.046   .     S
N470   H471    1.040   .     S
N470   C968    1.433   .     S
C473   O520    1.293   .     A
C473   C489    1.450   .     S
C473   O519    1.292   .     A
C474   C475    1.419   .     A
C474   C1007   1.427   .     S
C474   C1031   1.416   .     S
C475   C482    1.433   .     A
C475   C479    1.415   .     A
C476   C480    1.398   .     A
C476   C1005   1.427   1_554 S
C476   C1008   1.423   1_554 S
C477   C478    1.390   .     A
C477   C1007   1.423   .     S
C477   C1027   1.414   .     S
C478   C479    1.379   .     A
C478   H510    1.082   .     S
C479   H515    1.075   .     S
C480   H511    1.076   .     S
C480   C497    1.395   .     A
C481   C497    1.396   .     A
C481   C496    1.389   .     A
C481   H503    1.084   .     S
C482   C484    1.484   .     S
C482   C498    1.399   .     A
C483   H516    1.083   .     S
C483   C489    1.401   .     A
C483   C131    1.383   1_565 S
C484   O522    1.286   .     A
C484   O521    1.314   .     A
C485   H504    1.083   .     S
C485   C486    1.402   .     A
C486   C494    1.450   .     S
C486   C487    1.401   .     A
C487   H505    1.083   .     S
C488   C489    1.402   .     A
C488   H506    1.083   .     S
C488   C133    1.384   1_565 S
C490   C527    1.438   .     S
C490   N518    1.377   .     A
C490   C373    1.416   1_655 S
C491   N517    1.361   .     A
C491   H507    1.083   .     S
C492   N517    1.368   .     A
C492   H508    1.082   .     S
C493   H509    1.082   .     S
C493   N518    1.367   .     A
C493   C374    1.418   1_655 S
C494   O524    1.292   .     A
C494   O523    1.293   .     A
C495   O525    1.292   .     A
C495   C497    1.453   .     S
C495   O526    1.294   .     A
C496   C1008   1.414   1_554 S
C496   N1060   1.433   1_554 S
C498   H512    1.083   .     S
C498   C499    1.389   .     A
C499   C1031   1.390   .     S
C499   H1045   1.083   .     S
C500   H513    1.077   .     S
C500   C1030   1.390   1_554 S
C500   C1005   1.416   1_554 S
Cu501  O521    1.975   .     S
Cu501  Cu502   2.682   .     S
Cu501  O519    1.964   .     S
Cu501  O523    1.965   .     S
Cu501  N517    2.015   .     S
Cu501  O525    1.971   .     S
Cu502  O522    1.971   .     S
Cu502  O526    1.975   .     S
Cu502  O520    1.965   .     S
Cu502  N518    2.015   .     S
Cu502  O524    1.964   .     S
H514   C1030   1.083   1_554 S
C527   N528    1.158   .     T
N529   H531    1.046   .     S
N529   H530    1.040   .     S
N529   C1027   1.433   .     S
C532   O579    1.293   .     A
C532   C548    1.450   .     S
C532   O578    1.292   .     A
C533   C534    1.419   .     A
C533   C4      1.427   1_556 S
C533   C28     1.416   1_556 S
C534   C541    1.433   .     A
C534   C538    1.415   .     A
C535   C539    1.398   .     A
C536   C537    1.390   .     A
C536   C4      1.423   1_556 S
C536   C24     1.414   1_556 S
C537   C538    1.379   .     A
C537   H569    1.082   .     S
C538   H574    1.075   .     S
C539   H570    1.076   .     S
C539   C556    1.395   .     A
C540   C556    1.396   .     A
C540   C555    1.389   .     A
C540   H562    1.084   .     S
C541   C543    1.484   .     S
C541   C557    1.399   .     A
C542   H575    1.083   .     S
C542   C548    1.401   .     A
C542   C721    1.383   .     S
C543   O581    1.286   .     A
C543   O580    1.314   .     A
C544   H563    1.083   .     S
C544   C545    1.402   .     A
C544   C896    1.383   1_545 S
C545   C553    1.450   .     S
C545   C546    1.401   .     A
C546   H564    1.083   .     S
C546   C901    1.384   1_545 S
C547   C548    1.402   .     A
C547   H565    1.083   .     S
C547   C723    1.384   .     S
C549   C586    1.438   .     S
C549   N577    1.377   .     A
C549   C609    1.416   .     S
C550   N576    1.361   .     A
C550   H566    1.083   .     S
C550   C667    1.416   1_455 S
C551   N576    1.368   .     A
C551   H567    1.082   .     S
C551   C670    1.418   1_455 S
C552   H568    1.082   .     S
C552   N577    1.367   .     A
C552   C610    1.418   .     S
C553   O583    1.292   .     A
C553   O582    1.293   .     A
C554   O584    1.292   .     A
C554   C556    1.453   .     S
C554   O585    1.294   .     A
C557   H571    1.083   .     S
C557   C558    1.389   .     A
C558   C28     1.390   1_556 S
C558   H42     1.083   1_556 S
C559   H572    1.077   .     S
Cu560  O580    1.975   .     S
Cu560  Cu561   2.682   .     S
Cu560  O578    1.964   .     S
Cu560  O582    1.965   .     S
Cu560  N576    2.015   .     S
Cu560  O584    1.971   .     S
Cu561  O581    1.971   .     S
Cu561  O585    1.975   .     S
Cu561  O579    1.965   .     S
Cu561  N577    2.015   .     S
Cu561  O583    1.964   .     S
C586   N587    1.158   .     T
N588   H590    1.046   .     S
N588   H589    1.040   .     S
N588   C24     1.433   1_556 S
C591   O638    1.293   .     A
C591   C607    1.450   .     S
C591   O637    1.292   .     A
C592   C593    1.419   .     A
C592   C63     1.427   1_556 S
C592   C87     1.416   1_556 S
C593   C600    1.433   .     A
C593   C597    1.415   .     A
C594   C598    1.398   .     A
C595   C596    1.390   .     A
C595   C63     1.423   1_556 S
C595   C83     1.414   1_556 S
C596   C597    1.379   .     A
C596   H628    1.082   .     S
C597   H633    1.075   .     S
C598   H629    1.076   .     S
C598   C615    1.395   .     A
C599   C615    1.396   .     A
C599   C614    1.389   .     A
C599   H621    1.084   .     S
C600   C602    1.484   .     S
C600   C616    1.399   .     A
C601   H634    1.083   .     S
C601   C607    1.401   .     A
C601   C780    1.383   .     S
C602   O640    1.286   .     A
C602   O639    1.314   .     A
C603   H622    1.083   .     S
C603   C604    1.402   .     A
C603   C955    1.383   1_545 S
C604   C612    1.450   .     S
C604   C605    1.401   .     A
C605   H623    1.083   .     S
C605   C960    1.384   1_545 S
C606   C607    1.402   .     A
C606   H624    1.083   .     S
C606   C782    1.384   .     S
C608   C645    1.438   .     S
C608   N636    1.377   .     A
C608   C668    1.416   .     S
C609   N635    1.361   .     A
C609   H625    1.083   .     S
C610   N635    1.368   .     A
C610   H626    1.082   .     S
C611   H627    1.082   .     S
C611   N636    1.367   .     A
C611   C669    1.418   .     S
C612   O642    1.292   .     A
C612   O641    1.293   .     A
C613   O643    1.292   .     A
C613   C615    1.453   .     S
C613   O644    1.294   .     A
C616   H630    1.083   .     S
C616   C617    1.389   .     A
C617   C87     1.390   1_556 S
C617   H101    1.083   1_556 S
C618   H631    1.077   .     S
Cu619  O639    1.975   .     S
Cu619  Cu620   2.682   .     S
Cu619  O637    1.964   .     S
Cu619  O641    1.965   .     S
Cu619  N635    2.015   .     S
Cu619  O643    1.971   .     S
Cu620  O640    1.971   .     S
Cu620  O644    1.975   .     S
Cu620  O638    1.965   .     S
Cu620  N636    2.015   .     S
Cu620  O642    1.964   .     S
C645   N646    1.158   .     T
N647   H649    1.046   .     S
N647   H648    1.040   .     S
N647   C83     1.433   1_556 S
C650   O697    1.293   .     A
C650   C666    1.450   .     S
C650   O696    1.292   .     A
C651   C652    1.419   .     A
C651   C122    1.427   1_556 S
C651   C146    1.416   1_556 S
C652   C659    1.433   .     A
C652   C656    1.415   .     A
C653   C657    1.398   .     A
C654   C655    1.390   .     A
C654   C122    1.423   1_556 S
C654   C142    1.414   1_556 S
C655   C656    1.379   .     A
C655   H687    1.082   .     S
C656   H692    1.075   .     S
C657   H688    1.076   .     S
C657   C674    1.395   .     A
C658   C674    1.396   .     A
C658   C673    1.389   .     A
C658   H680    1.084   .     S
C659   C661    1.484   .     S
C659   C675    1.399   .     A
C660   H693    1.083   .     S
C660   C666    1.401   .     A
C660   C839    1.383   .     S
C661   O699    1.286   .     A
C661   O698    1.314   .     A
C662   H681    1.083   .     S
C662   C663    1.402   .     A
C662   C1014   1.383   1_545 S
C663   C671    1.450   .     S
C663   C664    1.401   .     A
C664   H682    1.083   .     S
C664   C1019   1.384   1_545 S
C665   C666    1.402   .     A
C665   H683    1.083   .     S
C665   C841    1.384   .     S
C667   C704    1.438   .     S
C667   N695    1.377   .     A
C667   C550    1.416   1_655 S
C668   N694    1.361   .     A
C668   H684    1.083   .     S
C669   N694    1.368   .     A
C669   H685    1.082   .     S
C670   H686    1.082   .     S
C670   N695    1.367   .     A
C670   C551    1.418   1_655 S
C671   O701    1.292   .     A
C671   O700    1.293   .     A
C672   O702    1.292   .     A
C672   C674    1.453   .     S
C672   O703    1.294   .     A
C675   H689    1.083   .     S
C675   C676    1.389   .     A
C676   C146    1.390   1_556 S
C676   H160    1.083   1_556 S
C677   H690    1.077   .     S
Cu678  O698    1.975   .     S
Cu678  Cu679   2.682   .     S
Cu678  O696    1.964   .     S
Cu678  O700    1.965   .     S
Cu678  N694    2.015   .     S
Cu678  O702    1.971   .     S
Cu679  O699    1.971   .     S
Cu679  O703    1.975   .     S
Cu679  O697    1.965   .     S
Cu679  N695    2.015   .     S
Cu679  O701    1.964   .     S
C704   N705    1.158   .     T
N706   H708    1.046   .     S
N706   H707    1.040   .     S
N706   C142    1.433   1_556 S
C709   O756    1.293   .     A
C709   C725    1.450   .     S
C709   O755    1.292   .     A
C710   C711    1.419   .     A
C710   C181    1.427   1_556 S
C710   C205    1.416   1_556 S
C711   C718    1.433   .     A
C711   C715    1.415   .     A
C712   C716    1.398   .     A
C713   C714    1.390   .     A
C713   C181    1.423   1_556 S
C713   C201    1.414   1_556 S
C714   C715    1.379   .     A
C714   H746    1.082   .     S
C715   H751    1.075   .     S
C716   H747    1.076   .     S
C716   C733    1.395   .     A
C717   C733    1.396   .     A
C717   C732    1.389   .     A
C717   H739    1.084   .     S
C718   C720    1.484   .     S
C718   C734    1.399   .     A
C719   H752    1.083   .     S
C719   C725    1.401   .     A
C719   C898    1.383   .     S
C720   O758    1.286   .     A
C720   O757    1.314   .     A
C721   H740    1.083   .     S
C721   C722    1.402   .     A
C722   C730    1.450   .     S
C722   C723    1.401   .     A
C723   H741    1.083   .     S
C724   C725    1.402   .     A
C724   H742    1.083   .     S
C724   C900    1.384   .     S
C726   C763    1.438   .     S
C726   N754    1.377   .     A
C726   C786    1.416   .     S
C727   N753    1.361   .     A
C727   H743    1.083   .     S
C727   C844    1.416   1_455 S
C728   N753    1.368   .     A
C728   H744    1.082   .     S
C728   C847    1.418   1_455 S
C729   H745    1.082   .     S
C729   N754    1.367   .     A
C729   C787    1.418   .     S
C730   O760    1.292   .     A
C730   O759    1.293   .     A
C731   O761    1.292   .     A
C731   C733    1.453   .     S
C731   O762    1.294   .     A
C734   H748    1.083   .     S
C734   C735    1.389   .     A
C735   C205    1.390   1_556 S
C735   H219    1.083   1_556 S
C736   H749    1.077   .     S
Cu737  O757    1.975   .     S
Cu737  Cu738   2.682   .     S
Cu737  O755    1.964   .     S
Cu737  O759    1.965   .     S
Cu737  N753    2.015   .     S
Cu737  O761    1.971   .     S
Cu738  O758    1.971   .     S
Cu738  O762    1.975   .     S
Cu738  O756    1.965   .     S
Cu738  N754    2.015   .     S
Cu738  O760    1.964   .     S
C763   N764    1.158   .     T
N765   H767    1.046   .     S
N765   H766    1.040   .     S
N765   C201    1.433   1_556 S
C768   O815    1.293   .     A
C768   C784    1.450   .     S
C768   O814    1.292   .     A
C769   C770    1.419   .     A
C769   C240    1.427   1_556 S
C769   C264    1.416   1_556 S
C770   C777    1.433   .     A
C770   C774    1.415   .     A
C771   C775    1.398   .     A
C772   C773    1.390   .     A
C772   C240    1.423   1_556 S
C772   C260    1.414   1_556 S
C773   C774    1.379   .     A
C773   H805    1.082   .     S
C774   H810    1.075   .     S
C775   H806    1.076   .     S
C775   C792    1.395   .     A
C776   C792    1.396   .     A
C776   C791    1.389   .     A
C776   H798    1.084   .     S
C777   C779    1.484   .     S
C777   C793    1.399   .     A
C778   H811    1.083   .     S
C778   C784    1.401   .     A
C778   C957    1.383   .     S
C779   O817    1.286   .     A
C779   O816    1.314   .     A
C780   H799    1.083   .     S
C780   C781    1.402   .     A
C781   C789    1.450   .     S
C781   C782    1.401   .     A
C782   H800    1.083   .     S
C783   C784    1.402   .     A
C783   H801    1.083   .     S
C783   C959    1.384   .     S
C785   C822    1.438   .     S
C785   N813    1.377   .     A
C785   C845    1.416   .     S
C786   N812    1.361   .     A
C786   H802    1.083   .     S
C787   N812    1.368   .     A
C787   H803    1.082   .     S
C788   H804    1.082   .     S
C788   N813    1.367   .     A
C788   C846    1.418   .     S
C789   O819    1.292   .     A
C789   O818    1.293   .     A
C790   O820    1.292   .     A
C790   C792    1.453   .     S
C790   O821    1.294   .     A
C793   H807    1.083   .     S
C793   C794    1.389   .     A
C794   C264    1.390   1_556 S
C794   H278    1.083   1_556 S
C795   H808    1.077   .     S
Cu796  O816    1.975   .     S
Cu796  Cu797   2.682   .     S
Cu796  O814    1.964   .     S
Cu796  O818    1.965   .     S
Cu796  N812    2.015   .     S
Cu796  O820    1.971   .     S
Cu797  O817    1.971   .     S
Cu797  O821    1.975   .     S
Cu797  O815    1.965   .     S
Cu797  N813    2.015   .     S
Cu797  O819    1.964   .     S
C822   N823    1.158   .     T
N824   H826    1.046   .     S
N824   H825    1.040   .     S
N824   C260    1.433   1_556 S
C827   O874    1.293   .     A
C827   C843    1.450   .     S
C827   O873    1.292   .     A
C828   C829    1.419   .     A
C828   C299    1.427   1_556 S
C828   C323    1.416   1_556 S
C829   C836    1.433   .     A
C829   C833    1.415   .     A
C830   C834    1.398   .     A
C831   C832    1.390   .     A
C831   C299    1.423   1_556 S
C831   C319    1.414   1_556 S
C832   C833    1.379   .     A
C832   H864    1.082   .     S
C833   H869    1.075   .     S
C834   H865    1.076   .     S
C834   C851    1.395   .     A
C835   C851    1.396   .     A
C835   C850    1.389   .     A
C835   H857    1.084   .     S
C836   C838    1.484   .     S
C836   C852    1.399   .     A
C837   H870    1.083   .     S
C837   C843    1.401   .     A
C837   C1016   1.383   .     S
C838   O876    1.286   .     A
C838   O875    1.314   .     A
C839   H858    1.083   .     S
C839   C840    1.402   .     A
C840   C848    1.450   .     S
C840   C841    1.401   .     A
C841   H859    1.083   .     S
C842   C843    1.402   .     A
C842   H860    1.083   .     S
C842   C1018   1.384   .     S
C844   C881    1.438   .     S
C844   N872    1.377   .     A
C844   C727    1.416   1_655 S
C845   N871    1.361   .     A
C845   H861    1.083   .     S
C846   N871    1.368   .     A
C846   H862    1.082   .     S
C847   H863    1.082   .     S
C847   N872    1.367   .     A
C847   C728    1.418   1_655 S
C848   O878    1.292   .     A
C848   O877    1.293   .     A
C849   O879    1.292   .     A
C849   C851    1.453   .     S
C849   O880    1.294   .     A
C852   H866    1.083   .     S
C852   C853    1.389   .     A
C853   C323    1.390   1_556 S
C853   H337    1.083   1_556 S
C854   H867    1.077   .     S
Cu855  O875    1.975   .     S
Cu855  Cu856   2.682   .     S
Cu855  O873    1.964   .     S
Cu855  O877    1.965   .     S
Cu855  N871    2.015   .     S
Cu855  O879    1.971   .     S
Cu856  O876    1.971   .     S
Cu856  O880    1.975   .     S
Cu856  O874    1.965   .     S
Cu856  N872    2.015   .     S
Cu856  O878    1.964   .     S
C881   N882    1.158   .     T
N883   H885    1.046   .     S
N883   H884    1.040   .     S
N883   C319    1.433   1_556 S
C886   O933    1.293   .     A
C886   C902    1.450   .     S
C886   O932    1.292   .     A
C887   C888    1.419   .     A
C887   C358    1.427   1_556 S
C887   C382    1.416   1_556 S
C888   C895    1.433   .     A
C888   C892    1.415   .     A
C889   C893    1.398   .     A
C890   C891    1.390   .     A
C890   C358    1.423   1_556 S
C890   C378    1.414   1_556 S
C891   C892    1.379   .     A
C891   H923    1.082   .     S
C892   H928    1.075   .     S
C893   H924    1.076   .     S
C893   C910    1.395   .     A
C894   C910    1.396   .     A
C894   C909    1.389   .     A
C894   H916    1.084   .     S
C895   C897    1.484   .     S
C895   C911    1.399   .     A
C896   H929    1.083   .     S
C896   C902    1.401   .     A
C896   C544    1.383   1_565 S
C897   O935    1.286   .     A
C897   O934    1.314   .     A
C898   H917    1.083   .     S
C898   C899    1.402   .     A
C899   C907    1.450   .     S
C899   C900    1.401   .     A
C900   H918    1.083   .     S
C901   C902    1.402   .     A
C901   H919    1.083   .     S
C901   C546    1.384   1_565 S
C903   C940    1.438   .     S
C903   N931    1.377   .     A
C903   C963    1.416   .     S
C904   N930    1.361   .     A
C904   H920    1.083   .     S
C904   C1021   1.416   1_455 S
C905   N930    1.368   .     A
C905   H921    1.082   .     S
C905   C1024   1.418   1_455 S
C906   H922    1.082   .     S
C906   N931    1.367   .     A
C906   C964    1.418   .     S
C907   O937    1.292   .     A
C907   O936    1.293   .     A
C908   O938    1.292   .     A
C908   C910    1.453   .     S
C908   O939    1.294   .     A
C911   H925    1.083   .     S
C911   C912    1.389   .     A
C912   C382    1.390   1_556 S
C912   H396    1.083   1_556 S
C913   H926    1.077   .     S
Cu914  O934    1.975   .     S
Cu914  Cu915   2.682   .     S
Cu914  O932    1.964   .     S
Cu914  O936    1.965   .     S
Cu914  N930    2.015   .     S
Cu914  O938    1.971   .     S
Cu915  O935    1.971   .     S
Cu915  O939    1.975   .     S
Cu915  O933    1.965   .     S
Cu915  N931    2.015   .     S
Cu915  O937    1.964   .     S
C940   N941    1.158   .     T
N942   H944    1.046   .     S
N942   H943    1.040   .     S
N942   C378    1.433   1_556 S
C945   O992    1.293   .     A
C945   C961    1.450   .     S
C945   O991    1.292   .     A
C946   C947    1.419   .     A
C946   C417    1.427   1_556 S
C946   C441    1.416   1_556 S
C947   C954    1.433   .     A
C947   C951    1.415   .     A
C948   C952    1.398   .     A
C949   C950    1.390   .     A
C949   C417    1.423   1_556 S
C949   C437    1.414   1_556 S
C950   C951    1.379   .     A
C950   H982    1.082   .     S
C951   H987    1.075   .     S
C952   H983    1.076   .     S
C952   C969    1.395   .     A
C953   C969    1.396   .     A
C953   C968    1.389   .     A
C953   H975    1.084   .     S
C954   C956    1.484   .     S
C954   C970    1.399   .     A
C955   H988    1.083   .     S
C955   C961    1.401   .     A
C955   C603    1.383   1_565 S
C956   O994    1.286   .     A
C956   O993    1.314   .     A
C957   H976    1.083   .     S
C957   C958    1.402   .     A
C958   C966    1.450   .     S
C958   C959    1.401   .     A
C959   H977    1.083   .     S
C960   C961    1.402   .     A
C960   H978    1.083   .     S
C960   C605    1.384   1_565 S
C962   C999    1.438   .     S
C962   N990    1.377   .     A
C962   C1022   1.416   .     S
C963   N989    1.361   .     A
C963   H979    1.083   .     S
C964   N989    1.368   .     A
C964   H980    1.082   .     S
C965   H981    1.082   .     S
C965   N990    1.367   .     A
C965   C1023   1.418   .     S
C966   O996    1.292   .     A
C966   O995    1.293   .     A
C967   O997    1.292   .     A
C967   C969    1.453   .     S
C967   O998    1.294   .     A
C970   H984    1.083   .     S
C970   C971    1.389   .     A
C971   C441    1.390   1_556 S
C971   H455    1.083   1_556 S
C972   H985    1.077   .     S
Cu973  O993    1.975   .     S
Cu973  Cu974   2.682   .     S
Cu973  O991    1.964   .     S
Cu973  O995    1.965   .     S
Cu973  N989    2.015   .     S
Cu973  O997    1.971   .     S
Cu974  O994    1.971   .     S
Cu974  O998    1.975   .     S
Cu974  O992    1.965   .     S
Cu974  N990    2.015   .     S
Cu974  O996    1.964   .     S
C999   N1000   1.158   .     T
N1001  H1003   1.046   .     S
N1001  H1002   1.040   .     S
N1001  C437    1.433   1_556 S
C1004  O1051   1.293   .     A
C1004  C1020   1.450   .     S
C1004  O1050   1.292   .     A
C1005  C1006   1.419   .     A
C1005  C476    1.427   1_556 S
C1005  C500    1.416   1_556 S
C1006  C1013   1.433   .     A
C1006  C1010   1.415   .     A
C1007  C1011   1.398   .     A
C1008  C1009   1.390   .     A
C1008  C476    1.423   1_556 S
C1008  C496    1.414   1_556 S
C1009  C1010   1.379   .     A
C1009  H1041   1.082   .     S
C1010  H1046   1.075   .     S
C1011  H1042   1.076   .     S
C1011  C1028   1.395   .     A
C1012  C1028   1.396   .     A
C1012  C1027   1.389   .     A
C1012  H1034   1.084   .     S
C1013  C1015   1.484   .     S
C1013  C1029   1.399   .     A
C1014  H1047   1.083   .     S
C1014  C1020   1.401   .     A
C1014  C662    1.383   1_565 S
C1015  O1053   1.286   .     A
C1015  O1052   1.314   .     A
C1016  H1035   1.083   .     S
C1016  C1017   1.402   .     A
C1017  C1025   1.450   .     S
C1017  C1018   1.401   .     A
C1018  H1036   1.083   .     S
C1019  C1020   1.402   .     A
C1019  H1037   1.083   .     S
C1019  C664    1.384   1_565 S
C1021  C1058   1.438   .     S
C1021  N1049   1.377   .     A
C1021  C904    1.416   1_655 S
C1022  N1048   1.361   .     A
C1022  H1038   1.083   .     S
C1023  N1048   1.368   .     A
C1023  H1039   1.082   .     S
C1024  H1040   1.082   .     S
C1024  N1049   1.367   .     A
C1024  C905    1.418   1_655 S
C1025  O1055   1.292   .     A
C1025  O1054   1.293   .     A
C1026  O1056   1.292   .     A
C1026  C1028   1.453   .     S
C1026  O1057   1.294   .     A
C1029  H1043   1.083   .     S
C1029  C1030   1.389   .     A
C1030  C500    1.390   1_556 S
C1030  H514    1.083   1_556 S
C1031  H1044   1.077   .     S
Cu1032 O1052   1.975   .     S
Cu1032 Cu1033  2.682   .     S
Cu1032 O1050   1.964   .     S
Cu1032 O1054   1.965   .     S
Cu1032 N1048   2.015   .     S
Cu1032 O1056   1.971   .     S
Cu1033 O1053   1.971   .     S
Cu1033 O1057   1.975   .     S
Cu1033 O1051   1.965   .     S
Cu1033 N1049   2.015   .     S
Cu1033 O1055   1.964   .     S
C1058  N1059   1.158   .     T
N1060  H1062   1.046   .     S
N1060  H1061   1.040   .     S
N1060  C496    1.433   1_556 S
