data_str_m3_o10_o18_pcu_sym.2
_audit_creation_date              2020-01-03
_audit_creation_method            'Materials Studio'
_symmetry_space_group_name_H-M    'P1'
_symmetry_Int_Tables_number       1
_symmetry_cell_setting            triclinic
loop_
_symmetry_equiv_pos_as_xyz
  x,y,z
_cell_length_a                    23.5871
_cell_length_b                    25.1595
_cell_length_c                    27.5330
_cell_angle_alpha                 93.1085
_cell_angle_beta                  93.0605
_cell_angle_gamma                 94.4821
loop_
_atom_site_label
_atom_site_type_symbol
_atom_site_fract_x
_atom_site_fract_y
_atom_site_fract_z
_atom_site_U_iso_or_equiv
_atom_site_adp_type
_atom_site_occupancy
C1     C     0.01434   0.26483   0.24391   0.00000  Uiso   1.00
C2     C     0.31230   0.16299   0.15897   0.00000  Uiso   1.00
C3     C     0.03347   0.18251   0.39281   0.00000  Uiso   1.00
C4     C     0.30225   0.16039   0.10639   0.00000  Uiso   1.00
C5     C     0.02707   0.23952   0.46535   0.00000  Uiso   1.00
C6     C     0.32161   0.12578   0.02610   0.00000  Uiso   1.00
C7     C     0.00496   0.22021   0.41924   0.00000  Uiso   1.00
C8     C     0.00466   0.13478   0.07536   0.00000  Uiso   1.00
C9     C     0.08220   0.16297   0.41290   0.00000  Uiso   1.00
C10    C     0.25314   0.18083   0.08768   0.00000  Uiso   1.00
C11    C     0.10869   0.18617   0.45620   0.00000  Uiso   1.00
C12    C     0.31729   0.06790   0.24483   0.00000  Uiso   1.00
C13    C     0.23657   0.17368   0.03832   0.00000  Uiso   1.00
C14    C     0.07934   0.22345   0.48367   0.00000  Uiso   1.00
C15    C     0.27009   0.14333   0.00777   0.00000  Uiso   1.00
C16    C     0.16373   0.17358   0.47237   0.00000  Uiso   1.00
C17    C     0.18523   0.19241   0.01960   0.00000  Uiso   1.00
C18    C     0.15499   0.22957   0.04639   0.00000  Uiso   1.00
C19    C     0.19868   0.14428   0.44226   0.00000  Uiso   1.00
C20    C     0.10313   0.24507   0.02837   0.00000  Uiso   1.00
C21    C     0.25122   0.12996   0.45969   0.00000  Uiso   1.00
C22    C     0.02021   0.31771   0.22725   0.00000  Uiso   1.00
C23    C     0.30767   0.01262   0.22752   0.00000  Uiso   1.00
C24    C     0.02121   0.17130   0.34096   0.00000  Uiso   1.00
H25    H     0.08164   0.27421   0.04945   0.00000  Uiso   1.00
H26    H     0.18751   0.13331   0.40437   0.00000  Uiso   1.00
H27    H     0.16210   0.12545   0.21264   0.00000  Uiso   1.00
H28    H     0.17128   0.20842   0.28694   0.00000  Uiso   1.00
H29    H     0.06146   0.26667   0.13966   0.00000  Uiso   1.00
H30    H     0.19550   0.03568   0.13643   0.00000  Uiso   1.00
H31    H     0.27668   0.10741   0.43566   0.00000  Uiso   1.00
H32    H     0.22626   0.19920   0.11302   0.00000  Uiso   1.00
H33    H     0.09995   0.13097   0.39265   0.00000  Uiso   1.00
H34    H     0.04348   0.11943   0.08948   0.00000  Uiso   1.00
H35    H     0.30034   0.23590   0.40370   0.00000  Uiso   1.00
H36    H     0.00462   0.26847   0.48577   0.00000  Uiso   1.00
H37    H     0.01491   0.10381   0.00267   0.00000  Uiso   1.00
H38    H     0.17156   0.24923   0.08057   0.00000  Uiso   1.00
N39    N     0.14695   0.15216   0.23739   0.00000  Uiso   1.00
N40    N     0.18638   0.18117   0.26260   0.00000  Uiso   1.00
O41    O     0.29719   0.24631   0.25309   0.00000  Uiso   1.00
O42    O     0.12742   0.02364   0.22477   0.00000  Uiso   1.00
O43    O     0.09651   0.28047   0.15921   0.00000  Uiso   1.00
O44    O     0.27523   0.30076   0.13925   0.00000  Uiso   1.00
O45    O     0.20889   0.28857   0.20372   0.00000  Uiso   1.00
O46    O     0.21977   0.04812   0.16596   0.00000  Uiso   1.00
O47    O     0.03614   0.08702   0.24690   0.00000  Uiso   1.00
O48    O     0.05822   0.23702   0.24501   0.00000  Uiso   1.00
O49    O     0.27512   0.09632   0.25498   0.00000  Uiso   1.00
O50    O     0.30328   0.17397   0.32247   0.00000  Uiso   1.00
O51    O     0.03005   0.15937   0.17753   0.00000  Uiso   1.00
O52    O     0.06431   0.16467   0.31439   0.00000  Uiso   1.00
O53    O     0.26902   0.16866   0.18561   0.00000  Uiso   1.00
O54    O     0.06337   0.04295   0.15608   0.00000  Uiso   1.00
S55    S     0.07816   0.00154   0.19097   0.00000  Uiso   1.00
S56    S     0.25152   0.32734   0.18309   0.00000  Uiso   1.00
Zn57   Zn    0.27033   0.17287   0.25539   0.00000  Uiso   1.00
Zn58   Zn    0.06300   0.16046   0.24460   0.00000  Uiso   1.00
C59    C     0.34768   0.26483   0.24391   0.00000  Uiso   1.00
C60    C     0.64563   0.16299   0.15897   0.00000  Uiso   1.00
C61    C     0.36680   0.18251   0.39281   0.00000  Uiso   1.00
C62    C     0.63558   0.16039   0.10639   0.00000  Uiso   1.00
C63    C     0.36040   0.23952   0.46535   0.00000  Uiso   1.00
C64    C     0.65495   0.12578   0.02610   0.00000  Uiso   1.00
C65    C     0.33829   0.22021   0.41924   0.00000  Uiso   1.00
C66    C     0.33800   0.13478   0.07536   0.00000  Uiso   1.00
C67    C     0.41554   0.16297   0.41290   0.00000  Uiso   1.00
C68    C     0.58648   0.18083   0.08768   0.00000  Uiso   1.00
C69    C     0.44203   0.18617   0.45620   0.00000  Uiso   1.00
C70    C     0.65062   0.06790   0.24483   0.00000  Uiso   1.00
C71    C     0.56990   0.17368   0.03832   0.00000  Uiso   1.00
C72    C     0.41267   0.22345   0.48367   0.00000  Uiso   1.00
C73    C     0.60342   0.14333   0.00777   0.00000  Uiso   1.00
C74    C     0.49706   0.17358   0.47237   0.00000  Uiso   1.00
C75    C     0.51856   0.19241   0.01960   0.00000  Uiso   1.00
C76    C     0.48832   0.22957   0.04639   0.00000  Uiso   1.00
C77    C     0.53201   0.14428   0.44226   0.00000  Uiso   1.00
C78    C     0.43647   0.24507   0.02837   0.00000  Uiso   1.00
C79    C     0.58455   0.12996   0.45969   0.00000  Uiso   1.00
C80    C     0.35354   0.31771   0.22725   0.00000  Uiso   1.00
C81    C     0.64101   0.01262   0.22752   0.00000  Uiso   1.00
C82    C     0.35454   0.17130   0.34096   0.00000  Uiso   1.00
H83    H     0.41497   0.27421   0.04945   0.00000  Uiso   1.00
H84    H     0.52084   0.13331   0.40437   0.00000  Uiso   1.00
H85    H     0.49544   0.12545   0.21264   0.00000  Uiso   1.00
H86    H     0.50461   0.20842   0.28694   0.00000  Uiso   1.00
H87    H     0.39479   0.26667   0.13966   0.00000  Uiso   1.00
H88    H     0.52883   0.03568   0.13643   0.00000  Uiso   1.00
H89    H     0.61001   0.10741   0.43566   0.00000  Uiso   1.00
H90    H     0.55959   0.19920   0.11302   0.00000  Uiso   1.00
H91    H     0.43329   0.13097   0.39265   0.00000  Uiso   1.00
H92    H     0.37681   0.11943   0.08948   0.00000  Uiso   1.00
H93    H     0.63367   0.23590   0.40370   0.00000  Uiso   1.00
H94    H     0.33795   0.26847   0.48577   0.00000  Uiso   1.00
H95    H     0.34824   0.10381   0.00267   0.00000  Uiso   1.00
H96    H     0.50490   0.24923   0.08057   0.00000  Uiso   1.00
N97    N     0.48029   0.15216   0.23739   0.00000  Uiso   1.00
N98    N     0.51971   0.18117   0.26260   0.00000  Uiso   1.00
O99    O     0.63052   0.24631   0.25309   0.00000  Uiso   1.00
O100   O     0.46075   0.02364   0.22477   0.00000  Uiso   1.00
O101   O     0.42984   0.28047   0.15921   0.00000  Uiso   1.00
O102   O     0.60856   0.30076   0.13925   0.00000  Uiso   1.00
O103   O     0.54222   0.28857   0.20372   0.00000  Uiso   1.00
O104   O     0.55311   0.04812   0.16596   0.00000  Uiso   1.00
O105   O     0.36948   0.08702   0.24690   0.00000  Uiso   1.00
O106   O     0.39155   0.23702   0.24501   0.00000  Uiso   1.00
O107   O     0.60845   0.09632   0.25498   0.00000  Uiso   1.00
O108   O     0.63662   0.17397   0.32247   0.00000  Uiso   1.00
O109   O     0.36338   0.15937   0.17753   0.00000  Uiso   1.00
O110   O     0.39764   0.16467   0.31439   0.00000  Uiso   1.00
O111   O     0.60236   0.16866   0.18561   0.00000  Uiso   1.00
O112   O     0.39670   0.04295   0.15608   0.00000  Uiso   1.00
S113   S     0.41150   0.00154   0.19097   0.00000  Uiso   1.00
S114   S     0.58485   0.32734   0.18309   0.00000  Uiso   1.00
Zn115  Zn    0.60366   0.17287   0.25539   0.00000  Uiso   1.00
Zn116  Zn    0.39634   0.16046   0.24460   0.00000  Uiso   1.00
C117   C     0.68101   0.26483   0.24391   0.00000  Uiso   1.00
C118   C     0.97897   0.16299   0.15897   0.00000  Uiso   1.00
C119   C     0.70014   0.18251   0.39281   0.00000  Uiso   1.00
C120   C     0.96891   0.16039   0.10639   0.00000  Uiso   1.00
C121   C     0.69373   0.23952   0.46535   0.00000  Uiso   1.00
C122   C     0.98828   0.12578   0.02610   0.00000  Uiso   1.00
C123   C     0.67162   0.22021   0.41924   0.00000  Uiso   1.00
C124   C     0.67133   0.13478   0.07536   0.00000  Uiso   1.00
C125   C     0.74887   0.16297   0.41290   0.00000  Uiso   1.00
C126   C     0.91981   0.18083   0.08768   0.00000  Uiso   1.00
C127   C     0.77536   0.18617   0.45620   0.00000  Uiso   1.00
C128   C     0.98395   0.06790   0.24483   0.00000  Uiso   1.00
C129   C     0.90323   0.17368   0.03832   0.00000  Uiso   1.00
C130   C     0.74600   0.22345   0.48367   0.00000  Uiso   1.00
C131   C     0.93676   0.14333   0.00777   0.00000  Uiso   1.00
C132   C     0.83040   0.17358   0.47237   0.00000  Uiso   1.00
C133   C     0.85190   0.19241   0.01960   0.00000  Uiso   1.00
C134   C     0.82166   0.22957   0.04639   0.00000  Uiso   1.00
C135   C     0.86534   0.14428   0.44226   0.00000  Uiso   1.00
C136   C     0.76980   0.24507   0.02837   0.00000  Uiso   1.00
C137   C     0.91788   0.12996   0.45969   0.00000  Uiso   1.00
C138   C     0.68688   0.31771   0.22725   0.00000  Uiso   1.00
C139   C     0.97434   0.01262   0.22752   0.00000  Uiso   1.00
C140   C     0.68788   0.17130   0.34096   0.00000  Uiso   1.00
H141   H     0.74830   0.27421   0.04945   0.00000  Uiso   1.00
H142   H     0.85418   0.13331   0.40437   0.00000  Uiso   1.00
H143   H     0.82877   0.12545   0.21264   0.00000  Uiso   1.00
H144   H     0.83795   0.20842   0.28694   0.00000  Uiso   1.00
H145   H     0.72813   0.26667   0.13966   0.00000  Uiso   1.00
H146   H     0.86216   0.03568   0.13643   0.00000  Uiso   1.00
H147   H     0.94334   0.10741   0.43566   0.00000  Uiso   1.00
H148   H     0.89293   0.19920   0.11302   0.00000  Uiso   1.00
H149   H     0.76662   0.13097   0.39265   0.00000  Uiso   1.00
H150   H     0.71015   0.11943   0.08948   0.00000  Uiso   1.00
H151   H     0.96700   0.23590   0.40370   0.00000  Uiso   1.00
H152   H     0.67128   0.26847   0.48577   0.00000  Uiso   1.00
H153   H     0.68158   0.10381   0.00267   0.00000  Uiso   1.00
H154   H     0.83823   0.24923   0.08057   0.00000  Uiso   1.00
N155   N     0.81362   0.15216   0.23739   0.00000  Uiso   1.00
N156   N     0.85305   0.18117   0.26260   0.00000  Uiso   1.00
O157   O     0.96386   0.24631   0.25309   0.00000  Uiso   1.00
O158   O     0.79408   0.02364   0.22477   0.00000  Uiso   1.00
O159   O     0.76318   0.28047   0.15921   0.00000  Uiso   1.00
O160   O     0.94190   0.30076   0.13925   0.00000  Uiso   1.00
O161   O     0.87556   0.28857   0.20372   0.00000  Uiso   1.00
O162   O     0.88644   0.04812   0.16596   0.00000  Uiso   1.00
O163   O     0.70281   0.08702   0.24690   0.00000  Uiso   1.00
O164   O     0.72488   0.23702   0.24501   0.00000  Uiso   1.00
O165   O     0.94178   0.09632   0.25498   0.00000  Uiso   1.00
O166   O     0.96995   0.17397   0.32247   0.00000  Uiso   1.00
O167   O     0.69672   0.15937   0.17753   0.00000  Uiso   1.00
O168   O     0.73098   0.16467   0.31439   0.00000  Uiso   1.00
O169   O     0.93569   0.16866   0.18561   0.00000  Uiso   1.00
O170   O     0.73003   0.04295   0.15608   0.00000  Uiso   1.00
S171   S     0.74483   0.00154   0.19097   0.00000  Uiso   1.00
S172   S     0.91818   0.32734   0.18309   0.00000  Uiso   1.00
Zn173  Zn    0.93700   0.17287   0.25539   0.00000  Uiso   1.00
Zn174  Zn    0.72967   0.16046   0.24460   0.00000  Uiso   1.00
C175   C     0.01434   0.59816   0.24391   0.00000  Uiso   1.00
C176   C     0.31230   0.49632   0.15897   0.00000  Uiso   1.00
C177   C     0.03347   0.51585   0.39281   0.00000  Uiso   1.00
C178   C     0.30225   0.49372   0.10639   0.00000  Uiso   1.00
C179   C     0.02707   0.57285   0.46535   0.00000  Uiso   1.00
C180   C     0.32161   0.45912   0.02610   0.00000  Uiso   1.00
C181   C     0.00496   0.55354   0.41924   0.00000  Uiso   1.00
C182   C     0.00466   0.46811   0.07536   0.00000  Uiso   1.00
C183   C     0.08220   0.49630   0.41290   0.00000  Uiso   1.00
C184   C     0.25314   0.51416   0.08768   0.00000  Uiso   1.00
C185   C     0.10869   0.51950   0.45620   0.00000  Uiso   1.00
C186   C     0.31729   0.40124   0.24483   0.00000  Uiso   1.00
C187   C     0.23657   0.50701   0.03832   0.00000  Uiso   1.00
C188   C     0.07934   0.55678   0.48367   0.00000  Uiso   1.00
C189   C     0.27009   0.47666   0.00777   0.00000  Uiso   1.00
C190   C     0.16373   0.50692   0.47237   0.00000  Uiso   1.00
C191   C     0.18523   0.52575   0.01960   0.00000  Uiso   1.00
C192   C     0.15499   0.56290   0.04639   0.00000  Uiso   1.00
C193   C     0.19868   0.47762   0.44226   0.00000  Uiso   1.00
C194   C     0.10313   0.57841   0.02837   0.00000  Uiso   1.00
C195   C     0.25122   0.46329   0.45969   0.00000  Uiso   1.00
C196   C     0.02021   0.65105   0.22725   0.00000  Uiso   1.00
C197   C     0.30767   0.34595   0.22752   0.00000  Uiso   1.00
C198   C     0.02121   0.50463   0.34096   0.00000  Uiso   1.00
H199   H     0.08164   0.60754   0.04945   0.00000  Uiso   1.00
H200   H     0.18751   0.46664   0.40437   0.00000  Uiso   1.00
H201   H     0.16210   0.45879   0.21264   0.00000  Uiso   1.00
H202   H     0.17128   0.54175   0.28694   0.00000  Uiso   1.00
H203   H     0.06146   0.60000   0.13966   0.00000  Uiso   1.00
H204   H     0.19550   0.36901   0.13643   0.00000  Uiso   1.00
H205   H     0.27668   0.44075   0.43566   0.00000  Uiso   1.00
H206   H     0.22626   0.53254   0.11302   0.00000  Uiso   1.00
H207   H     0.09995   0.46430   0.39265   0.00000  Uiso   1.00
H208   H     0.04348   0.45277   0.08948   0.00000  Uiso   1.00
H209   H     0.30034   0.56923   0.40370   0.00000  Uiso   1.00
H210   H     0.00462   0.60180   0.48577   0.00000  Uiso   1.00
H211   H     0.01491   0.43715   0.00267   0.00000  Uiso   1.00
H212   H     0.17156   0.58256   0.08057   0.00000  Uiso   1.00
N213   N     0.14695   0.48550   0.23739   0.00000  Uiso   1.00
N214   N     0.18638   0.51450   0.26260   0.00000  Uiso   1.00
O215   O     0.29719   0.57964   0.25309   0.00000  Uiso   1.00
O216   O     0.12742   0.35697   0.22477   0.00000  Uiso   1.00
O217   O     0.09651   0.61381   0.15921   0.00000  Uiso   1.00
O218   O     0.27523   0.63410   0.13925   0.00000  Uiso   1.00
O219   O     0.20889   0.62190   0.20372   0.00000  Uiso   1.00
O220   O     0.21977   0.38145   0.16596   0.00000  Uiso   1.00
O221   O     0.03614   0.42036   0.24690   0.00000  Uiso   1.00
O222   O     0.05822   0.57035   0.24501   0.00000  Uiso   1.00
O223   O     0.27512   0.42965   0.25498   0.00000  Uiso   1.00
O224   O     0.30328   0.50730   0.32247   0.00000  Uiso   1.00
O225   O     0.03005   0.49270   0.17753   0.00000  Uiso   1.00
O226   O     0.06431   0.49801   0.31439   0.00000  Uiso   1.00
O227   O     0.26902   0.50199   0.18561   0.00000  Uiso   1.00
O228   O     0.06337   0.37628   0.15608   0.00000  Uiso   1.00
S229   S     0.07816   0.33487   0.19097   0.00000  Uiso   1.00
S230   S     0.25152   0.66068   0.18309   0.00000  Uiso   1.00
Zn231  Zn    0.27033   0.50621   0.25539   0.00000  Uiso   1.00
Zn232  Zn    0.06300   0.49379   0.24460   0.00000  Uiso   1.00
C233   C     0.34768   0.59816   0.24391   0.00000  Uiso   1.00
C234   C     0.64563   0.49632   0.15897   0.00000  Uiso   1.00
C235   C     0.36680   0.51585   0.39281   0.00000  Uiso   1.00
C236   C     0.63558   0.49372   0.10639   0.00000  Uiso   1.00
C237   C     0.36040   0.57285   0.46535   0.00000  Uiso   1.00
C238   C     0.65495   0.45912   0.02610   0.00000  Uiso   1.00
C239   C     0.33829   0.55354   0.41924   0.00000  Uiso   1.00
C240   C     0.33800   0.46811   0.07536   0.00000  Uiso   1.00
C241   C     0.41554   0.49630   0.41290   0.00000  Uiso   1.00
C242   C     0.58648   0.51416   0.08768   0.00000  Uiso   1.00
C243   C     0.44203   0.51950   0.45620   0.00000  Uiso   1.00
C244   C     0.65062   0.40124   0.24483   0.00000  Uiso   1.00
C245   C     0.56990   0.50701   0.03832   0.00000  Uiso   1.00
C246   C     0.41267   0.55678   0.48367   0.00000  Uiso   1.00
C247   C     0.60342   0.47666   0.00777   0.00000  Uiso   1.00
C248   C     0.49706   0.50692   0.47237   0.00000  Uiso   1.00
C249   C     0.51856   0.52575   0.01960   0.00000  Uiso   1.00
C250   C     0.48832   0.56290   0.04639   0.00000  Uiso   1.00
C251   C     0.53201   0.47762   0.44226   0.00000  Uiso   1.00
C252   C     0.43647   0.57841   0.02837   0.00000  Uiso   1.00
C253   C     0.58455   0.46329   0.45969   0.00000  Uiso   1.00
C254   C     0.35354   0.65105   0.22725   0.00000  Uiso   1.00
C255   C     0.64101   0.34595   0.22752   0.00000  Uiso   1.00
C256   C     0.35454   0.50463   0.34096   0.00000  Uiso   1.00
H257   H     0.41497   0.60754   0.04945   0.00000  Uiso   1.00
H258   H     0.52084   0.46664   0.40437   0.00000  Uiso   1.00
H259   H     0.49544   0.45879   0.21264   0.00000  Uiso   1.00
H260   H     0.50461   0.54175   0.28694   0.00000  Uiso   1.00
H261   H     0.39479   0.60000   0.13966   0.00000  Uiso   1.00
H262   H     0.52883   0.36901   0.13643   0.00000  Uiso   1.00
H263   H     0.61001   0.44075   0.43566   0.00000  Uiso   1.00
H264   H     0.55959   0.53254   0.11302   0.00000  Uiso   1.00
H265   H     0.43329   0.46430   0.39265   0.00000  Uiso   1.00
H266   H     0.37681   0.45277   0.08948   0.00000  Uiso   1.00
H267   H     0.63367   0.56923   0.40370   0.00000  Uiso   1.00
H268   H     0.33795   0.60180   0.48577   0.00000  Uiso   1.00
H269   H     0.34824   0.43715   0.00267   0.00000  Uiso   1.00
H270   H     0.50490   0.58256   0.08057   0.00000  Uiso   1.00
N271   N     0.48029   0.48550   0.23739   0.00000  Uiso   1.00
N272   N     0.51971   0.51450   0.26260   0.00000  Uiso   1.00
O273   O     0.63052   0.57964   0.25309   0.00000  Uiso   1.00
O274   O     0.46075   0.35697   0.22477   0.00000  Uiso   1.00
O275   O     0.42984   0.61381   0.15921   0.00000  Uiso   1.00
O276   O     0.60856   0.63410   0.13925   0.00000  Uiso   1.00
O277   O     0.54222   0.62190   0.20372   0.00000  Uiso   1.00
O278   O     0.55311   0.38145   0.16596   0.00000  Uiso   1.00
O279   O     0.36948   0.42036   0.24690   0.00000  Uiso   1.00
O280   O     0.39155   0.57035   0.24501   0.00000  Uiso   1.00
O281   O     0.60845   0.42965   0.25498   0.00000  Uiso   1.00
O282   O     0.63662   0.50730   0.32247   0.00000  Uiso   1.00
O283   O     0.36338   0.49270   0.17753   0.00000  Uiso   1.00
O284   O     0.39764   0.49801   0.31439   0.00000  Uiso   1.00
O285   O     0.60236   0.50199   0.18561   0.00000  Uiso   1.00
O286   O     0.39670   0.37628   0.15608   0.00000  Uiso   1.00
S287   S     0.41150   0.33487   0.19097   0.00000  Uiso   1.00
S288   S     0.58485   0.66068   0.18309   0.00000  Uiso   1.00
Zn289  Zn    0.60366   0.50621   0.25539   0.00000  Uiso   1.00
Zn290  Zn    0.39634   0.49379   0.24460   0.00000  Uiso   1.00
C291   C     0.68101   0.59816   0.24391   0.00000  Uiso   1.00
C292   C     0.97897   0.49632   0.15897   0.00000  Uiso   1.00
C293   C     0.70014   0.51585   0.39281   0.00000  Uiso   1.00
C294   C     0.96891   0.49372   0.10639   0.00000  Uiso   1.00
C295   C     0.69373   0.57285   0.46535   0.00000  Uiso   1.00
C296   C     0.98828   0.45912   0.02610   0.00000  Uiso   1.00
C297   C     0.67162   0.55354   0.41924   0.00000  Uiso   1.00
C298   C     0.67133   0.46811   0.07536   0.00000  Uiso   1.00
C299   C     0.74887   0.49630   0.41290   0.00000  Uiso   1.00
C300   C     0.91981   0.51416   0.08768   0.00000  Uiso   1.00
C301   C     0.77536   0.51950   0.45620   0.00000  Uiso   1.00
C302   C     0.98395   0.40124   0.24483   0.00000  Uiso   1.00
C303   C     0.90323   0.50701   0.03832   0.00000  Uiso   1.00
C304   C     0.74600   0.55678   0.48367   0.00000  Uiso   1.00
C305   C     0.93676   0.47666   0.00777   0.00000  Uiso   1.00
C306   C     0.83040   0.50692   0.47237   0.00000  Uiso   1.00
C307   C     0.85190   0.52575   0.01960   0.00000  Uiso   1.00
C308   C     0.82166   0.56290   0.04639   0.00000  Uiso   1.00
C309   C     0.86534   0.47762   0.44226   0.00000  Uiso   1.00
C310   C     0.76980   0.57841   0.02837   0.00000  Uiso   1.00
C311   C     0.91788   0.46329   0.45969   0.00000  Uiso   1.00
C312   C     0.68688   0.65105   0.22725   0.00000  Uiso   1.00
C313   C     0.97434   0.34595   0.22752   0.00000  Uiso   1.00
C314   C     0.68788   0.50463   0.34096   0.00000  Uiso   1.00
H315   H     0.74830   0.60754   0.04945   0.00000  Uiso   1.00
H316   H     0.85418   0.46664   0.40437   0.00000  Uiso   1.00
H317   H     0.82877   0.45879   0.21264   0.00000  Uiso   1.00
H318   H     0.83795   0.54175   0.28694   0.00000  Uiso   1.00
H319   H     0.72813   0.60000   0.13966   0.00000  Uiso   1.00
H320   H     0.86216   0.36901   0.13643   0.00000  Uiso   1.00
H321   H     0.94334   0.44075   0.43566   0.00000  Uiso   1.00
H322   H     0.89293   0.53254   0.11302   0.00000  Uiso   1.00
H323   H     0.76662   0.46430   0.39265   0.00000  Uiso   1.00
H324   H     0.71015   0.45277   0.08948   0.00000  Uiso   1.00
H325   H     0.96700   0.56923   0.40370   0.00000  Uiso   1.00
H326   H     0.67128   0.60180   0.48577   0.00000  Uiso   1.00
H327   H     0.68158   0.43715   0.00267   0.00000  Uiso   1.00
H328   H     0.83823   0.58256   0.08057   0.00000  Uiso   1.00
N329   N     0.81362   0.48550   0.23739   0.00000  Uiso   1.00
N330   N     0.85305   0.51450   0.26260   0.00000  Uiso   1.00
O331   O     0.96386   0.57964   0.25309   0.00000  Uiso   1.00
O332   O     0.79408   0.35697   0.22477   0.00000  Uiso   1.00
O333   O     0.76318   0.61381   0.15921   0.00000  Uiso   1.00
O334   O     0.94190   0.63410   0.13925   0.00000  Uiso   1.00
O335   O     0.87556   0.62190   0.20372   0.00000  Uiso   1.00
O336   O     0.88644   0.38145   0.16596   0.00000  Uiso   1.00
O337   O     0.70281   0.42036   0.24690   0.00000  Uiso   1.00
O338   O     0.72488   0.57035   0.24501   0.00000  Uiso   1.00
O339   O     0.94178   0.42965   0.25498   0.00000  Uiso   1.00
O340   O     0.96995   0.50730   0.32247   0.00000  Uiso   1.00
O341   O     0.69672   0.49270   0.17753   0.00000  Uiso   1.00
O342   O     0.73098   0.49801   0.31439   0.00000  Uiso   1.00
O343   O     0.93569   0.50199   0.18561   0.00000  Uiso   1.00
O344   O     0.73003   0.37628   0.15608   0.00000  Uiso   1.00
S345   S     0.74483   0.33487   0.19097   0.00000  Uiso   1.00
S346   S     0.91818   0.66068   0.18309   0.00000  Uiso   1.00
Zn347  Zn    0.93700   0.50621   0.25539   0.00000  Uiso   1.00
Zn348  Zn    0.72967   0.49379   0.24460   0.00000  Uiso   1.00
C349   C     0.01434   0.93150   0.24391   0.00000  Uiso   1.00
C350   C     0.31230   0.82965   0.15897   0.00000  Uiso   1.00
C351   C     0.03347   0.84918   0.39281   0.00000  Uiso   1.00
C352   C     0.30225   0.82705   0.10639   0.00000  Uiso   1.00
C353   C     0.02707   0.90619   0.46535   0.00000  Uiso   1.00
C354   C     0.32161   0.79245   0.02610   0.00000  Uiso   1.00
C355   C     0.00496   0.88688   0.41924   0.00000  Uiso   1.00
C356   C     0.00466   0.80145   0.07536   0.00000  Uiso   1.00
C357   C     0.08220   0.82963   0.41290   0.00000  Uiso   1.00
C358   C     0.25314   0.84750   0.08768   0.00000  Uiso   1.00
C359   C     0.10869   0.85283   0.45620   0.00000  Uiso   1.00
C360   C     0.31729   0.73457   0.24483   0.00000  Uiso   1.00
C361   C     0.23657   0.84034   0.03832   0.00000  Uiso   1.00
C362   C     0.07934   0.89012   0.48367   0.00000  Uiso   1.00
C363   C     0.27009   0.80999   0.00777   0.00000  Uiso   1.00
C364   C     0.16373   0.84025   0.47237   0.00000  Uiso   1.00
C365   C     0.18523   0.85908   0.01960   0.00000  Uiso   1.00
C366   C     0.15499   0.89623   0.04639   0.00000  Uiso   1.00
C367   C     0.19868   0.81095   0.44226   0.00000  Uiso   1.00
C368   C     0.10313   0.91174   0.02837   0.00000  Uiso   1.00
C369   C     0.25122   0.79663   0.45969   0.00000  Uiso   1.00
C370   C     0.02021   0.98438   0.22725   0.00000  Uiso   1.00
C371   C     0.30767   0.67928   0.22752   0.00000  Uiso   1.00
C372   C     0.02121   0.83797   0.34096   0.00000  Uiso   1.00
H373   H     0.08164   0.94088   0.04945   0.00000  Uiso   1.00
H374   H     0.18751   0.79997   0.40437   0.00000  Uiso   1.00
H375   H     0.16210   0.79212   0.21264   0.00000  Uiso   1.00
H376   H     0.17128   0.87508   0.28694   0.00000  Uiso   1.00
H377   H     0.06146   0.93333   0.13966   0.00000  Uiso   1.00
H378   H     0.19550   0.70234   0.13643   0.00000  Uiso   1.00
H379   H     0.27668   0.77408   0.43566   0.00000  Uiso   1.00
H380   H     0.22626   0.86587   0.11302   0.00000  Uiso   1.00
H381   H     0.09995   0.79763   0.39265   0.00000  Uiso   1.00
H382   H     0.04348   0.78610   0.08948   0.00000  Uiso   1.00
H383   H     0.30034   0.90257   0.40370   0.00000  Uiso   1.00
H384   H     0.00462   0.93513   0.48577   0.00000  Uiso   1.00
H385   H     0.01491   0.77048   0.00267   0.00000  Uiso   1.00
H386   H     0.17156   0.91589   0.08057   0.00000  Uiso   1.00
N387   N     0.14695   0.81883   0.23739   0.00000  Uiso   1.00
N388   N     0.18638   0.84784   0.26260   0.00000  Uiso   1.00
O389   O     0.29719   0.91298   0.25309   0.00000  Uiso   1.00
O390   O     0.12742   0.69030   0.22477   0.00000  Uiso   1.00
O391   O     0.09651   0.94714   0.15921   0.00000  Uiso   1.00
O392   O     0.27523   0.96743   0.13925   0.00000  Uiso   1.00
O393   O     0.20889   0.95523   0.20372   0.00000  Uiso   1.00
O394   O     0.21977   0.71479   0.16596   0.00000  Uiso   1.00
O395   O     0.03614   0.75369   0.24690   0.00000  Uiso   1.00
O396   O     0.05822   0.90368   0.24501   0.00000  Uiso   1.00
O397   O     0.27512   0.76298   0.25498   0.00000  Uiso   1.00
O398   O     0.30328   0.84063   0.32247   0.00000  Uiso   1.00
O399   O     0.03005   0.82603   0.17753   0.00000  Uiso   1.00
O400   O     0.06431   0.83134   0.31439   0.00000  Uiso   1.00
O401   O     0.26902   0.83533   0.18561   0.00000  Uiso   1.00
O402   O     0.06337   0.70961   0.15608   0.00000  Uiso   1.00
S403   S     0.07816   0.66821   0.19097   0.00000  Uiso   1.00
S404   S     0.25152   0.99401   0.18309   0.00000  Uiso   1.00
Zn405  Zn    0.27033   0.83954   0.25539   0.00000  Uiso   1.00
Zn406  Zn    0.06300   0.82713   0.24460   0.00000  Uiso   1.00
C407   C     0.34768   0.93150   0.24391   0.00000  Uiso   1.00
C408   C     0.64563   0.82965   0.15897   0.00000  Uiso   1.00
C409   C     0.36680   0.84918   0.39281   0.00000  Uiso   1.00
C410   C     0.63558   0.82705   0.10639   0.00000  Uiso   1.00
C411   C     0.36040   0.90619   0.46535   0.00000  Uiso   1.00
C412   C     0.65495   0.79245   0.02610   0.00000  Uiso   1.00
C413   C     0.33829   0.88688   0.41924   0.00000  Uiso   1.00
C414   C     0.33800   0.80145   0.07536   0.00000  Uiso   1.00
C415   C     0.41554   0.82963   0.41290   0.00000  Uiso   1.00
C416   C     0.58648   0.84750   0.08768   0.00000  Uiso   1.00
C417   C     0.44203   0.85283   0.45620   0.00000  Uiso   1.00
C418   C     0.65062   0.73457   0.24483   0.00000  Uiso   1.00
C419   C     0.56990   0.84034   0.03832   0.00000  Uiso   1.00
C420   C     0.41267   0.89012   0.48367   0.00000  Uiso   1.00
C421   C     0.60342   0.80999   0.00777   0.00000  Uiso   1.00
C422   C     0.49706   0.84025   0.47237   0.00000  Uiso   1.00
C423   C     0.51856   0.85908   0.01960   0.00000  Uiso   1.00
C424   C     0.48832   0.89623   0.04639   0.00000  Uiso   1.00
C425   C     0.53201   0.81095   0.44226   0.00000  Uiso   1.00
C426   C     0.43647   0.91174   0.02837   0.00000  Uiso   1.00
C427   C     0.58455   0.79663   0.45969   0.00000  Uiso   1.00
C428   C     0.35354   0.98438   0.22725   0.00000  Uiso   1.00
C429   C     0.64101   0.67928   0.22752   0.00000  Uiso   1.00
C430   C     0.35454   0.83797   0.34096   0.00000  Uiso   1.00
H431   H     0.41497   0.94088   0.04945   0.00000  Uiso   1.00
H432   H     0.52084   0.79997   0.40437   0.00000  Uiso   1.00
H433   H     0.49544   0.79212   0.21264   0.00000  Uiso   1.00
H434   H     0.50461   0.87508   0.28694   0.00000  Uiso   1.00
H435   H     0.39479   0.93333   0.13966   0.00000  Uiso   1.00
H436   H     0.52883   0.70234   0.13643   0.00000  Uiso   1.00
H437   H     0.61001   0.77408   0.43566   0.00000  Uiso   1.00
H438   H     0.55959   0.86587   0.11302   0.00000  Uiso   1.00
H439   H     0.43329   0.79763   0.39265   0.00000  Uiso   1.00
H440   H     0.37681   0.78610   0.08948   0.00000  Uiso   1.00
H441   H     0.63367   0.90257   0.40370   0.00000  Uiso   1.00
H442   H     0.33795   0.93513   0.48577   0.00000  Uiso   1.00
H443   H     0.34824   0.77048   0.00267   0.00000  Uiso   1.00
H444   H     0.50490   0.91589   0.08057   0.00000  Uiso   1.00
N445   N     0.48029   0.81883   0.23739   0.00000  Uiso   1.00
N446   N     0.51971   0.84784   0.26260   0.00000  Uiso   1.00
O447   O     0.63052   0.91298   0.25309   0.00000  Uiso   1.00
O448   O     0.46075   0.69030   0.22477   0.00000  Uiso   1.00
O449   O     0.42984   0.94714   0.15921   0.00000  Uiso   1.00
O450   O     0.60856   0.96743   0.13925   0.00000  Uiso   1.00
O451   O     0.54222   0.95523   0.20372   0.00000  Uiso   1.00
O452   O     0.55311   0.71479   0.16596   0.00000  Uiso   1.00
O453   O     0.36948   0.75369   0.24690   0.00000  Uiso   1.00
O454   O     0.39155   0.90368   0.24501   0.00000  Uiso   1.00
O455   O     0.60845   0.76298   0.25498   0.00000  Uiso   1.00
O456   O     0.63662   0.84063   0.32247   0.00000  Uiso   1.00
O457   O     0.36338   0.82603   0.17753   0.00000  Uiso   1.00
O458   O     0.39764   0.83134   0.31439   0.00000  Uiso   1.00
O459   O     0.60236   0.83533   0.18561   0.00000  Uiso   1.00
O460   O     0.39670   0.70961   0.15608   0.00000  Uiso   1.00
S461   S     0.41150   0.66821   0.19097   0.00000  Uiso   1.00
S462   S     0.58485   0.99401   0.18309   0.00000  Uiso   1.00
Zn463  Zn    0.60366   0.83954   0.25539   0.00000  Uiso   1.00
Zn464  Zn    0.39634   0.82713   0.24460   0.00000  Uiso   1.00
C465   C     0.68101   0.93150   0.24391   0.00000  Uiso   1.00
C466   C     0.97897   0.82965   0.15897   0.00000  Uiso   1.00
C467   C     0.70014   0.84918   0.39281   0.00000  Uiso   1.00
C468   C     0.96891   0.82705   0.10639   0.00000  Uiso   1.00
C469   C     0.69373   0.90619   0.46535   0.00000  Uiso   1.00
C470   C     0.98828   0.79245   0.02610   0.00000  Uiso   1.00
C471   C     0.67162   0.88688   0.41924   0.00000  Uiso   1.00
C472   C     0.67133   0.80145   0.07536   0.00000  Uiso   1.00
C473   C     0.74887   0.82963   0.41290   0.00000  Uiso   1.00
C474   C     0.91981   0.84750   0.08768   0.00000  Uiso   1.00
C475   C     0.77536   0.85283   0.45620   0.00000  Uiso   1.00
C476   C     0.98395   0.73457   0.24483   0.00000  Uiso   1.00
C477   C     0.90323   0.84034   0.03832   0.00000  Uiso   1.00
C478   C     0.74600   0.89012   0.48367   0.00000  Uiso   1.00
C479   C     0.93676   0.80999   0.00777   0.00000  Uiso   1.00
C480   C     0.83040   0.84025   0.47237   0.00000  Uiso   1.00
C481   C     0.85190   0.85908   0.01960   0.00000  Uiso   1.00
C482   C     0.82166   0.89623   0.04639   0.00000  Uiso   1.00
C483   C     0.86534   0.81095   0.44226   0.00000  Uiso   1.00
C484   C     0.76980   0.91174   0.02837   0.00000  Uiso   1.00
C485   C     0.91788   0.79663   0.45969   0.00000  Uiso   1.00
C486   C     0.68688   0.98438   0.22725   0.00000  Uiso   1.00
C487   C     0.97434   0.67928   0.22752   0.00000  Uiso   1.00
C488   C     0.68788   0.83797   0.34096   0.00000  Uiso   1.00
H489   H     0.74830   0.94088   0.04945   0.00000  Uiso   1.00
H490   H     0.85418   0.79997   0.40437   0.00000  Uiso   1.00
H491   H     0.82877   0.79212   0.21264   0.00000  Uiso   1.00
H492   H     0.83795   0.87508   0.28694   0.00000  Uiso   1.00
H493   H     0.72813   0.93333   0.13966   0.00000  Uiso   1.00
H494   H     0.86216   0.70234   0.13643   0.00000  Uiso   1.00
H495   H     0.94334   0.77408   0.43566   0.00000  Uiso   1.00
H496   H     0.89293   0.86587   0.11302   0.00000  Uiso   1.00
H497   H     0.76662   0.79763   0.39265   0.00000  Uiso   1.00
H498   H     0.71015   0.78610   0.08948   0.00000  Uiso   1.00
H499   H     0.96700   0.90257   0.40370   0.00000  Uiso   1.00
H500   H     0.67128   0.93513   0.48577   0.00000  Uiso   1.00
H501   H     0.68158   0.77048   0.00267   0.00000  Uiso   1.00
H502   H     0.83823   0.91589   0.08057   0.00000  Uiso   1.00
N503   N     0.81362   0.81883   0.23739   0.00000  Uiso   1.00
N504   N     0.85305   0.84784   0.26260   0.00000  Uiso   1.00
O505   O     0.96386   0.91298   0.25309   0.00000  Uiso   1.00
O506   O     0.79408   0.69030   0.22477   0.00000  Uiso   1.00
O507   O     0.76318   0.94714   0.15921   0.00000  Uiso   1.00
O508   O     0.94190   0.96743   0.13925   0.00000  Uiso   1.00
O509   O     0.87556   0.95523   0.20372   0.00000  Uiso   1.00
O510   O     0.88644   0.71479   0.16596   0.00000  Uiso   1.00
O511   O     0.70281   0.75369   0.24690   0.00000  Uiso   1.00
O512   O     0.72488   0.90368   0.24501   0.00000  Uiso   1.00
O513   O     0.94178   0.76298   0.25498   0.00000  Uiso   1.00
O514   O     0.96995   0.84063   0.32247   0.00000  Uiso   1.00
O515   O     0.69672   0.82603   0.17753   0.00000  Uiso   1.00
O516   O     0.73098   0.83134   0.31439   0.00000  Uiso   1.00
O517   O     0.93569   0.83533   0.18561   0.00000  Uiso   1.00
O518   O     0.73003   0.70961   0.15608   0.00000  Uiso   1.00
S519   S     0.74483   0.66821   0.19097   0.00000  Uiso   1.00
S520   S     0.91818   0.99401   0.18309   0.00000  Uiso   1.00
Zn521  Zn    0.93700   0.83954   0.25539   0.00000  Uiso   1.00
Zn522  Zn    0.72967   0.82713   0.24460   0.00000  Uiso   1.00
C523   C     0.01434   0.26483   0.74391   0.00000  Uiso   1.00
C524   C     0.31230   0.16299   0.65897   0.00000  Uiso   1.00
C525   C     0.03347   0.18251   0.89281   0.00000  Uiso   1.00
C526   C     0.30225   0.16039   0.60639   0.00000  Uiso   1.00
C527   C     0.02707   0.23952   0.96535   0.00000  Uiso   1.00
C528   C     0.32161   0.12578   0.52610   0.00000  Uiso   1.00
C529   C     0.00496   0.22021   0.91924   0.00000  Uiso   1.00
C530   C     0.00466   0.13478   0.57536   0.00000  Uiso   1.00
C531   C     0.08220   0.16297   0.91290   0.00000  Uiso   1.00
C532   C     0.25314   0.18083   0.58768   0.00000  Uiso   1.00
C533   C     0.10869   0.18617   0.95620   0.00000  Uiso   1.00
C534   C     0.31729   0.06790   0.74483   0.00000  Uiso   1.00
C535   C     0.23657   0.17368   0.53832   0.00000  Uiso   1.00
C536   C     0.07934   0.22345   0.98367   0.00000  Uiso   1.00
C537   C     0.27009   0.14333   0.50777   0.00000  Uiso   1.00
C538   C     0.16373   0.17358   0.97237   0.00000  Uiso   1.00
C539   C     0.18523   0.19241   0.51960   0.00000  Uiso   1.00
C540   C     0.15499   0.22957   0.54639   0.00000  Uiso   1.00
C541   C     0.19868   0.14428   0.94226   0.00000  Uiso   1.00
C542   C     0.10313   0.24507   0.52837   0.00000  Uiso   1.00
C543   C     0.25122   0.12996   0.95969   0.00000  Uiso   1.00
C544   C     0.02021   0.31771   0.72725   0.00000  Uiso   1.00
C545   C     0.30767   0.01262   0.72752   0.00000  Uiso   1.00
C546   C     0.02121   0.17130   0.84096   0.00000  Uiso   1.00
H547   H     0.08164   0.27421   0.54945   0.00000  Uiso   1.00
H548   H     0.18751   0.13331   0.90437   0.00000  Uiso   1.00
H549   H     0.16210   0.12545   0.71264   0.00000  Uiso   1.00
H550   H     0.17128   0.20842   0.78694   0.00000  Uiso   1.00
H551   H     0.06146   0.26667   0.63966   0.00000  Uiso   1.00
H552   H     0.19550   0.03568   0.63643   0.00000  Uiso   1.00
H553   H     0.27668   0.10741   0.93566   0.00000  Uiso   1.00
H554   H     0.22626   0.19920   0.61302   0.00000  Uiso   1.00
H555   H     0.09995   0.13097   0.89265   0.00000  Uiso   1.00
H556   H     0.04348   0.11943   0.58948   0.00000  Uiso   1.00
H557   H     0.30034   0.23590   0.90370   0.00000  Uiso   1.00
H558   H     0.00462   0.26847   0.98577   0.00000  Uiso   1.00
H559   H     0.01491   0.10381   0.50267   0.00000  Uiso   1.00
H560   H     0.17156   0.24923   0.58057   0.00000  Uiso   1.00
N561   N     0.14695   0.15216   0.73739   0.00000  Uiso   1.00
N562   N     0.18638   0.18117   0.76260   0.00000  Uiso   1.00
O563   O     0.29719   0.24631   0.75309   0.00000  Uiso   1.00
O564   O     0.12742   0.02364   0.72477   0.00000  Uiso   1.00
O565   O     0.09651   0.28047   0.65921   0.00000  Uiso   1.00
O566   O     0.27523   0.30076   0.63925   0.00000  Uiso   1.00
O567   O     0.20889   0.28857   0.70372   0.00000  Uiso   1.00
O568   O     0.21977   0.04812   0.66596   0.00000  Uiso   1.00
O569   O     0.03614   0.08702   0.74690   0.00000  Uiso   1.00
O570   O     0.05822   0.23702   0.74501   0.00000  Uiso   1.00
O571   O     0.27512   0.09632   0.75498   0.00000  Uiso   1.00
O572   O     0.30328   0.17397   0.82247   0.00000  Uiso   1.00
O573   O     0.03005   0.15937   0.67753   0.00000  Uiso   1.00
O574   O     0.06431   0.16467   0.81439   0.00000  Uiso   1.00
O575   O     0.26902   0.16866   0.68561   0.00000  Uiso   1.00
O576   O     0.06337   0.04295   0.65608   0.00000  Uiso   1.00
S577   S     0.07816   0.00154   0.69097   0.00000  Uiso   1.00
S578   S     0.25152   0.32734   0.68309   0.00000  Uiso   1.00
Zn579  Zn    0.27033   0.17287   0.75539   0.00000  Uiso   1.00
Zn580  Zn    0.06300   0.16046   0.74460   0.00000  Uiso   1.00
C581   C     0.34768   0.26483   0.74391   0.00000  Uiso   1.00
C582   C     0.64563   0.16299   0.65897   0.00000  Uiso   1.00
C583   C     0.36680   0.18251   0.89281   0.00000  Uiso   1.00
C584   C     0.63558   0.16039   0.60639   0.00000  Uiso   1.00
C585   C     0.36040   0.23952   0.96535   0.00000  Uiso   1.00
C586   C     0.65495   0.12578   0.52610   0.00000  Uiso   1.00
C587   C     0.33829   0.22021   0.91924   0.00000  Uiso   1.00
C588   C     0.33800   0.13478   0.57536   0.00000  Uiso   1.00
C589   C     0.41554   0.16297   0.91290   0.00000  Uiso   1.00
C590   C     0.58648   0.18083   0.58768   0.00000  Uiso   1.00
C591   C     0.44203   0.18617   0.95620   0.00000  Uiso   1.00
C592   C     0.65062   0.06790   0.74483   0.00000  Uiso   1.00
C593   C     0.56990   0.17368   0.53832   0.00000  Uiso   1.00
C594   C     0.41267   0.22345   0.98367   0.00000  Uiso   1.00
C595   C     0.60342   0.14333   0.50777   0.00000  Uiso   1.00
C596   C     0.49706   0.17358   0.97237   0.00000  Uiso   1.00
C597   C     0.51856   0.19241   0.51960   0.00000  Uiso   1.00
C598   C     0.48832   0.22957   0.54639   0.00000  Uiso   1.00
C599   C     0.53201   0.14428   0.94226   0.00000  Uiso   1.00
C600   C     0.43647   0.24507   0.52837   0.00000  Uiso   1.00
C601   C     0.58455   0.12996   0.95969   0.00000  Uiso   1.00
C602   C     0.35354   0.31771   0.72725   0.00000  Uiso   1.00
C603   C     0.64101   0.01262   0.72752   0.00000  Uiso   1.00
C604   C     0.35454   0.17130   0.84096   0.00000  Uiso   1.00
H605   H     0.41497   0.27421   0.54945   0.00000  Uiso   1.00
H606   H     0.52084   0.13331   0.90437   0.00000  Uiso   1.00
H607   H     0.49544   0.12545   0.71264   0.00000  Uiso   1.00
H608   H     0.50461   0.20842   0.78694   0.00000  Uiso   1.00
H609   H     0.39479   0.26667   0.63966   0.00000  Uiso   1.00
H610   H     0.52883   0.03568   0.63643   0.00000  Uiso   1.00
H611   H     0.61001   0.10741   0.93566   0.00000  Uiso   1.00
H612   H     0.55959   0.19920   0.61302   0.00000  Uiso   1.00
H613   H     0.43329   0.13097   0.89265   0.00000  Uiso   1.00
H614   H     0.37681   0.11943   0.58948   0.00000  Uiso   1.00
H615   H     0.63367   0.23590   0.90370   0.00000  Uiso   1.00
H616   H     0.33795   0.26847   0.98577   0.00000  Uiso   1.00
H617   H     0.34824   0.10381   0.50267   0.00000  Uiso   1.00
H618   H     0.50490   0.24923   0.58057   0.00000  Uiso   1.00
N619   N     0.48029   0.15216   0.73739   0.00000  Uiso   1.00
N620   N     0.51971   0.18117   0.76260   0.00000  Uiso   1.00
O621   O     0.63052   0.24631   0.75309   0.00000  Uiso   1.00
O622   O     0.46075   0.02364   0.72477   0.00000  Uiso   1.00
O623   O     0.42984   0.28047   0.65921   0.00000  Uiso   1.00
O624   O     0.60856   0.30076   0.63925   0.00000  Uiso   1.00
O625   O     0.54222   0.28857   0.70372   0.00000  Uiso   1.00
O626   O     0.55311   0.04812   0.66596   0.00000  Uiso   1.00
O627   O     0.36948   0.08702   0.74690   0.00000  Uiso   1.00
O628   O     0.39155   0.23702   0.74501   0.00000  Uiso   1.00
O629   O     0.60845   0.09632   0.75498   0.00000  Uiso   1.00
O630   O     0.63662   0.17397   0.82247   0.00000  Uiso   1.00
O631   O     0.36338   0.15937   0.67753   0.00000  Uiso   1.00
O632   O     0.39764   0.16467   0.81439   0.00000  Uiso   1.00
O633   O     0.60236   0.16866   0.68561   0.00000  Uiso   1.00
O634   O     0.39670   0.04295   0.65608   0.00000  Uiso   1.00
S635   S     0.41150   0.00154   0.69097   0.00000  Uiso   1.00
S636   S     0.58485   0.32734   0.68309   0.00000  Uiso   1.00
Zn637  Zn    0.60366   0.17287   0.75539   0.00000  Uiso   1.00
Zn638  Zn    0.39634   0.16046   0.74460   0.00000  Uiso   1.00
C639   C     0.68101   0.26483   0.74391   0.00000  Uiso   1.00
C640   C     0.97897   0.16299   0.65897   0.00000  Uiso   1.00
C641   C     0.70014   0.18251   0.89281   0.00000  Uiso   1.00
C642   C     0.96891   0.16039   0.60639   0.00000  Uiso   1.00
C643   C     0.69373   0.23952   0.96535   0.00000  Uiso   1.00
C644   C     0.98828   0.12578   0.52610   0.00000  Uiso   1.00
C645   C     0.67162   0.22021   0.91924   0.00000  Uiso   1.00
C646   C     0.67133   0.13478   0.57536   0.00000  Uiso   1.00
C647   C     0.74887   0.16297   0.91290   0.00000  Uiso   1.00
C648   C     0.91981   0.18083   0.58768   0.00000  Uiso   1.00
C649   C     0.77536   0.18617   0.95620   0.00000  Uiso   1.00
C650   C     0.98395   0.06790   0.74483   0.00000  Uiso   1.00
C651   C     0.90323   0.17368   0.53832   0.00000  Uiso   1.00
C652   C     0.74600   0.22345   0.98367   0.00000  Uiso   1.00
C653   C     0.93676   0.14333   0.50777   0.00000  Uiso   1.00
C654   C     0.83040   0.17358   0.97237   0.00000  Uiso   1.00
C655   C     0.85190   0.19241   0.51960   0.00000  Uiso   1.00
C656   C     0.82166   0.22957   0.54639   0.00000  Uiso   1.00
C657   C     0.86534   0.14428   0.94226   0.00000  Uiso   1.00
C658   C     0.76980   0.24507   0.52837   0.00000  Uiso   1.00
C659   C     0.91788   0.12996   0.95969   0.00000  Uiso   1.00
C660   C     0.68688   0.31771   0.72725   0.00000  Uiso   1.00
C661   C     0.97434   0.01262   0.72752   0.00000  Uiso   1.00
C662   C     0.68788   0.17130   0.84096   0.00000  Uiso   1.00
H663   H     0.74830   0.27421   0.54945   0.00000  Uiso   1.00
H664   H     0.85418   0.13331   0.90437   0.00000  Uiso   1.00
H665   H     0.82877   0.12545   0.71264   0.00000  Uiso   1.00
H666   H     0.83795   0.20842   0.78694   0.00000  Uiso   1.00
H667   H     0.72813   0.26667   0.63966   0.00000  Uiso   1.00
H668   H     0.86216   0.03568   0.63643   0.00000  Uiso   1.00
H669   H     0.94334   0.10741   0.93566   0.00000  Uiso   1.00
H670   H     0.89293   0.19920   0.61302   0.00000  Uiso   1.00
H671   H     0.76662   0.13097   0.89265   0.00000  Uiso   1.00
H672   H     0.71015   0.11943   0.58948   0.00000  Uiso   1.00
H673   H     0.96700   0.23590   0.90370   0.00000  Uiso   1.00
H674   H     0.67128   0.26847   0.98577   0.00000  Uiso   1.00
H675   H     0.68158   0.10381   0.50267   0.00000  Uiso   1.00
H676   H     0.83823   0.24923   0.58057   0.00000  Uiso   1.00
N677   N     0.81362   0.15216   0.73739   0.00000  Uiso   1.00
N678   N     0.85305   0.18117   0.76260   0.00000  Uiso   1.00
O679   O     0.96386   0.24631   0.75309   0.00000  Uiso   1.00
O680   O     0.79408   0.02364   0.72477   0.00000  Uiso   1.00
O681   O     0.76318   0.28047   0.65921   0.00000  Uiso   1.00
O682   O     0.94190   0.30076   0.63925   0.00000  Uiso   1.00
O683   O     0.87556   0.28857   0.70372   0.00000  Uiso   1.00
O684   O     0.88644   0.04812   0.66596   0.00000  Uiso   1.00
O685   O     0.70281   0.08702   0.74690   0.00000  Uiso   1.00
O686   O     0.72488   0.23702   0.74501   0.00000  Uiso   1.00
O687   O     0.94178   0.09632   0.75498   0.00000  Uiso   1.00
O688   O     0.96995   0.17397   0.82247   0.00000  Uiso   1.00
O689   O     0.69672   0.15937   0.67753   0.00000  Uiso   1.00
O690   O     0.73098   0.16467   0.81439   0.00000  Uiso   1.00
O691   O     0.93569   0.16866   0.68561   0.00000  Uiso   1.00
O692   O     0.73003   0.04295   0.65608   0.00000  Uiso   1.00
S693   S     0.74483   0.00154   0.69097   0.00000  Uiso   1.00
S694   S     0.91818   0.32734   0.68309   0.00000  Uiso   1.00
Zn695  Zn    0.93700   0.17287   0.75539   0.00000  Uiso   1.00
Zn696  Zn    0.72967   0.16046   0.74460   0.00000  Uiso   1.00
C697   C     0.01434   0.59816   0.74391   0.00000  Uiso   1.00
C698   C     0.31230   0.49632   0.65897   0.00000  Uiso   1.00
C699   C     0.03347   0.51585   0.89281   0.00000  Uiso   1.00
C700   C     0.30225   0.49372   0.60639   0.00000  Uiso   1.00
C701   C     0.02707   0.57285   0.96535   0.00000  Uiso   1.00
C702   C     0.32161   0.45912   0.52610   0.00000  Uiso   1.00
C703   C     0.00496   0.55354   0.91924   0.00000  Uiso   1.00
C704   C     0.00466   0.46811   0.57536   0.00000  Uiso   1.00
C705   C     0.08220   0.49630   0.91290   0.00000  Uiso   1.00
C706   C     0.25314   0.51416   0.58768   0.00000  Uiso   1.00
C707   C     0.10869   0.51950   0.95620   0.00000  Uiso   1.00
C708   C     0.31729   0.40124   0.74483   0.00000  Uiso   1.00
C709   C     0.23657   0.50701   0.53832   0.00000  Uiso   1.00
C710   C     0.07934   0.55678   0.98367   0.00000  Uiso   1.00
C711   C     0.27009   0.47666   0.50777   0.00000  Uiso   1.00
C712   C     0.16373   0.50692   0.97237   0.00000  Uiso   1.00
C713   C     0.18523   0.52575   0.51960   0.00000  Uiso   1.00
C714   C     0.15499   0.56290   0.54639   0.00000  Uiso   1.00
C715   C     0.19868   0.47762   0.94226   0.00000  Uiso   1.00
C716   C     0.10313   0.57841   0.52837   0.00000  Uiso   1.00
C717   C     0.25122   0.46329   0.95969   0.00000  Uiso   1.00
C718   C     0.02021   0.65105   0.72725   0.00000  Uiso   1.00
C719   C     0.30767   0.34595   0.72752   0.00000  Uiso   1.00
C720   C     0.02121   0.50463   0.84096   0.00000  Uiso   1.00
H721   H     0.08164   0.60754   0.54945   0.00000  Uiso   1.00
H722   H     0.18751   0.46664   0.90437   0.00000  Uiso   1.00
H723   H     0.16210   0.45879   0.71264   0.00000  Uiso   1.00
H724   H     0.17128   0.54175   0.78694   0.00000  Uiso   1.00
H725   H     0.06146   0.60000   0.63966   0.00000  Uiso   1.00
H726   H     0.19550   0.36901   0.63643   0.00000  Uiso   1.00
H727   H     0.27668   0.44075   0.93566   0.00000  Uiso   1.00
H728   H     0.22626   0.53254   0.61302   0.00000  Uiso   1.00
H729   H     0.09995   0.46430   0.89265   0.00000  Uiso   1.00
H730   H     0.04348   0.45277   0.58948   0.00000  Uiso   1.00
H731   H     0.30034   0.56923   0.90370   0.00000  Uiso   1.00
H732   H     0.00462   0.60180   0.98577   0.00000  Uiso   1.00
H733   H     0.01491   0.43715   0.50267   0.00000  Uiso   1.00
H734   H     0.17156   0.58256   0.58057   0.00000  Uiso   1.00
N735   N     0.14695   0.48550   0.73739   0.00000  Uiso   1.00
N736   N     0.18638   0.51450   0.76260   0.00000  Uiso   1.00
O737   O     0.29719   0.57964   0.75309   0.00000  Uiso   1.00
O738   O     0.12742   0.35697   0.72477   0.00000  Uiso   1.00
O739   O     0.09651   0.61381   0.65921   0.00000  Uiso   1.00
O740   O     0.27523   0.63410   0.63925   0.00000  Uiso   1.00
O741   O     0.20889   0.62190   0.70372   0.00000  Uiso   1.00
O742   O     0.21977   0.38145   0.66596   0.00000  Uiso   1.00
O743   O     0.03614   0.42036   0.74690   0.00000  Uiso   1.00
O744   O     0.05822   0.57035   0.74501   0.00000  Uiso   1.00
O745   O     0.27512   0.42965   0.75498   0.00000  Uiso   1.00
O746   O     0.30328   0.50730   0.82247   0.00000  Uiso   1.00
O747   O     0.03005   0.49270   0.67753   0.00000  Uiso   1.00
O748   O     0.06431   0.49801   0.81439   0.00000  Uiso   1.00
O749   O     0.26902   0.50199   0.68561   0.00000  Uiso   1.00
O750   O     0.06337   0.37628   0.65608   0.00000  Uiso   1.00
S751   S     0.07816   0.33487   0.69097   0.00000  Uiso   1.00
S752   S     0.25152   0.66068   0.68309   0.00000  Uiso   1.00
Zn753  Zn    0.27033   0.50621   0.75539   0.00000  Uiso   1.00
Zn754  Zn    0.06300   0.49379   0.74460   0.00000  Uiso   1.00
C755   C     0.34768   0.59816   0.74391   0.00000  Uiso   1.00
C756   C     0.64563   0.49632   0.65897   0.00000  Uiso   1.00
C757   C     0.36680   0.51585   0.89281   0.00000  Uiso   1.00
C758   C     0.63558   0.49372   0.60639   0.00000  Uiso   1.00
C759   C     0.36040   0.57285   0.96535   0.00000  Uiso   1.00
C760   C     0.65495   0.45912   0.52610   0.00000  Uiso   1.00
C761   C     0.33829   0.55354   0.91924   0.00000  Uiso   1.00
C762   C     0.33800   0.46811   0.57536   0.00000  Uiso   1.00
C763   C     0.41554   0.49630   0.91290   0.00000  Uiso   1.00
C764   C     0.58648   0.51416   0.58768   0.00000  Uiso   1.00
C765   C     0.44203   0.51950   0.95620   0.00000  Uiso   1.00
C766   C     0.65062   0.40124   0.74483   0.00000  Uiso   1.00
C767   C     0.56990   0.50701   0.53832   0.00000  Uiso   1.00
C768   C     0.41267   0.55678   0.98367   0.00000  Uiso   1.00
C769   C     0.60342   0.47666   0.50777   0.00000  Uiso   1.00
C770   C     0.49706   0.50692   0.97237   0.00000  Uiso   1.00
C771   C     0.51856   0.52575   0.51960   0.00000  Uiso   1.00
C772   C     0.48832   0.56290   0.54639   0.00000  Uiso   1.00
C773   C     0.53201   0.47762   0.94226   0.00000  Uiso   1.00
C774   C     0.43647   0.57841   0.52837   0.00000  Uiso   1.00
C775   C     0.58455   0.46329   0.95969   0.00000  Uiso   1.00
C776   C     0.35354   0.65105   0.72725   0.00000  Uiso   1.00
C777   C     0.64101   0.34595   0.72752   0.00000  Uiso   1.00
C778   C     0.35454   0.50463   0.84096   0.00000  Uiso   1.00
H779   H     0.41497   0.60754   0.54945   0.00000  Uiso   1.00
H780   H     0.52084   0.46664   0.90437   0.00000  Uiso   1.00
H781   H     0.49544   0.45879   0.71264   0.00000  Uiso   1.00
H782   H     0.50461   0.54175   0.78694   0.00000  Uiso   1.00
H783   H     0.39479   0.60000   0.63966   0.00000  Uiso   1.00
H784   H     0.52883   0.36901   0.63643   0.00000  Uiso   1.00
H785   H     0.61001   0.44075   0.93566   0.00000  Uiso   1.00
H786   H     0.55959   0.53254   0.61302   0.00000  Uiso   1.00
H787   H     0.43329   0.46430   0.89265   0.00000  Uiso   1.00
H788   H     0.37681   0.45277   0.58948   0.00000  Uiso   1.00
H789   H     0.63367   0.56923   0.90370   0.00000  Uiso   1.00
H790   H     0.33795   0.60180   0.98577   0.00000  Uiso   1.00
H791   H     0.34824   0.43715   0.50267   0.00000  Uiso   1.00
H792   H     0.50490   0.58256   0.58057   0.00000  Uiso   1.00
N793   N     0.48029   0.48550   0.73739   0.00000  Uiso   1.00
N794   N     0.51971   0.51450   0.76260   0.00000  Uiso   1.00
O795   O     0.63052   0.57964   0.75309   0.00000  Uiso   1.00
O796   O     0.46075   0.35697   0.72477   0.00000  Uiso   1.00
O797   O     0.42984   0.61381   0.65921   0.00000  Uiso   1.00
O798   O     0.60856   0.63410   0.63925   0.00000  Uiso   1.00
O799   O     0.54222   0.62190   0.70372   0.00000  Uiso   1.00
O800   O     0.55311   0.38145   0.66596   0.00000  Uiso   1.00
O801   O     0.36948   0.42036   0.74690   0.00000  Uiso   1.00
O802   O     0.39155   0.57035   0.74501   0.00000  Uiso   1.00
O803   O     0.60845   0.42965   0.75498   0.00000  Uiso   1.00
O804   O     0.63662   0.50730   0.82247   0.00000  Uiso   1.00
O805   O     0.36338   0.49270   0.67753   0.00000  Uiso   1.00
O806   O     0.39764   0.49801   0.81439   0.00000  Uiso   1.00
O807   O     0.60236   0.50199   0.68561   0.00000  Uiso   1.00
O808   O     0.39670   0.37628   0.65608   0.00000  Uiso   1.00
S809   S     0.41150   0.33487   0.69097   0.00000  Uiso   1.00
S810   S     0.58485   0.66068   0.68309   0.00000  Uiso   1.00
Zn811  Zn    0.60366   0.50621   0.75539   0.00000  Uiso   1.00
Zn812  Zn    0.39634   0.49379   0.74460   0.00000  Uiso   1.00
C813   C     0.68101   0.59816   0.74391   0.00000  Uiso   1.00
C814   C     0.97897   0.49632   0.65897   0.00000  Uiso   1.00
C815   C     0.70014   0.51585   0.89281   0.00000  Uiso   1.00
C816   C     0.96891   0.49372   0.60639   0.00000  Uiso   1.00
C817   C     0.69373   0.57285   0.96535   0.00000  Uiso   1.00
C818   C     0.98828   0.45912   0.52610   0.00000  Uiso   1.00
C819   C     0.67162   0.55354   0.91924   0.00000  Uiso   1.00
C820   C     0.67133   0.46811   0.57536   0.00000  Uiso   1.00
C821   C     0.74887   0.49630   0.91290   0.00000  Uiso   1.00
C822   C     0.91981   0.51416   0.58768   0.00000  Uiso   1.00
C823   C     0.77536   0.51950   0.95620   0.00000  Uiso   1.00
C824   C     0.98395   0.40124   0.74483   0.00000  Uiso   1.00
C825   C     0.90323   0.50701   0.53832   0.00000  Uiso   1.00
C826   C     0.74600   0.55678   0.98367   0.00000  Uiso   1.00
C827   C     0.93676   0.47666   0.50777   0.00000  Uiso   1.00
C828   C     0.83040   0.50692   0.97237   0.00000  Uiso   1.00
C829   C     0.85190   0.52575   0.51960   0.00000  Uiso   1.00
C830   C     0.82166   0.56290   0.54639   0.00000  Uiso   1.00
C831   C     0.86534   0.47762   0.94226   0.00000  Uiso   1.00
C832   C     0.76980   0.57841   0.52837   0.00000  Uiso   1.00
C833   C     0.91788   0.46329   0.95969   0.00000  Uiso   1.00
C834   C     0.68688   0.65105   0.72725   0.00000  Uiso   1.00
C835   C     0.97434   0.34595   0.72752   0.00000  Uiso   1.00
C836   C     0.68788   0.50463   0.84096   0.00000  Uiso   1.00
H837   H     0.74830   0.60754   0.54945   0.00000  Uiso   1.00
H838   H     0.85418   0.46664   0.90437   0.00000  Uiso   1.00
H839   H     0.82877   0.45879   0.71264   0.00000  Uiso   1.00
H840   H     0.83795   0.54175   0.78694   0.00000  Uiso   1.00
H841   H     0.72813   0.60000   0.63966   0.00000  Uiso   1.00
H842   H     0.86216   0.36901   0.63643   0.00000  Uiso   1.00
H843   H     0.94334   0.44075   0.93566   0.00000  Uiso   1.00
H844   H     0.89293   0.53254   0.61302   0.00000  Uiso   1.00
H845   H     0.76662   0.46430   0.89265   0.00000  Uiso   1.00
H846   H     0.71015   0.45277   0.58948   0.00000  Uiso   1.00
H847   H     0.96700   0.56923   0.90370   0.00000  Uiso   1.00
H848   H     0.67128   0.60180   0.98577   0.00000  Uiso   1.00
H849   H     0.68158   0.43715   0.50267   0.00000  Uiso   1.00
H850   H     0.83823   0.58256   0.58057   0.00000  Uiso   1.00
N851   N     0.81362   0.48550   0.73739   0.00000  Uiso   1.00
N852   N     0.85305   0.51450   0.76260   0.00000  Uiso   1.00
O853   O     0.96386   0.57964   0.75309   0.00000  Uiso   1.00
O854   O     0.79408   0.35697   0.72477   0.00000  Uiso   1.00
O855   O     0.76318   0.61381   0.65921   0.00000  Uiso   1.00
O856   O     0.94190   0.63410   0.63925   0.00000  Uiso   1.00
O857   O     0.87556   0.62190   0.70372   0.00000  Uiso   1.00
O858   O     0.88644   0.38145   0.66596   0.00000  Uiso   1.00
O859   O     0.70281   0.42036   0.74690   0.00000  Uiso   1.00
O860   O     0.72488   0.57035   0.74501   0.00000  Uiso   1.00
O861   O     0.94178   0.42965   0.75498   0.00000  Uiso   1.00
O862   O     0.96995   0.50730   0.82247   0.00000  Uiso   1.00
O863   O     0.69672   0.49270   0.67753   0.00000  Uiso   1.00
O864   O     0.73098   0.49801   0.81439   0.00000  Uiso   1.00
O865   O     0.93569   0.50199   0.68561   0.00000  Uiso   1.00
O866   O     0.73003   0.37628   0.65608   0.00000  Uiso   1.00
S867   S     0.74483   0.33487   0.69097   0.00000  Uiso   1.00
S868   S     0.91818   0.66068   0.68309   0.00000  Uiso   1.00
Zn869  Zn    0.93700   0.50621   0.75539   0.00000  Uiso   1.00
Zn870  Zn    0.72967   0.49379   0.74460   0.00000  Uiso   1.00
C871   C     0.01434   0.93150   0.74391   0.00000  Uiso   1.00
C872   C     0.31230   0.82965   0.65897   0.00000  Uiso   1.00
C873   C     0.03347   0.84918   0.89281   0.00000  Uiso   1.00
C874   C     0.30225   0.82705   0.60639   0.00000  Uiso   1.00
C875   C     0.02707   0.90619   0.96535   0.00000  Uiso   1.00
C876   C     0.32161   0.79245   0.52610   0.00000  Uiso   1.00
C877   C     0.00496   0.88688   0.91924   0.00000  Uiso   1.00
C878   C     0.00466   0.80145   0.57536   0.00000  Uiso   1.00
C879   C     0.08220   0.82963   0.91290   0.00000  Uiso   1.00
C880   C     0.25314   0.84750   0.58768   0.00000  Uiso   1.00
C881   C     0.10869   0.85283   0.95620   0.00000  Uiso   1.00
C882   C     0.31729   0.73457   0.74483   0.00000  Uiso   1.00
C883   C     0.23657   0.84034   0.53832   0.00000  Uiso   1.00
C884   C     0.07934   0.89012   0.98367   0.00000  Uiso   1.00
C885   C     0.27009   0.80999   0.50777   0.00000  Uiso   1.00
C886   C     0.16373   0.84025   0.97237   0.00000  Uiso   1.00
C887   C     0.18523   0.85908   0.51960   0.00000  Uiso   1.00
C888   C     0.15499   0.89623   0.54639   0.00000  Uiso   1.00
C889   C     0.19868   0.81095   0.94226   0.00000  Uiso   1.00
C890   C     0.10313   0.91174   0.52837   0.00000  Uiso   1.00
C891   C     0.25122   0.79663   0.95969   0.00000  Uiso   1.00
C892   C     0.02021   0.98438   0.72725   0.00000  Uiso   1.00
C893   C     0.30767   0.67928   0.72752   0.00000  Uiso   1.00
C894   C     0.02121   0.83797   0.84096   0.00000  Uiso   1.00
H895   H     0.08164   0.94088   0.54945   0.00000  Uiso   1.00
H896   H     0.18751   0.79997   0.90437   0.00000  Uiso   1.00
H897   H     0.16210   0.79212   0.71264   0.00000  Uiso   1.00
H898   H     0.17128   0.87508   0.78694   0.00000  Uiso   1.00
H899   H     0.06146   0.93333   0.63966   0.00000  Uiso   1.00
H900   H     0.19550   0.70234   0.63643   0.00000  Uiso   1.00
H901   H     0.27668   0.77408   0.93566   0.00000  Uiso   1.00
H902   H     0.22626   0.86587   0.61302   0.00000  Uiso   1.00
H903   H     0.09995   0.79763   0.89265   0.00000  Uiso   1.00
H904   H     0.04348   0.78610   0.58948   0.00000  Uiso   1.00
H905   H     0.30034   0.90257   0.90370   0.00000  Uiso   1.00
H906   H     0.00462   0.93513   0.98577   0.00000  Uiso   1.00
H907   H     0.01491   0.77048   0.50267   0.00000  Uiso   1.00
H908   H     0.17156   0.91589   0.58057   0.00000  Uiso   1.00
N909   N     0.14695   0.81883   0.73739   0.00000  Uiso   1.00
N910   N     0.18638   0.84784   0.76260   0.00000  Uiso   1.00
O911   O     0.29719   0.91298   0.75309   0.00000  Uiso   1.00
O912   O     0.12742   0.69030   0.72477   0.00000  Uiso   1.00
O913   O     0.09651   0.94714   0.65921   0.00000  Uiso   1.00
O914   O     0.27523   0.96743   0.63925   0.00000  Uiso   1.00
O915   O     0.20889   0.95523   0.70372   0.00000  Uiso   1.00
O916   O     0.21977   0.71479   0.66596   0.00000  Uiso   1.00
O917   O     0.03614   0.75369   0.74690   0.00000  Uiso   1.00
O918   O     0.05822   0.90368   0.74501   0.00000  Uiso   1.00
O919   O     0.27512   0.76298   0.75498   0.00000  Uiso   1.00
O920   O     0.30328   0.84063   0.82247   0.00000  Uiso   1.00
O921   O     0.03005   0.82603   0.67753   0.00000  Uiso   1.00
O922   O     0.06431   0.83134   0.81439   0.00000  Uiso   1.00
O923   O     0.26902   0.83533   0.68561   0.00000  Uiso   1.00
O924   O     0.06337   0.70961   0.65608   0.00000  Uiso   1.00
S925   S     0.07816   0.66821   0.69097   0.00000  Uiso   1.00
S926   S     0.25152   0.99401   0.68309   0.00000  Uiso   1.00
Zn927  Zn    0.27033   0.83954   0.75539   0.00000  Uiso   1.00
Zn928  Zn    0.06300   0.82713   0.74460   0.00000  Uiso   1.00
C929   C     0.34768   0.93150   0.74391   0.00000  Uiso   1.00
C930   C     0.64563   0.82965   0.65897   0.00000  Uiso   1.00
C931   C     0.36680   0.84918   0.89281   0.00000  Uiso   1.00
C932   C     0.63558   0.82705   0.60639   0.00000  Uiso   1.00
C933   C     0.36040   0.90619   0.96535   0.00000  Uiso   1.00
C934   C     0.65495   0.79245   0.52610   0.00000  Uiso   1.00
C935   C     0.33829   0.88688   0.91924   0.00000  Uiso   1.00
C936   C     0.33800   0.80145   0.57536   0.00000  Uiso   1.00
C937   C     0.41554   0.82963   0.91290   0.00000  Uiso   1.00
C938   C     0.58648   0.84750   0.58768   0.00000  Uiso   1.00
C939   C     0.44203   0.85283   0.95620   0.00000  Uiso   1.00
C940   C     0.65062   0.73457   0.74483   0.00000  Uiso   1.00
C941   C     0.56990   0.84034   0.53832   0.00000  Uiso   1.00
C942   C     0.41267   0.89012   0.98367   0.00000  Uiso   1.00
C943   C     0.60342   0.80999   0.50777   0.00000  Uiso   1.00
C944   C     0.49706   0.84025   0.97237   0.00000  Uiso   1.00
C945   C     0.51856   0.85908   0.51960   0.00000  Uiso   1.00
C946   C     0.48832   0.89623   0.54639   0.00000  Uiso   1.00
C947   C     0.53201   0.81095   0.94226   0.00000  Uiso   1.00
C948   C     0.43647   0.91174   0.52837   0.00000  Uiso   1.00
C949   C     0.58455   0.79663   0.95969   0.00000  Uiso   1.00
C950   C     0.35354   0.98438   0.72725   0.00000  Uiso   1.00
C951   C     0.64101   0.67928   0.72752   0.00000  Uiso   1.00
C952   C     0.35454   0.83797   0.84096   0.00000  Uiso   1.00
H953   H     0.41497   0.94088   0.54945   0.00000  Uiso   1.00
H954   H     0.52084   0.79997   0.90437   0.00000  Uiso   1.00
H955   H     0.49544   0.79212   0.71264   0.00000  Uiso   1.00
H956   H     0.50461   0.87508   0.78694   0.00000  Uiso   1.00
H957   H     0.39479   0.93333   0.63966   0.00000  Uiso   1.00
H958   H     0.52883   0.70234   0.63643   0.00000  Uiso   1.00
H959   H     0.61001   0.77408   0.93566   0.00000  Uiso   1.00
H960   H     0.55959   0.86587   0.61302   0.00000  Uiso   1.00
H961   H     0.43329   0.79763   0.89265   0.00000  Uiso   1.00
H962   H     0.37681   0.78610   0.58948   0.00000  Uiso   1.00
H963   H     0.63367   0.90257   0.90370   0.00000  Uiso   1.00
H964   H     0.33795   0.93513   0.98577   0.00000  Uiso   1.00
H965   H     0.34824   0.77048   0.50267   0.00000  Uiso   1.00
H966   H     0.50490   0.91589   0.58057   0.00000  Uiso   1.00
N967   N     0.48029   0.81883   0.73739   0.00000  Uiso   1.00
N968   N     0.51971   0.84784   0.76260   0.00000  Uiso   1.00
O969   O     0.63052   0.91298   0.75309   0.00000  Uiso   1.00
O970   O     0.46075   0.69030   0.72477   0.00000  Uiso   1.00
O971   O     0.42984   0.94714   0.65921   0.00000  Uiso   1.00
O972   O     0.60856   0.96743   0.63925   0.00000  Uiso   1.00
O973   O     0.54222   0.95523   0.70372   0.00000  Uiso   1.00
O974   O     0.55311   0.71479   0.66596   0.00000  Uiso   1.00
O975   O     0.36948   0.75369   0.74690   0.00000  Uiso   1.00
O976   O     0.39155   0.90368   0.74501   0.00000  Uiso   1.00
O977   O     0.60845   0.76298   0.75498   0.00000  Uiso   1.00
O978   O     0.63662   0.84063   0.82247   0.00000  Uiso   1.00
O979   O     0.36338   0.82603   0.67753   0.00000  Uiso   1.00
O980   O     0.39764   0.83134   0.81439   0.00000  Uiso   1.00
O981   O     0.60236   0.83533   0.68561   0.00000  Uiso   1.00
O982   O     0.39670   0.70961   0.65608   0.00000  Uiso   1.00
S983   S     0.41150   0.66821   0.69097   0.00000  Uiso   1.00
S984   S     0.58485   0.99401   0.68309   0.00000  Uiso   1.00
Zn985  Zn    0.60366   0.83954   0.75539   0.00000  Uiso   1.00
Zn986  Zn    0.39634   0.82713   0.74460   0.00000  Uiso   1.00
C987   C     0.68101   0.93150   0.74391   0.00000  Uiso   1.00
C988   C     0.97897   0.82965   0.65897   0.00000  Uiso   1.00
C989   C     0.70014   0.84918   0.89281   0.00000  Uiso   1.00
C990   C     0.96891   0.82705   0.60639   0.00000  Uiso   1.00
C991   C     0.69373   0.90619   0.96535   0.00000  Uiso   1.00
C992   C     0.98828   0.79245   0.52610   0.00000  Uiso   1.00
C993   C     0.67162   0.88688   0.91924   0.00000  Uiso   1.00
C994   C     0.67133   0.80145   0.57536   0.00000  Uiso   1.00
C995   C     0.74887   0.82963   0.91290   0.00000  Uiso   1.00
C996   C     0.91981   0.84750   0.58768   0.00000  Uiso   1.00
C997   C     0.77536   0.85283   0.95620   0.00000  Uiso   1.00
C998   C     0.98395   0.73457   0.74483   0.00000  Uiso   1.00
C999   C     0.90323   0.84034   0.53832   0.00000  Uiso   1.00
C1000  C     0.74600   0.89012   0.98367   0.00000  Uiso   1.00
C1001  C     0.93676   0.80999   0.50777   0.00000  Uiso   1.00
C1002  C     0.83040   0.84025   0.97237   0.00000  Uiso   1.00
C1003  C     0.85190   0.85908   0.51960   0.00000  Uiso   1.00
C1004  C     0.82166   0.89623   0.54639   0.00000  Uiso   1.00
C1005  C     0.86534   0.81095   0.94226   0.00000  Uiso   1.00
C1006  C     0.76980   0.91174   0.52837   0.00000  Uiso   1.00
C1007  C     0.91788   0.79663   0.95969   0.00000  Uiso   1.00
C1008  C     0.68688   0.98438   0.72725   0.00000  Uiso   1.00
C1009  C     0.97434   0.67928   0.72752   0.00000  Uiso   1.00
C1010  C     0.68788   0.83797   0.84096   0.00000  Uiso   1.00
H1011  H     0.74830   0.94088   0.54945   0.00000  Uiso   1.00
H1012  H     0.85418   0.79997   0.90437   0.00000  Uiso   1.00
H1013  H     0.82877   0.79212   0.71264   0.00000  Uiso   1.00
H1014  H     0.83795   0.87508   0.78694   0.00000  Uiso   1.00
H1015  H     0.72813   0.93333   0.63966   0.00000  Uiso   1.00
H1016  H     0.86216   0.70234   0.63643   0.00000  Uiso   1.00
H1017  H     0.94334   0.77408   0.93566   0.00000  Uiso   1.00
H1018  H     0.89293   0.86587   0.61302   0.00000  Uiso   1.00
H1019  H     0.76662   0.79763   0.89265   0.00000  Uiso   1.00
H1020  H     0.71015   0.78610   0.58948   0.00000  Uiso   1.00
H1021  H     0.96700   0.90257   0.90370   0.00000  Uiso   1.00
H1022  H     0.67128   0.93513   0.98577   0.00000  Uiso   1.00
H1023  H     0.68158   0.77048   0.50267   0.00000  Uiso   1.00
H1024  H     0.83823   0.91589   0.58057   0.00000  Uiso   1.00
N1025  N     0.81362   0.81883   0.73739   0.00000  Uiso   1.00
N1026  N     0.85305   0.84784   0.76260   0.00000  Uiso   1.00
O1027  O     0.96386   0.91298   0.75309   0.00000  Uiso   1.00
O1028  O     0.79408   0.69030   0.72477   0.00000  Uiso   1.00
O1029  O     0.76318   0.94714   0.65921   0.00000  Uiso   1.00
O1030  O     0.94190   0.96743   0.63925   0.00000  Uiso   1.00
O1031  O     0.87556   0.95523   0.70372   0.00000  Uiso   1.00
O1032  O     0.88644   0.71479   0.66596   0.00000  Uiso   1.00
O1033  O     0.70281   0.75369   0.74690   0.00000  Uiso   1.00
O1034  O     0.72488   0.90368   0.74501   0.00000  Uiso   1.00
O1035  O     0.94178   0.76298   0.75498   0.00000  Uiso   1.00
O1036  O     0.96995   0.84063   0.82247   0.00000  Uiso   1.00
O1037  O     0.69672   0.82603   0.67753   0.00000  Uiso   1.00
O1038  O     0.73098   0.83134   0.81439   0.00000  Uiso   1.00
O1039  O     0.93569   0.83533   0.68561   0.00000  Uiso   1.00
O1040  O     0.73003   0.70961   0.65608   0.00000  Uiso   1.00
S1041  S     0.74483   0.66821   0.69097   0.00000  Uiso   1.00
S1042  S     0.91818   0.99401   0.68309   0.00000  Uiso   1.00
Zn1043 Zn    0.93700   0.83954   0.75539   0.00000  Uiso   1.00
Zn1044 Zn    0.72967   0.82713   0.74460   0.00000  Uiso   1.00
loop_
_geom_bond_atom_site_label_1
_geom_bond_atom_site_label_2
_geom_bond_distance
_geom_bond_site_symmetry_2
_ccdc_geom_bond_type
C1     O48     1.294   .     A
C1     C22     1.430   .     S
C1     O157    1.287   1_455 S
C2     C4      1.452   .     S
C2     O53     1.301   .     A
C2     O109    1.295   .     S
C3     C9      1.385   .     A
C3     C24     1.449   .     S
C3     C7      1.400   .     A
C4     C10     1.389   .     A
C4     C66     1.399   .     S
C5     H36     1.084   .     S
C5     C7      1.394   .     A
C5     C14     1.404   .     A
C6     C15     1.403   .     A
C6     C66     1.392   .     S
C6     H95     1.084   .     S
C7     H151    1.083   1_455 S
C8     H34     1.083   .     S
C8     C120    1.399   1_455 S
C8     C122    1.392   1_455 S
C9     C11     1.393   .     A
C9     H33     1.079   .     S
C10    C13     1.392   .     A
C10    H32     1.077   .     S
C11    C16     1.415   .     A
C11    C14     1.418   .     A
C12    C23     1.442   .     S
C12    O49     1.303   .     A
C12    O105    1.283   .     S
C13    C17     1.415   .     A
C13    C15     1.418   .     A
C14    C542    1.390   .     S
C15    C543    1.389   1_554 S
C16    C19     1.418   .     A
C16    C539    1.414   .     S
C17    C18     1.419   .     A
C17    C538    1.414   1_554 S
C18    C20     1.388   .     A
C18    H38     1.078   .     S
C19    C21     1.386   .     A
C19    H26     1.078   .     S
C20    H25     1.084   .     S
C20    C536    1.390   1_554 S
C21    H31     1.084   .     S
C21    C537    1.389   .     S
C22    C313    1.340   1_455 S
C22    S229    1.776   .     S
C23    C428    1.340   1_545 S
C23    S404    1.771   1_545 S
C24    O52     1.300   .     A
C24    O166    1.295   1_455 S
H27    N39     1.028   .     S
H28    N40     1.029   .     S
H29    O43     0.990   .     S
H30    O46     0.991   .     S
H35    C65     1.083   .     S
H37    C122    1.084   1_455 S
N39    Zn58    2.026   .     S
N39    N40     1.284   .     D
N40    Zn57    2.026   .     S
O41    Zn57    1.911   .     S
O41    C59     1.287   .     S
O42    S55     1.501   .     D
O43    S229    1.682   .     S
O44    S56     1.503   .     D
O45    S56     1.501   .     D
O46    S404    1.682   1_545 S
O47    Zn58    1.911   .     S
O47    C128    1.283   1_455 S
O48    Zn58    1.938   .     S
O49    Zn57    1.938   .     S
O50    Zn57    1.963   .     S
O50    C82     1.295   .     S
O51    Zn58    1.963   .     S
O51    C118    1.295   1_455 S
O52    Zn58    1.917   .     S
O53    Zn57    1.917   .     S
O54    S55     1.503   .     D
S55    O391    1.682   1_545 S
S55    C370    1.776   1_545 S
S56    C197    1.771   .     S
S56    O220    1.682   .     S
C59    O106    1.294   .     A
C59    C80     1.430   .     S
C60    C62     1.452   .     S
C60    O111    1.301   .     A
C60    O167    1.295   .     S
C61    C67     1.385   .     A
C61    C82     1.449   .     S
C61    C65     1.400   .     A
C62    C68     1.389   .     A
C62    C124    1.399   .     S
C63    H94     1.084   .     S
C63    C65     1.394   .     A
C63    C72     1.404   .     A
C64    C73     1.403   .     A
C64    C124    1.392   .     S
C64    H153    1.084   .     S
C66    H92     1.083   .     S
C67    C69     1.393   .     A
C67    H91     1.079   .     S
C68    C71     1.392   .     A
C68    H90     1.077   .     S
C69    C74     1.415   .     A
C69    C72     1.418   .     A
C70    C81     1.442   .     S
C70    O107    1.303   .     A
C70    O163    1.283   .     S
C71    C75     1.415   .     A
C71    C73     1.418   .     A
C72    C600    1.390   .     S
C73    C601    1.389   1_554 S
C74    C77     1.418   .     A
C74    C597    1.414   .     S
C75    C76     1.419   .     A
C75    C596    1.414   1_554 S
C76    C78     1.388   .     A
C76    H96     1.078   .     S
C77    C79     1.386   .     A
C77    H84     1.078   .     S
C78    H83     1.084   .     S
C78    C594    1.390   1_554 S
C79    H89     1.084   .     S
C79    C595    1.389   .     S
C80    C197    1.340   .     S
C80    S287    1.776   .     S
C81    C486    1.340   1_545 S
C81    S462    1.771   1_545 S
C82    O110    1.300   .     A
H85    N97     1.028   .     S
H86    N98     1.029   .     S
H87    O101    0.990   .     S
H88    O104    0.991   .     S
H93    C123    1.083   .     S
N97    Zn116   2.026   .     S
N97    N98     1.284   .     D
N98    Zn115   2.026   .     S
O99    Zn115   1.911   .     S
O99    C117    1.287   .     S
O100   S113    1.501   .     D
O101   S287    1.682   .     S
O102   S114    1.503   .     D
O103   S114    1.501   .     D
O104   S462    1.682   1_545 S
O105   Zn116   1.911   .     S
O106   Zn116   1.938   .     S
O107   Zn115   1.938   .     S
O108   Zn115   1.963   .     S
O108   C140    1.295   .     S
O109   Zn116   1.963   .     S
O110   Zn116   1.917   .     S
O111   Zn115   1.917   .     S
O112   S113    1.503   .     D
S113   O449    1.682   1_545 S
S113   C428    1.776   1_545 S
S114   C255    1.771   .     S
S114   O278    1.682   .     S
C117   O164    1.294   .     A
C117   C138    1.430   .     S
C118   C120    1.452   .     S
C118   O169    1.301   .     A
C118   O51     1.295   1_655 S
C119   C125    1.385   .     A
C119   C140    1.449   .     S
C119   C123    1.400   .     A
C120   C126    1.389   .     A
C120   C8      1.399   1_655 S
C121   H152    1.084   .     S
C121   C123    1.394   .     A
C121   C130    1.404   .     A
C122   C131    1.403   .     A
C122   C8      1.392   1_655 S
C122   H37     1.084   1_655 S
C124   H150    1.083   .     S
C125   C127    1.393   .     A
C125   H149    1.079   .     S
C126   C129    1.392   .     A
C126   H148    1.077   .     S
C127   C132    1.415   .     A
C127   C130    1.418   .     A
C128   C139    1.442   .     S
C128   O165    1.303   .     A
C128   O47     1.283   1_655 S
C129   C133    1.415   .     A
C129   C131    1.418   .     A
C130   C658    1.390   .     S
C131   C659    1.389   1_554 S
C132   C135    1.418   .     A
C132   C655    1.414   .     S
C133   C134    1.419   .     A
C133   C654    1.414   1_554 S
C134   C136    1.388   .     A
C134   H154    1.078   .     S
C135   C137    1.386   .     A
C135   H142    1.078   .     S
C136   H141    1.084   .     S
C136   C652    1.390   1_554 S
C137   H147    1.084   .     S
C137   C653    1.389   .     S
C138   C255    1.340   .     S
C138   S345    1.776   .     S
C139   C370    1.340   1_645 S
C139   S520    1.771   1_545 S
C140   O168    1.300   .     A
H143   N155    1.028   .     S
H144   N156    1.029   .     S
H145   O159    0.990   .     S
H146   O162    0.991   .     S
H151   C7      1.083   1_655 S
N155   Zn174   2.026   .     S
N155   N156    1.284   .     D
N156   Zn173   2.026   .     S
O157   Zn173   1.911   .     S
O157   C1      1.287   1_655 S
O158   S171    1.501   .     D
O159   S345    1.682   .     S
O160   S172    1.503   .     D
O161   S172    1.501   .     D
O162   S520    1.682   1_545 S
O163   Zn174   1.911   .     S
O164   Zn174   1.938   .     S
O165   Zn173   1.938   .     S
O166   Zn173   1.963   .     S
O166   C24     1.295   1_655 S
O167   Zn174   1.963   .     S
O168   Zn174   1.917   .     S
O169   Zn173   1.917   .     S
O170   S171    1.503   .     D
S171   O507    1.682   1_545 S
S171   C486    1.776   1_545 S
S172   C313    1.771   .     S
S172   O336    1.682   .     S
C175   O222    1.294   .     A
C175   C196    1.430   .     S
C175   O331    1.287   1_455 S
C176   C178    1.452   .     S
C176   O227    1.301   .     A
C176   O283    1.295   .     S
C177   C183    1.385   .     A
C177   C198    1.449   .     S
C177   C181    1.400   .     A
C178   C184    1.389   .     A
C178   C240    1.399   .     S
C179   H210    1.084   .     S
C179   C181    1.394   .     A
C179   C188    1.404   .     A
C180   C189    1.403   .     A
C180   C240    1.392   .     S
C180   H269    1.084   .     S
C181   H325    1.083   1_455 S
C182   H208    1.083   .     S
C182   C294    1.399   1_455 S
C182   C296    1.392   1_455 S
C183   C185    1.393   .     A
C183   H207    1.079   .     S
C184   C187    1.392   .     A
C184   H206    1.077   .     S
C185   C190    1.415   .     A
C185   C188    1.418   .     A
C186   C197    1.442   .     S
C186   O223    1.303   .     A
C186   O279    1.283   .     S
C187   C191    1.415   .     A
C187   C189    1.418   .     A
C188   C716    1.390   .     S
C189   C717    1.389   1_554 S
C190   C193    1.418   .     A
C190   C713    1.414   .     S
C191   C192    1.419   .     A
C191   C712    1.414   1_554 S
C192   C194    1.388   .     A
C192   H212    1.078   .     S
C193   C195    1.386   .     A
C193   H200    1.078   .     S
C194   H199    1.084   .     S
C194   C710    1.390   1_554 S
C195   H205    1.084   .     S
C195   C711    1.389   .     S
C196   C487    1.340   1_455 S
C196   S403    1.776   .     S
C198   O226    1.300   .     A
C198   O340    1.295   1_455 S
H201   N213    1.028   .     S
H202   N214    1.029   .     S
H203   O217    0.990   .     S
H204   O220    0.991   .     S
H209   C239    1.083   .     S
H211   C296    1.084   1_455 S
N213   Zn232   2.026   .     S
N213   N214    1.284   .     D
N214   Zn231   2.026   .     S
O215   Zn231   1.911   .     S
O215   C233    1.287   .     S
O216   S229    1.501   .     D
O217   S403    1.682   .     S
O218   S230    1.503   .     D
O219   S230    1.501   .     D
O221   Zn232   1.911   .     S
O221   C302    1.283   1_455 S
O222   Zn232   1.938   .     S
O223   Zn231   1.938   .     S
O224   Zn231   1.963   .     S
O224   C256    1.295   .     S
O225   Zn232   1.963   .     S
O225   C292    1.295   1_455 S
O226   Zn232   1.917   .     S
O227   Zn231   1.917   .     S
O228   S229    1.503   .     D
S230   C371    1.771   .     S
S230   O394    1.682   .     S
C233   O280    1.294   .     A
C233   C254    1.430   .     S
C234   C236    1.452   .     S
C234   O285    1.301   .     A
C234   O341    1.295   .     S
C235   C241    1.385   .     A
C235   C256    1.449   .     S
C235   C239    1.400   .     A
C236   C242    1.389   .     A
C236   C298    1.399   .     S
C237   H268    1.084   .     S
C237   C239    1.394   .     A
C237   C246    1.404   .     A
C238   C247    1.403   .     A
C238   C298    1.392   .     S
C238   H327    1.084   .     S
C240   H266    1.083   .     S
C241   C243    1.393   .     A
C241   H265    1.079   .     S
C242   C245    1.392   .     A
C242   H264    1.077   .     S
C243   C248    1.415   .     A
C243   C246    1.418   .     A
C244   C255    1.442   .     S
C244   O281    1.303   .     A
C244   O337    1.283   .     S
C245   C249    1.415   .     A
C245   C247    1.418   .     A
C246   C774    1.390   .     S
C247   C775    1.389   1_554 S
C248   C251    1.418   .     A
C248   C771    1.414   .     S
C249   C250    1.419   .     A
C249   C770    1.414   1_554 S
C250   C252    1.388   .     A
C250   H270    1.078   .     S
C251   C253    1.386   .     A
C251   H258    1.078   .     S
C252   H257    1.084   .     S
C252   C768    1.390   1_554 S
C253   H263    1.084   .     S
C253   C769    1.389   .     S
C254   C371    1.340   .     S
C254   S461    1.776   .     S
C256   O284    1.300   .     A
H259   N271    1.028   .     S
H260   N272    1.029   .     S
H261   O275    0.990   .     S
H262   O278    0.991   .     S
H267   C297    1.083   .     S
N271   Zn290   2.026   .     S
N271   N272    1.284   .     D
N272   Zn289   2.026   .     S
O273   Zn289   1.911   .     S
O273   C291    1.287   .     S
O274   S287    1.501   .     D
O275   S461    1.682   .     S
O276   S288    1.503   .     D
O277   S288    1.501   .     D
O279   Zn290   1.911   .     S
O280   Zn290   1.938   .     S
O281   Zn289   1.938   .     S
O282   Zn289   1.963   .     S
O282   C314    1.295   .     S
O283   Zn290   1.963   .     S
O284   Zn290   1.917   .     S
O285   Zn289   1.917   .     S
O286   S287    1.503   .     D
S288   C429    1.771   .     S
S288   O452    1.682   .     S
C291   O338    1.294   .     A
C291   C312    1.430   .     S
C292   C294    1.452   .     S
C292   O343    1.301   .     A
C292   O225    1.295   1_655 S
C293   C299    1.385   .     A
C293   C314    1.449   .     S
C293   C297    1.400   .     A
C294   C300    1.389   .     A
C294   C182    1.399   1_655 S
C295   H326    1.084   .     S
C295   C297    1.394   .     A
C295   C304    1.404   .     A
C296   C305    1.403   .     A
C296   C182    1.392   1_655 S
C296   H211    1.084   1_655 S
C298   H324    1.083   .     S
C299   C301    1.393   .     A
C299   H323    1.079   .     S
C300   C303    1.392   .     A
C300   H322    1.077   .     S
C301   C306    1.415   .     A
C301   C304    1.418   .     A
C302   C313    1.442   .     S
C302   O339    1.303   .     A
C302   O221    1.283   1_655 S
C303   C307    1.415   .     A
C303   C305    1.418   .     A
C304   C832    1.390   .     S
C305   C833    1.389   1_554 S
C306   C309    1.418   .     A
C306   C829    1.414   .     S
C307   C308    1.419   .     A
C307   C828    1.414   1_554 S
C308   C310    1.388   .     A
C308   H328    1.078   .     S
C309   C311    1.386   .     A
C309   H316    1.078   .     S
C310   H315    1.084   .     S
C310   C826    1.390   1_554 S
C311   H321    1.084   .     S
C311   C827    1.389   .     S
C312   C429    1.340   .     S
C312   S519    1.776   .     S
C313   C22     1.340   1_655 S
C314   O342    1.300   .     A
H317   N329    1.028   .     S
H318   N330    1.029   .     S
H319   O333    0.990   .     S
H320   O336    0.991   .     S
H325   C181    1.083   1_655 S
N329   Zn348   2.026   .     S
N329   N330    1.284   .     D
N330   Zn347   2.026   .     S
O331   Zn347   1.911   .     S
O331   C175    1.287   1_655 S
O332   S345    1.501   .     D
O333   S519    1.682   .     S
O334   S346    1.503   .     D
O335   S346    1.501   .     D
O337   Zn348   1.911   .     S
O338   Zn348   1.938   .     S
O339   Zn347   1.938   .     S
O340   Zn347   1.963   .     S
O340   C198    1.295   1_655 S
O341   Zn348   1.963   .     S
O342   Zn348   1.917   .     S
O343   Zn347   1.917   .     S
O344   S345    1.503   .     D
S346   C487    1.771   .     S
S346   O510    1.682   .     S
C349   O396    1.294   .     A
C349   C370    1.430   .     S
C349   O505    1.287   1_455 S
C350   C352    1.452   .     S
C350   O401    1.301   .     A
C350   O457    1.295   .     S
C351   C357    1.385   .     A
C351   C372    1.449   .     S
C351   C355    1.400   .     A
C352   C358    1.389   .     A
C352   C414    1.399   .     S
C353   H384    1.084   .     S
C353   C355    1.394   .     A
C353   C362    1.404   .     A
C354   C363    1.403   .     A
C354   C414    1.392   .     S
C354   H443    1.084   .     S
C355   H499    1.083   1_455 S
C356   H382    1.083   .     S
C356   C468    1.399   1_455 S
C356   C470    1.392   1_455 S
C357   C359    1.393   .     A
C357   H381    1.079   .     S
C358   C361    1.392   .     A
C358   H380    1.077   .     S
C359   C364    1.415   .     A
C359   C362    1.418   .     A
C360   C371    1.442   .     S
C360   O397    1.303   .     A
C360   O453    1.283   .     S
C361   C365    1.415   .     A
C361   C363    1.418   .     A
C362   C890    1.390   .     S
C363   C891    1.389   1_554 S
C364   C367    1.418   .     A
C364   C887    1.414   .     S
C365   C366    1.419   .     A
C365   C886    1.414   1_554 S
C366   C368    1.388   .     A
C366   H386    1.078   .     S
C367   C369    1.386   .     A
C367   H374    1.078   .     S
C368   H373    1.084   .     S
C368   C884    1.390   1_554 S
C369   H379    1.084   .     S
C369   C885    1.389   .     S
C370   C139    1.340   1_465 S
C370   S55     1.776   1_565 S
C372   O400    1.300   .     A
C372   O514    1.295   1_455 S
H375   N387    1.028   .     S
H376   N388    1.029   .     S
H377   O391    0.990   .     S
H378   O394    0.991   .     S
H383   C413    1.083   .     S
H385   C470    1.084   1_455 S
N387   Zn406   2.026   .     S
N387   N388    1.284   .     D
N388   Zn405   2.026   .     S
O389   Zn405   1.911   .     S
O389   C407    1.287   .     S
O390   S403    1.501   .     D
O391   S55     1.682   1_565 S
O392   S404    1.503   .     D
O393   S404    1.501   .     D
O395   Zn406   1.911   .     S
O395   C476    1.283   1_455 S
O396   Zn406   1.938   .     S
O397   Zn405   1.938   .     S
O398   Zn405   1.963   .     S
O398   C430    1.295   .     S
O399   Zn406   1.963   .     S
O399   C466    1.295   1_455 S
O400   Zn406   1.917   .     S
O401   Zn405   1.917   .     S
O402   S403    1.503   .     D
S404   C23     1.771   1_565 S
S404   O46     1.682   1_565 S
C407   O454    1.294   .     A
C407   C428    1.430   .     S
C408   C410    1.452   .     S
C408   O459    1.301   .     A
C408   O515    1.295   .     S
C409   C415    1.385   .     A
C409   C430    1.449   .     S
C409   C413    1.400   .     A
C410   C416    1.389   .     A
C410   C472    1.399   .     S
C411   H442    1.084   .     S
C411   C413    1.394   .     A
C411   C420    1.404   .     A
C412   C421    1.403   .     A
C412   C472    1.392   .     S
C412   H501    1.084   .     S
C414   H440    1.083   .     S
C415   C417    1.393   .     A
C415   H439    1.079   .     S
C416   C419    1.392   .     A
C416   H438    1.077   .     S
C417   C422    1.415   .     A
C417   C420    1.418   .     A
C418   C429    1.442   .     S
C418   O455    1.303   .     A
C418   O511    1.283   .     S
C419   C423    1.415   .     A
C419   C421    1.418   .     A
C420   C948    1.390   .     S
C421   C949    1.389   1_554 S
C422   C425    1.418   .     A
C422   C945    1.414   .     S
C423   C424    1.419   .     A
C423   C944    1.414   1_554 S
C424   C426    1.388   .     A
C424   H444    1.078   .     S
C425   C427    1.386   .     A
C425   H432    1.078   .     S
C426   H431    1.084   .     S
C426   C942    1.390   1_554 S
C427   H437    1.084   .     S
C427   C943    1.389   .     S
C428   C23     1.340   1_565 S
C428   S113    1.776   1_565 S
C430   O458    1.300   .     A
H433   N445    1.028   .     S
H434   N446    1.029   .     S
H435   O449    0.990   .     S
H436   O452    0.991   .     S
H441   C471    1.083   .     S
N445   Zn464   2.026   .     S
N445   N446    1.284   .     D
N446   Zn463   2.026   .     S
O447   Zn463   1.911   .     S
O447   C465    1.287   .     S
O448   S461    1.501   .     D
O449   S113    1.682   1_565 S
O450   S462    1.503   .     D
O451   S462    1.501   .     D
O453   Zn464   1.911   .     S
O454   Zn464   1.938   .     S
O455   Zn463   1.938   .     S
O456   Zn463   1.963   .     S
O456   C488    1.295   .     S
O457   Zn464   1.963   .     S
O458   Zn464   1.917   .     S
O459   Zn463   1.917   .     S
O460   S461    1.503   .     D
S462   C81     1.771   1_565 S
S462   O104    1.682   1_565 S
C465   O512    1.294   .     A
C465   C486    1.430   .     S
C466   C468    1.452   .     S
C466   O517    1.301   .     A
C466   O399    1.295   1_655 S
C467   C473    1.385   .     A
C467   C488    1.449   .     S
C467   C471    1.400   .     A
C468   C474    1.389   .     A
C468   C356    1.399   1_655 S
C469   H500    1.084   .     S
C469   C471    1.394   .     A
C469   C478    1.404   .     A
C470   C479    1.403   .     A
C470   C356    1.392   1_655 S
C470   H385    1.084   1_655 S
C472   H498    1.083   .     S
C473   C475    1.393   .     A
C473   H497    1.079   .     S
C474   C477    1.392   .     A
C474   H496    1.077   .     S
C475   C480    1.415   .     A
C475   C478    1.418   .     A
C476   C487    1.442   .     S
C476   O513    1.303   .     A
C476   O395    1.283   1_655 S
C477   C481    1.415   .     A
C477   C479    1.418   .     A
C478   C1006   1.390   .     S
C479   C1007   1.389   1_554 S
C480   C483    1.418   .     A
C480   C1003   1.414   .     S
C481   C482    1.419   .     A
C481   C1002   1.414   1_554 S
C482   C484    1.388   .     A
C482   H502    1.078   .     S
C483   C485    1.386   .     A
C483   H490    1.078   .     S
C484   H489    1.084   .     S
C484   C1000   1.390   1_554 S
C485   H495    1.084   .     S
C485   C1001   1.389   .     S
C486   C81     1.340   1_565 S
C486   S171    1.776   1_565 S
C487   C196    1.340   1_655 S
C488   O516    1.300   .     A
H491   N503    1.028   .     S
H492   N504    1.029   .     S
H493   O507    0.990   .     S
H494   O510    0.991   .     S
H499   C355    1.083   1_655 S
N503   Zn522   2.026   .     S
N503   N504    1.284   .     D
N504   Zn521   2.026   .     S
O505   Zn521   1.911   .     S
O505   C349    1.287   1_655 S
O506   S519    1.501   .     D
O507   S171    1.682   1_565 S
O508   S520    1.503   .     D
O509   S520    1.501   .     D
O511   Zn522   1.911   .     S
O512   Zn522   1.938   .     S
O513   Zn521   1.938   .     S
O514   Zn521   1.963   .     S
O514   C372    1.295   1_655 S
O515   Zn522   1.963   .     S
O516   Zn522   1.917   .     S
O517   Zn521   1.917   .     S
O518   S519    1.503   .     D
S520   C139    1.771   1_565 S
S520   O162    1.682   1_565 S
C523   O570    1.294   .     A
C523   C544    1.430   .     S
C523   O679    1.287   1_455 S
C524   C526    1.452   .     S
C524   O575    1.301   .     A
C524   O631    1.295   .     S
C525   C531    1.385   .     A
C525   C546    1.449   .     S
C525   C529    1.400   .     A
C526   C532    1.389   .     A
C526   C588    1.399   .     S
C527   H558    1.084   .     S
C527   C529    1.394   .     A
C527   C536    1.404   .     A
C528   C537    1.403   .     A
C528   C588    1.392   .     S
C528   H617    1.084   .     S
C529   H673    1.083   1_455 S
C530   H556    1.083   .     S
C530   C642    1.399   1_455 S
C530   C644    1.392   1_455 S
C531   C533    1.393   .     A
C531   H555    1.079   .     S
C532   C535    1.392   .     A
C532   H554    1.077   .     S
C533   C538    1.415   .     A
C533   C536    1.418   .     A
C534   C545    1.442   .     S
C534   O571    1.303   .     A
C534   O627    1.283   .     S
C535   C539    1.415   .     A
C535   C537    1.418   .     A
C536   C20     1.390   1_556 S
C538   C541    1.418   .     A
C538   C17     1.414   1_556 S
C539   C540    1.419   .     A
C540   C542    1.388   .     A
C540   H560    1.078   .     S
C541   C543    1.386   .     A
C541   H548    1.078   .     S
C542   H547    1.084   .     S
C543   H553    1.084   .     S
C543   C15     1.389   1_556 S
C544   C835    1.340   1_455 S
C544   S751    1.776   .     S
C545   C950    1.340   1_545 S
C545   S926    1.771   1_545 S
C546   O574    1.300   .     A
C546   O688    1.295   1_455 S
H549   N561    1.028   .     S
H550   N562    1.029   .     S
H551   O565    0.990   .     S
H552   O568    0.991   .     S
H557   C587    1.083   .     S
H559   C644    1.084   1_455 S
N561   Zn580   2.026   .     S
N561   N562    1.284   .     D
N562   Zn579   2.026   .     S
O563   Zn579   1.911   .     S
O563   C581    1.287   .     S
O564   S577    1.501   .     D
O565   S751    1.682   .     S
O566   S578    1.503   .     D
O567   S578    1.501   .     D
O568   S926    1.682   1_545 S
O569   Zn580   1.911   .     S
O569   C650    1.283   1_455 S
O570   Zn580   1.938   .     S
O571   Zn579   1.938   .     S
O572   Zn579   1.963   .     S
O572   C604    1.295   .     S
O573   Zn580   1.963   .     S
O573   C640    1.295   1_455 S
O574   Zn580   1.917   .     S
O575   Zn579   1.917   .     S
O576   S577    1.503   .     D
S577   O913    1.682   1_545 S
S577   C892    1.776   1_545 S
S578   C719    1.771   .     S
S578   O742    1.682   .     S
C581   O628    1.294   .     A
C581   C602    1.430   .     S
C582   C584    1.452   .     S
C582   O633    1.301   .     A
C582   O689    1.295   .     S
C583   C589    1.385   .     A
C583   C604    1.449   .     S
C583   C587    1.400   .     A
C584   C590    1.389   .     A
C584   C646    1.399   .     S
C585   H616    1.084   .     S
C585   C587    1.394   .     A
C585   C594    1.404   .     A
C586   C595    1.403   .     A
C586   C646    1.392   .     S
C586   H675    1.084   .     S
C588   H614    1.083   .     S
C589   C591    1.393   .     A
C589   H613    1.079   .     S
C590   C593    1.392   .     A
C590   H612    1.077   .     S
C591   C596    1.415   .     A
C591   C594    1.418   .     A
C592   C603    1.442   .     S
C592   O629    1.303   .     A
C592   O685    1.283   .     S
C593   C597    1.415   .     A
C593   C595    1.418   .     A
C594   C78     1.390   1_556 S
C596   C599    1.418   .     A
C596   C75     1.414   1_556 S
C597   C598    1.419   .     A
C598   C600    1.388   .     A
C598   H618    1.078   .     S
C599   C601    1.386   .     A
C599   H606    1.078   .     S
C600   H605    1.084   .     S
C601   H611    1.084   .     S
C601   C73     1.389   1_556 S
C602   C719    1.340   .     S
C602   S809    1.776   .     S
C603   C1008   1.340   1_545 S
C603   S984    1.771   1_545 S
C604   O632    1.300   .     A
H607   N619    1.028   .     S
H608   N620    1.029   .     S
H609   O623    0.990   .     S
H610   O626    0.991   .     S
H615   C645    1.083   .     S
N619   Zn638   2.026   .     S
N619   N620    1.284   .     D
N620   Zn637   2.026   .     S
O621   Zn637   1.911   .     S
O621   C639    1.287   .     S
O622   S635    1.501   .     D
O623   S809    1.682   .     S
O624   S636    1.503   .     D
O625   S636    1.501   .     D
O626   S984    1.682   1_545 S
O627   Zn638   1.911   .     S
O628   Zn638   1.938   .     S
O629   Zn637   1.938   .     S
O630   Zn637   1.963   .     S
O630   C662    1.295   .     S
O631   Zn638   1.963   .     S
O632   Zn638   1.917   .     S
O633   Zn637   1.917   .     S
O634   S635    1.503   .     D
S635   O971    1.682   1_545 S
S635   C950    1.776   1_545 S
S636   C777    1.771   .     S
S636   O800    1.682   .     S
C639   O686    1.294   .     A
C639   C660    1.430   .     S
C640   C642    1.452   .     S
C640   O691    1.301   .     A
C640   O573    1.295   1_655 S
C641   C647    1.385   .     A
C641   C662    1.449   .     S
C641   C645    1.400   .     A
C642   C648    1.389   .     A
C642   C530    1.399   1_655 S
C643   H674    1.084   .     S
C643   C645    1.394   .     A
C643   C652    1.404   .     A
C644   C653    1.403   .     A
C644   C530    1.392   1_655 S
C644   H559    1.084   1_655 S
C646   H672    1.083   .     S
C647   C649    1.393   .     A
C647   H671    1.079   .     S
C648   C651    1.392   .     A
C648   H670    1.077   .     S
C649   C654    1.415   .     A
C649   C652    1.418   .     A
C650   C661    1.442   .     S
C650   O687    1.303   .     A
C650   O569    1.283   1_655 S
C651   C655    1.415   .     A
C651   C653    1.418   .     A
C652   C136    1.390   1_556 S
C654   C657    1.418   .     A
C654   C133    1.414   1_556 S
C655   C656    1.419   .     A
C656   C658    1.388   .     A
C656   H676    1.078   .     S
C657   C659    1.386   .     A
C657   H664    1.078   .     S
C658   H663    1.084   .     S
C659   H669    1.084   .     S
C659   C131    1.389   1_556 S
C660   C777    1.340   .     S
C660   S867    1.776   .     S
C661   C892    1.340   1_645 S
C661   S1042   1.771   1_545 S
C662   O690    1.300   .     A
H665   N677    1.028   .     S
H666   N678    1.029   .     S
H667   O681    0.990   .     S
H668   O684    0.991   .     S
H673   C529    1.083   1_655 S
N677   Zn696   2.026   .     S
N677   N678    1.284   .     D
N678   Zn695   2.026   .     S
O679   Zn695   1.911   .     S
O679   C523    1.287   1_655 S
O680   S693    1.501   .     D
O681   S867    1.682   .     S
O682   S694    1.503   .     D
O683   S694    1.501   .     D
O684   S1042   1.682   1_545 S
O685   Zn696   1.911   .     S
O686   Zn696   1.938   .     S
O687   Zn695   1.938   .     S
O688   Zn695   1.963   .     S
O688   C546    1.295   1_655 S
O689   Zn696   1.963   .     S
O690   Zn696   1.917   .     S
O691   Zn695   1.917   .     S
O692   S693    1.503   .     D
S693   O1029   1.682   1_545 S
S693   C1008   1.776   1_545 S
S694   C835    1.771   .     S
S694   O858    1.682   .     S
C697   O744    1.294   .     A
C697   C718    1.430   .     S
C697   O853    1.287   1_455 S
C698   C700    1.452   .     S
C698   O749    1.301   .     A
C698   O805    1.295   .     S
C699   C705    1.385   .     A
C699   C720    1.449   .     S
C699   C703    1.400   .     A
C700   C706    1.389   .     A
C700   C762    1.399   .     S
C701   H732    1.084   .     S
C701   C703    1.394   .     A
C701   C710    1.404   .     A
C702   C711    1.403   .     A
C702   C762    1.392   .     S
C702   H791    1.084   .     S
C703   H847    1.083   1_455 S
C704   H730    1.083   .     S
C704   C816    1.399   1_455 S
C704   C818    1.392   1_455 S
C705   C707    1.393   .     A
C705   H729    1.079   .     S
C706   C709    1.392   .     A
C706   H728    1.077   .     S
C707   C712    1.415   .     A
C707   C710    1.418   .     A
C708   C719    1.442   .     S
C708   O745    1.303   .     A
C708   O801    1.283   .     S
C709   C713    1.415   .     A
C709   C711    1.418   .     A
C710   C194    1.390   1_556 S
C712   C715    1.418   .     A
C712   C191    1.414   1_556 S
C713   C714    1.419   .     A
C714   C716    1.388   .     A
C714   H734    1.078   .     S
C715   C717    1.386   .     A
C715   H722    1.078   .     S
C716   H721    1.084   .     S
C717   H727    1.084   .     S
C717   C189    1.389   1_556 S
C718   C1009   1.340   1_455 S
C718   S925    1.776   .     S
C720   O748    1.300   .     A
C720   O862    1.295   1_455 S
H723   N735    1.028   .     S
H724   N736    1.029   .     S
H725   O739    0.990   .     S
H726   O742    0.991   .     S
H731   C761    1.083   .     S
H733   C818    1.084   1_455 S
N735   Zn754   2.026   .     S
N735   N736    1.284   .     D
N736   Zn753   2.026   .     S
O737   Zn753   1.911   .     S
O737   C755    1.287   .     S
O738   S751    1.501   .     D
O739   S925    1.682   .     S
O740   S752    1.503   .     D
O741   S752    1.501   .     D
O743   Zn754   1.911   .     S
O743   C824    1.283   1_455 S
O744   Zn754   1.938   .     S
O745   Zn753   1.938   .     S
O746   Zn753   1.963   .     S
O746   C778    1.295   .     S
O747   Zn754   1.963   .     S
O747   C814    1.295   1_455 S
O748   Zn754   1.917   .     S
O749   Zn753   1.917   .     S
O750   S751    1.503   .     D
S752   C893    1.771   .     S
S752   O916    1.682   .     S
C755   O802    1.294   .     A
C755   C776    1.430   .     S
C756   C758    1.452   .     S
C756   O807    1.301   .     A
C756   O863    1.295   .     S
C757   C763    1.385   .     A
C757   C778    1.449   .     S
C757   C761    1.400   .     A
C758   C764    1.389   .     A
C758   C820    1.399   .     S
C759   H790    1.084   .     S
C759   C761    1.394   .     A
C759   C768    1.404   .     A
C760   C769    1.403   .     A
C760   C820    1.392   .     S
C760   H849    1.084   .     S
C762   H788    1.083   .     S
C763   C765    1.393   .     A
C763   H787    1.079   .     S
C764   C767    1.392   .     A
C764   H786    1.077   .     S
C765   C770    1.415   .     A
C765   C768    1.418   .     A
C766   C777    1.442   .     S
C766   O803    1.303   .     A
C766   O859    1.283   .     S
C767   C771    1.415   .     A
C767   C769    1.418   .     A
C768   C252    1.390   1_556 S
C770   C773    1.418   .     A
C770   C249    1.414   1_556 S
C771   C772    1.419   .     A
C772   C774    1.388   .     A
C772   H792    1.078   .     S
C773   C775    1.386   .     A
C773   H780    1.078   .     S
C774   H779    1.084   .     S
C775   H785    1.084   .     S
C775   C247    1.389   1_556 S
C776   C893    1.340   .     S
C776   S983    1.776   .     S
C778   O806    1.300   .     A
H781   N793    1.028   .     S
H782   N794    1.029   .     S
H783   O797    0.990   .     S
H784   O800    0.991   .     S
H789   C819    1.083   .     S
N793   Zn812   2.026   .     S
N793   N794    1.284   .     D
N794   Zn811   2.026   .     S
O795   Zn811   1.911   .     S
O795   C813    1.287   .     S
O796   S809    1.501   .     D
O797   S983    1.682   .     S
O798   S810    1.503   .     D
O799   S810    1.501   .     D
O801   Zn812   1.911   .     S
O802   Zn812   1.938   .     S
O803   Zn811   1.938   .     S
O804   Zn811   1.963   .     S
O804   C836    1.295   .     S
O805   Zn812   1.963   .     S
O806   Zn812   1.917   .     S
O807   Zn811   1.917   .     S
O808   S809    1.503   .     D
S810   C951    1.771   .     S
S810   O974    1.682   .     S
C813   O860    1.294   .     A
C813   C834    1.430   .     S
C814   C816    1.452   .     S
C814   O865    1.301   .     A
C814   O747    1.295   1_655 S
C815   C821    1.385   .     A
C815   C836    1.449   .     S
C815   C819    1.400   .     A
C816   C822    1.389   .     A
C816   C704    1.399   1_655 S
C817   H848    1.084   .     S
C817   C819    1.394   .     A
C817   C826    1.404   .     A
C818   C827    1.403   .     A
C818   C704    1.392   1_655 S
C818   H733    1.084   1_655 S
C820   H846    1.083   .     S
C821   C823    1.393   .     A
C821   H845    1.079   .     S
C822   C825    1.392   .     A
C822   H844    1.077   .     S
C823   C828    1.415   .     A
C823   C826    1.418   .     A
C824   C835    1.442   .     S
C824   O861    1.303   .     A
C824   O743    1.283   1_655 S
C825   C829    1.415   .     A
C825   C827    1.418   .     A
C826   C310    1.390   1_556 S
C828   C831    1.418   .     A
C828   C307    1.414   1_556 S
C829   C830    1.419   .     A
C830   C832    1.388   .     A
C830   H850    1.078   .     S
C831   C833    1.386   .     A
C831   H838    1.078   .     S
C832   H837    1.084   .     S
C833   H843    1.084   .     S
C833   C305    1.389   1_556 S
C834   C951    1.340   .     S
C834   S1041   1.776   .     S
C835   C544    1.340   1_655 S
C836   O864    1.300   .     A
H839   N851    1.028   .     S
H840   N852    1.029   .     S
H841   O855    0.990   .     S
H842   O858    0.991   .     S
H847   C703    1.083   1_655 S
N851   Zn870   2.026   .     S
N851   N852    1.284   .     D
N852   Zn869   2.026   .     S
O853   Zn869   1.911   .     S
O853   C697    1.287   1_655 S
O854   S867    1.501   .     D
O855   S1041   1.682   .     S
O856   S868    1.503   .     D
O857   S868    1.501   .     D
O859   Zn870   1.911   .     S
O860   Zn870   1.938   .     S
O861   Zn869   1.938   .     S
O862   Zn869   1.963   .     S
O862   C720    1.295   1_655 S
O863   Zn870   1.963   .     S
O864   Zn870   1.917   .     S
O865   Zn869   1.917   .     S
O866   S867    1.503   .     D
S868   C1009   1.771   .     S
S868   O1032   1.682   .     S
C871   O918    1.294   .     A
C871   C892    1.430   .     S
C871   O1027   1.287   1_455 S
C872   C874    1.452   .     S
C872   O923    1.301   .     A
C872   O979    1.295   .     S
C873   C879    1.385   .     A
C873   C894    1.449   .     S
C873   C877    1.400   .     A
C874   C880    1.389   .     A
C874   C936    1.399   .     S
C875   H906    1.084   .     S
C875   C877    1.394   .     A
C875   C884    1.404   .     A
C876   C885    1.403   .     A
C876   C936    1.392   .     S
C876   H965    1.084   .     S
C877   H1021   1.083   1_455 S
C878   H904    1.083   .     S
C878   C990    1.399   1_455 S
C878   C992    1.392   1_455 S
C879   C881    1.393   .     A
C879   H903    1.079   .     S
C880   C883    1.392   .     A
C880   H902    1.077   .     S
C881   C886    1.415   .     A
C881   C884    1.418   .     A
C882   C893    1.442   .     S
C882   O919    1.303   .     A
C882   O975    1.283   .     S
C883   C887    1.415   .     A
C883   C885    1.418   .     A
C884   C368    1.390   1_556 S
C886   C889    1.418   .     A
C886   C365    1.414   1_556 S
C887   C888    1.419   .     A
C888   C890    1.388   .     A
C888   H908    1.078   .     S
C889   C891    1.386   .     A
C889   H896    1.078   .     S
C890   H895    1.084   .     S
C891   H901    1.084   .     S
C891   C363    1.389   1_556 S
C892   C661    1.340   1_465 S
C892   S577    1.776   1_565 S
C894   O922    1.300   .     A
C894   O1036   1.295   1_455 S
H897   N909    1.028   .     S
H898   N910    1.029   .     S
H899   O913    0.990   .     S
H900   O916    0.991   .     S
H905   C935    1.083   .     S
H907   C992    1.084   1_455 S
N909   Zn928   2.026   .     S
N909   N910    1.284   .     D
N910   Zn927   2.026   .     S
O911   Zn927   1.911   .     S
O911   C929    1.287   .     S
O912   S925    1.501   .     D
O913   S577    1.682   1_565 S
O914   S926    1.503   .     D
O915   S926    1.501   .     D
O917   Zn928   1.911   .     S
O917   C998    1.283   1_455 S
O918   Zn928   1.938   .     S
O919   Zn927   1.938   .     S
O920   Zn927   1.963   .     S
O920   C952    1.295   .     S
O921   Zn928   1.963   .     S
O921   C988    1.295   1_455 S
O922   Zn928   1.917   .     S
O923   Zn927   1.917   .     S
O924   S925    1.503   .     D
S926   C545    1.771   1_565 S
S926   O568    1.682   1_565 S
C929   O976    1.294   .     A
C929   C950    1.430   .     S
C930   C932    1.452   .     S
C930   O981    1.301   .     A
C930   O1037   1.295   .     S
C931   C937    1.385   .     A
C931   C952    1.449   .     S
C931   C935    1.400   .     A
C932   C938    1.389   .     A
C932   C994    1.399   .     S
C933   H964    1.084   .     S
C933   C935    1.394   .     A
C933   C942    1.404   .     A
C934   C943    1.403   .     A
C934   C994    1.392   .     S
C934   H1023   1.084   .     S
C936   H962    1.083   .     S
C937   C939    1.393   .     A
C937   H961    1.079   .     S
C938   C941    1.392   .     A
C938   H960    1.077   .     S
C939   C944    1.415   .     A
C939   C942    1.418   .     A
C940   C951    1.442   .     S
C940   O977    1.303   .     A
C940   O1033   1.283   .     S
C941   C945    1.415   .     A
C941   C943    1.418   .     A
C942   C426    1.390   1_556 S
C944   C947    1.418   .     A
C944   C423    1.414   1_556 S
C945   C946    1.419   .     A
C946   C948    1.388   .     A
C946   H966    1.078   .     S
C947   C949    1.386   .     A
C947   H954    1.078   .     S
C948   H953    1.084   .     S
C949   H959    1.084   .     S
C949   C421    1.389   1_556 S
C950   C545    1.340   1_565 S
C950   S635    1.776   1_565 S
C952   O980    1.300   .     A
H955   N967    1.028   .     S
H956   N968    1.029   .     S
H957   O971    0.990   .     S
H958   O974    0.991   .     S
H963   C993    1.083   .     S
N967   Zn986   2.026   .     S
N967   N968    1.284   .     D
N968   Zn985   2.026   .     S
O969   Zn985   1.911   .     S
O969   C987    1.287   .     S
O970   S983    1.501   .     D
O971   S635    1.682   1_565 S
O972   S984    1.503   .     D
O973   S984    1.501   .     D
O975   Zn986   1.911   .     S
O976   Zn986   1.938   .     S
O977   Zn985   1.938   .     S
O978   Zn985   1.963   .     S
O978   C1010   1.295   .     S
O979   Zn986   1.963   .     S
O980   Zn986   1.917   .     S
O981   Zn985   1.917   .     S
O982   S983    1.503   .     D
S984   C603    1.771   1_565 S
S984   O626    1.682   1_565 S
C987   O1034   1.294   .     A
C987   C1008   1.430   .     S
C988   C990    1.452   .     S
C988   O1039   1.301   .     A
C988   O921    1.295   1_655 S
C989   C995    1.385   .     A
C989   C1010   1.449   .     S
C989   C993    1.400   .     A
C990   C996    1.389   .     A
C990   C878    1.399   1_655 S
C991   H1022   1.084   .     S
C991   C993    1.394   .     A
C991   C1000   1.404   .     A
C992   C1001   1.403   .     A
C992   C878    1.392   1_655 S
C992   H907    1.084   1_655 S
C994   H1020   1.083   .     S
C995   C997    1.393   .     A
C995   H1019   1.079   .     S
C996   C999    1.392   .     A
C996   H1018   1.077   .     S
C997   C1002   1.415   .     A
C997   C1000   1.418   .     A
C998   C1009   1.442   .     S
C998   O1035   1.303   .     A
C998   O917    1.283   1_655 S
C999   C1003   1.415   .     A
C999   C1001   1.418   .     A
C1000  C484    1.390   1_556 S
C1002  C1005   1.418   .     A
C1002  C481    1.414   1_556 S
C1003  C1004   1.419   .     A
C1004  C1006   1.388   .     A
C1004  H1024   1.078   .     S
C1005  C1007   1.386   .     A
C1005  H1012   1.078   .     S
C1006  H1011   1.084   .     S
C1007  H1017   1.084   .     S
C1007  C479    1.389   1_556 S
C1008  C603    1.340   1_565 S
C1008  S693    1.776   1_565 S
C1009  C718    1.340   1_655 S
C1010  O1038   1.300   .     A
H1013  N1025   1.028   .     S
H1014  N1026   1.029   .     S
H1015  O1029   0.990   .     S
H1016  O1032   0.991   .     S
H1021  C877    1.083   1_655 S
N1025  Zn1044  2.026   .     S
N1025  N1026   1.284   .     D
N1026  Zn1043  2.026   .     S
O1027  Zn1043  1.911   .     S
O1027  C871    1.287   1_655 S
O1028  S1041   1.501   .     D
O1029  S693    1.682   1_565 S
O1030  S1042   1.503   .     D
O1031  S1042   1.501   .     D
O1033  Zn1044  1.911   .     S
O1034  Zn1044  1.938   .     S
O1035  Zn1043  1.938   .     S
O1036  Zn1043  1.963   .     S
O1036  C894    1.295   1_655 S
O1037  Zn1044  1.963   .     S
O1038  Zn1044  1.917   .     S
O1039  Zn1043  1.917   .     S
O1040  S1041   1.503   .     D
S1042  C661    1.771   1_565 S
S1042  O684    1.682   1_565 S
