data_str_m2_o2_o10_pcu_sym.33
_audit_creation_date              2020-01-03
_audit_creation_method            'Materials Studio'
_symmetry_space_group_name_H-M    'P1'
_symmetry_Int_Tables_number       1
_symmetry_cell_setting            triclinic
loop_
_symmetry_equiv_pos_as_xyz
  x,y,z
_cell_length_a                    26.1453
_cell_length_b                    30.2186
_cell_length_c                    27.9305
_cell_angle_alpha                 88.6632
_cell_angle_beta                  96.3193
_cell_angle_gamma                 91.9271
loop_
_atom_site_label
_atom_site_type_symbol
_atom_site_fract_x
_atom_site_fract_y
_atom_site_fract_z
_atom_site_U_iso_or_equiv
_atom_site_adp_type
_atom_site_occupancy
C1     C     0.16659   0.16511   0.25039   0.00000  Uiso   1.00
C2     C     0.17769   0.29271   0.44446   0.00000  Uiso   1.00
C3     C     0.15495   0.25897   0.02594   0.00000  Uiso   1.00
C4     C     0.15515   0.25859   0.47139   0.00000  Uiso   1.00
C5     C     0.06823   0.24820   0.23819   0.00000  Uiso   1.00
C6     C     0.26525   0.25003   0.26206   0.00000  Uiso   1.00
C7     C     0.01352   0.24296   0.23259   0.00000  Uiso   1.00
C8     C     0.32033   0.25213   0.26873   0.00000  Uiso   1.00
C9     C     0.19398   0.04771   0.28790   0.00000  Uiso   1.00
C10    C     0.16956   0.45388   0.20637   0.00000  Uiso   1.00
C11    C     0.19375   0.09369   0.28846   0.00000  Uiso   1.00
C12    C     0.16638   0.33506   0.24958   0.00000  Uiso   1.00
C13    C     0.16916   0.40784   0.20615   0.00000  Uiso   1.00
C14    C     0.16608   0.11700   0.25082   0.00000  Uiso   1.00
C15    C     0.16589   0.38348   0.24910   0.00000  Uiso   1.00
C16    C     0.13866   0.09415   0.21263   0.00000  Uiso   1.00
C17    C     0.16218   0.40576   0.29208   0.00000  Uiso   1.00
C18    C     0.13843   0.04820   0.21228   0.00000  Uiso   1.00
C19    C     0.16206   0.45167   0.29218   0.00000  Uiso   1.00
C20    C     0.16622   0.02464   0.24984   0.00000  Uiso   1.00
C21    C     0.16604   0.47609   0.24942   0.00000  Uiso   1.00
C22    C     0.25707   0.28683   0.12647   0.00000  Uiso   1.00
C23    C     0.19620   0.27870   0.05393   0.00000  Uiso   1.00
C24    C     0.26079   0.33188   0.15116   0.00000  Uiso   1.00
C25    C     0.31572   0.35147   0.15544   0.00000  Uiso   1.00
C26    C     0.13290   0.16863   0.37988   0.00000  Uiso   1.00
C27    C     0.07943   0.16341   0.35128   0.00000  Uiso   1.00
C28    C     0.06343   0.11471   0.34434   0.00000  Uiso   1.00
C29    C     0.13867   0.22062   0.44653   0.00000  Uiso   1.00
C30    C     0.20342   0.27293   0.10459   0.00000  Uiso   1.00
C31    C     0.14559   0.21546   0.39743   0.00000  Uiso   1.00
C32    C     0.12472   0.23159   0.10225   0.00000  Uiso   1.00
C33    C     0.18264   0.28793   0.39475   0.00000  Uiso   1.00
C34    C     0.11860   0.23503   0.05114   0.00000  Uiso   1.00
Cu35   Cu    0.16667   0.25000   0.29821   0.00000  Uiso   1.00
Cu36   Cu    0.16667   0.25001   0.20178   0.00000  Uiso   1.00
H37    H     0.32868   0.23033   0.19888   0.00000  Uiso   1.00
H38    H     0.15831   0.46806   0.32564   0.00000  Uiso   1.00
H39    H     0.22565   0.29605   0.03572   0.00000  Uiso   1.00
H40    H     0.12277   0.19329   0.46651   0.00000  Uiso   1.00
H41    H     0.09543   0.21368   0.12000   0.00000  Uiso   1.00
H42    H     0.19973   0.31521   0.37581   0.00000  Uiso   1.00
H43    H     0.08524   0.21904   0.03161   0.00000  Uiso   1.00
H44    H     0.19142   0.32329   0.46152   0.00000  Uiso   1.00
H45    H     0.00930   0.32832   0.17576   0.00000  Uiso   1.00
H46    H     0.32819   0.35818   0.11915   0.00000  Uiso   1.00
H47    H     0.31731   0.38317   0.17498   0.00000  Uiso   1.00
H48    H     0.00591   0.26241   0.30352   0.00000  Uiso   1.00
H49    H     0.23497   0.35550   0.13018   0.00000  Uiso   1.00
H50    H     0.24989   0.32836   0.18805   0.00000  Uiso   1.00
H51    H     0.27420   0.25989   0.14840   0.00000  Uiso   1.00
H52    H     0.28344   0.28908   0.09775   0.00000  Uiso   1.00
H53    H     0.09186   0.09770   0.32508   0.00000  Uiso   1.00
H54    H     0.06046   0.09783   0.37973   0.00000  Uiso   1.00
H55    H     0.02526   0.11220   0.32263   0.00000  Uiso   1.00
H56    H     0.05035   0.17948   0.37072   0.00000  Uiso   1.00
H57    H     0.07891   0.17902   0.31529   0.00000  Uiso   1.00
H58    H     0.16471   0.15482   0.36300   0.00000  Uiso   1.00
H59    H     0.21645   0.03023   0.31681   0.00000  Uiso   1.00
H60    H     0.13244   0.14553   0.41148   0.00000  Uiso   1.00
H61    H     0.17316   0.47211   0.17300   0.00000  Uiso   1.00
H62    H     0.21609   0.11102   0.31759   0.00000  Uiso   1.00
H63    H     0.17164   0.39144   0.17250   0.00000  Uiso   1.00
H64    H     0.11692   0.11186   0.18339   0.00000  Uiso   1.00
H65    H     0.15910   0.38778   0.32569   0.00000  Uiso   1.00
H66    H     0.11610   0.03109   0.18297   0.00000  Uiso   1.00
N67    N     0.16667   0.25001   0.12934   0.00000  Uiso   1.00
N68    N     0.16667   0.24999   0.37065   0.00000  Uiso   1.00
O69    O     0.16667   0.18573   0.29072   0.00000  Uiso   1.00
O70    O     0.16666   0.31428   0.20928   0.00000  Uiso   1.00
O71    O     0.16667   0.18573   0.20928   0.00000  Uiso   1.00
O72    O     0.16666   0.31427   0.29072   0.00000  Uiso   1.00
O73    O     0.09161   0.25000   0.28132   0.00000  Uiso   1.00
O74    O     0.24172   0.25001   0.21868   0.00000  Uiso   1.00
O75    O     0.09161   0.25000   0.19988   0.00000  Uiso   1.00
O76    O     0.24172   0.25000   0.30012   0.00000  Uiso   1.00
C77    C     0.49992   0.16511   0.25039   0.00000  Uiso   1.00
C78    C     0.51102   0.29271   0.44446   0.00000  Uiso   1.00
C79    C     0.48829   0.25897   0.02594   0.00000  Uiso   1.00
C80    C     0.48848   0.25859   0.47139   0.00000  Uiso   1.00
C81    C     0.40157   0.24820   0.23819   0.00000  Uiso   1.00
C82    C     0.59858   0.25003   0.26206   0.00000  Uiso   1.00
C83    C     0.34685   0.24296   0.23259   0.00000  Uiso   1.00
C84    C     0.65367   0.25213   0.26873   0.00000  Uiso   1.00
C85    C     0.52731   0.04771   0.28790   0.00000  Uiso   1.00
C86    C     0.50289   0.45388   0.20637   0.00000  Uiso   1.00
C87    C     0.52708   0.09369   0.28846   0.00000  Uiso   1.00
C88    C     0.49971   0.33506   0.24958   0.00000  Uiso   1.00
C89    C     0.50250   0.40784   0.20615   0.00000  Uiso   1.00
C90    C     0.49941   0.11700   0.25082   0.00000  Uiso   1.00
C91    C     0.49922   0.38348   0.24910   0.00000  Uiso   1.00
C92    C     0.47199   0.09415   0.21263   0.00000  Uiso   1.00
C93    C     0.49551   0.40576   0.29208   0.00000  Uiso   1.00
C94    C     0.47177   0.04820   0.21228   0.00000  Uiso   1.00
C95    C     0.49539   0.45167   0.29218   0.00000  Uiso   1.00
C96    C     0.49955   0.02464   0.24984   0.00000  Uiso   1.00
C97    C     0.49938   0.47609   0.24942   0.00000  Uiso   1.00
C98    C     0.59040   0.28683   0.12647   0.00000  Uiso   1.00
C99    C     0.52953   0.27870   0.05393   0.00000  Uiso   1.00
C100   C     0.59412   0.33188   0.15116   0.00000  Uiso   1.00
C101   C     0.64905   0.35147   0.15544   0.00000  Uiso   1.00
C102   C     0.46623   0.16863   0.37988   0.00000  Uiso   1.00
C103   C     0.41276   0.16341   0.35128   0.00000  Uiso   1.00
C104   C     0.39676   0.11471   0.34434   0.00000  Uiso   1.00
C105   C     0.47201   0.22062   0.44653   0.00000  Uiso   1.00
C106   C     0.53676   0.27293   0.10459   0.00000  Uiso   1.00
C107   C     0.47892   0.21546   0.39743   0.00000  Uiso   1.00
C108   C     0.45805   0.23159   0.10225   0.00000  Uiso   1.00
C109   C     0.51598   0.28793   0.39475   0.00000  Uiso   1.00
C110   C     0.45193   0.23503   0.05114   0.00000  Uiso   1.00
Cu111  Cu    0.50000   0.25000   0.29821   0.00000  Uiso   1.00
Cu112  Cu    0.50000   0.25001   0.20178   0.00000  Uiso   1.00
H113   H     0.66201   0.23033   0.19888   0.00000  Uiso   1.00
H114   H     0.49164   0.46806   0.32564   0.00000  Uiso   1.00
H115   H     0.55898   0.29605   0.03572   0.00000  Uiso   1.00
H116   H     0.45610   0.19329   0.46651   0.00000  Uiso   1.00
H117   H     0.42877   0.21368   0.12000   0.00000  Uiso   1.00
H118   H     0.53306   0.31521   0.37581   0.00000  Uiso   1.00
H119   H     0.41857   0.21904   0.03161   0.00000  Uiso   1.00
H120   H     0.52475   0.32329   0.46152   0.00000  Uiso   1.00
H121   H     0.34263   0.32832   0.17576   0.00000  Uiso   1.00
H122   H     0.66152   0.35818   0.11915   0.00000  Uiso   1.00
H123   H     0.65064   0.38317   0.17498   0.00000  Uiso   1.00
H124   H     0.33925   0.26241   0.30352   0.00000  Uiso   1.00
H125   H     0.56830   0.35550   0.13018   0.00000  Uiso   1.00
H126   H     0.58322   0.32836   0.18805   0.00000  Uiso   1.00
H127   H     0.60753   0.25989   0.14840   0.00000  Uiso   1.00
H128   H     0.61678   0.28908   0.09775   0.00000  Uiso   1.00
H129   H     0.42519   0.09770   0.32508   0.00000  Uiso   1.00
H130   H     0.39379   0.09783   0.37973   0.00000  Uiso   1.00
H131   H     0.35859   0.11220   0.32263   0.00000  Uiso   1.00
H132   H     0.38369   0.17948   0.37072   0.00000  Uiso   1.00
H133   H     0.41225   0.17902   0.31529   0.00000  Uiso   1.00
H134   H     0.49804   0.15482   0.36300   0.00000  Uiso   1.00
H135   H     0.54978   0.03023   0.31681   0.00000  Uiso   1.00
H136   H     0.46577   0.14553   0.41148   0.00000  Uiso   1.00
H137   H     0.50650   0.47211   0.17300   0.00000  Uiso   1.00
H138   H     0.54942   0.11102   0.31759   0.00000  Uiso   1.00
H139   H     0.50497   0.39144   0.17250   0.00000  Uiso   1.00
H140   H     0.45026   0.11186   0.18339   0.00000  Uiso   1.00
H141   H     0.49244   0.38778   0.32569   0.00000  Uiso   1.00
H142   H     0.44943   0.03109   0.18297   0.00000  Uiso   1.00
N143   N     0.50000   0.25001   0.12934   0.00000  Uiso   1.00
N144   N     0.50000   0.24999   0.37065   0.00000  Uiso   1.00
O145   O     0.50000   0.18573   0.29072   0.00000  Uiso   1.00
O146   O     0.50000   0.31428   0.20928   0.00000  Uiso   1.00
O147   O     0.50000   0.18573   0.20928   0.00000  Uiso   1.00
O148   O     0.50000   0.31427   0.29072   0.00000  Uiso   1.00
O149   O     0.42495   0.25000   0.28132   0.00000  Uiso   1.00
O150   O     0.57505   0.25001   0.21868   0.00000  Uiso   1.00
O151   O     0.42495   0.25000   0.19988   0.00000  Uiso   1.00
O152   O     0.57505   0.25000   0.30012   0.00000  Uiso   1.00
C153   C     0.83326   0.16511   0.25039   0.00000  Uiso   1.00
C154   C     0.84435   0.29271   0.44446   0.00000  Uiso   1.00
C155   C     0.82162   0.25897   0.02594   0.00000  Uiso   1.00
C156   C     0.82181   0.25859   0.47139   0.00000  Uiso   1.00
C157   C     0.73490   0.24820   0.23819   0.00000  Uiso   1.00
C158   C     0.93191   0.25003   0.26206   0.00000  Uiso   1.00
C159   C     0.68018   0.24296   0.23259   0.00000  Uiso   1.00
C160   C     0.98700   0.25213   0.26873   0.00000  Uiso   1.00
C161   C     0.86064   0.04771   0.28790   0.00000  Uiso   1.00
C162   C     0.83622   0.45388   0.20637   0.00000  Uiso   1.00
C163   C     0.86042   0.09369   0.28846   0.00000  Uiso   1.00
C164   C     0.83305   0.33506   0.24958   0.00000  Uiso   1.00
C165   C     0.83583   0.40784   0.20615   0.00000  Uiso   1.00
C166   C     0.83275   0.11700   0.25082   0.00000  Uiso   1.00
C167   C     0.83255   0.38348   0.24910   0.00000  Uiso   1.00
C168   C     0.80533   0.09415   0.21263   0.00000  Uiso   1.00
C169   C     0.82884   0.40576   0.29208   0.00000  Uiso   1.00
C170   C     0.80510   0.04820   0.21228   0.00000  Uiso   1.00
C171   C     0.82872   0.45167   0.29218   0.00000  Uiso   1.00
C172   C     0.83289   0.02464   0.24984   0.00000  Uiso   1.00
C173   C     0.83271   0.47609   0.24942   0.00000  Uiso   1.00
C174   C     0.92373   0.28683   0.12647   0.00000  Uiso   1.00
C175   C     0.86286   0.27870   0.05393   0.00000  Uiso   1.00
C176   C     0.92745   0.33188   0.15116   0.00000  Uiso   1.00
C177   C     0.98238   0.35147   0.15544   0.00000  Uiso   1.00
C178   C     0.79956   0.16863   0.37988   0.00000  Uiso   1.00
C179   C     0.74609   0.16341   0.35128   0.00000  Uiso   1.00
C180   C     0.73010   0.11471   0.34434   0.00000  Uiso   1.00
C181   C     0.80534   0.22062   0.44653   0.00000  Uiso   1.00
C182   C     0.87009   0.27293   0.10459   0.00000  Uiso   1.00
C183   C     0.81226   0.21546   0.39743   0.00000  Uiso   1.00
C184   C     0.79138   0.23159   0.10225   0.00000  Uiso   1.00
C185   C     0.84931   0.28793   0.39475   0.00000  Uiso   1.00
C186   C     0.78527   0.23503   0.05114   0.00000  Uiso   1.00
Cu187  Cu    0.83333   0.25000   0.29821   0.00000  Uiso   1.00
Cu188  Cu    0.83333   0.25001   0.20178   0.00000  Uiso   1.00
H189   H     0.99535   0.23033   0.19888   0.00000  Uiso   1.00
H190   H     0.82497   0.46806   0.32564   0.00000  Uiso   1.00
H191   H     0.89232   0.29605   0.03572   0.00000  Uiso   1.00
H192   H     0.78944   0.19329   0.46651   0.00000  Uiso   1.00
H193   H     0.76210   0.21368   0.12000   0.00000  Uiso   1.00
H194   H     0.86640   0.31521   0.37581   0.00000  Uiso   1.00
H195   H     0.75191   0.21904   0.03161   0.00000  Uiso   1.00
H196   H     0.85809   0.32329   0.46152   0.00000  Uiso   1.00
H197   H     0.67597   0.32832   0.17576   0.00000  Uiso   1.00
H198   H     0.99486   0.35818   0.11915   0.00000  Uiso   1.00
H199   H     0.98398   0.38317   0.17498   0.00000  Uiso   1.00
H200   H     0.67258   0.26241   0.30352   0.00000  Uiso   1.00
H201   H     0.90163   0.35550   0.13018   0.00000  Uiso   1.00
H202   H     0.91656   0.32836   0.18805   0.00000  Uiso   1.00
H203   H     0.94087   0.25989   0.14840   0.00000  Uiso   1.00
H204   H     0.95011   0.28908   0.09775   0.00000  Uiso   1.00
H205   H     0.75853   0.09770   0.32508   0.00000  Uiso   1.00
H206   H     0.72713   0.09783   0.37973   0.00000  Uiso   1.00
H207   H     0.69192   0.11220   0.32263   0.00000  Uiso   1.00
H208   H     0.71702   0.17948   0.37072   0.00000  Uiso   1.00
H209   H     0.74558   0.17902   0.31529   0.00000  Uiso   1.00
H210   H     0.83137   0.15482   0.36300   0.00000  Uiso   1.00
H211   H     0.88312   0.03023   0.31681   0.00000  Uiso   1.00
H212   H     0.79911   0.14553   0.41148   0.00000  Uiso   1.00
H213   H     0.83983   0.47211   0.17300   0.00000  Uiso   1.00
H214   H     0.88276   0.11102   0.31759   0.00000  Uiso   1.00
H215   H     0.83830   0.39144   0.17250   0.00000  Uiso   1.00
H216   H     0.78359   0.11186   0.18339   0.00000  Uiso   1.00
H217   H     0.82577   0.38778   0.32569   0.00000  Uiso   1.00
H218   H     0.78276   0.03109   0.18297   0.00000  Uiso   1.00
N219   N     0.83333   0.25001   0.12934   0.00000  Uiso   1.00
N220   N     0.83333   0.24999   0.37065   0.00000  Uiso   1.00
O221   O     0.83334   0.18573   0.29072   0.00000  Uiso   1.00
O222   O     0.83333   0.31428   0.20928   0.00000  Uiso   1.00
O223   O     0.83334   0.18573   0.20928   0.00000  Uiso   1.00
O224   O     0.83333   0.31427   0.29072   0.00000  Uiso   1.00
O225   O     0.75828   0.25000   0.28132   0.00000  Uiso   1.00
O226   O     0.90839   0.25001   0.21868   0.00000  Uiso   1.00
O227   O     0.75828   0.25000   0.19988   0.00000  Uiso   1.00
O228   O     0.90839   0.25000   0.30012   0.00000  Uiso   1.00
C229   C     0.16659   0.66511   0.25039   0.00000  Uiso   1.00
C230   C     0.17769   0.79271   0.44446   0.00000  Uiso   1.00
C231   C     0.15495   0.75897   0.02594   0.00000  Uiso   1.00
C232   C     0.15515   0.75859   0.47139   0.00000  Uiso   1.00
C233   C     0.06823   0.74820   0.23819   0.00000  Uiso   1.00
C234   C     0.26525   0.75003   0.26206   0.00000  Uiso   1.00
C235   C     0.01352   0.74296   0.23259   0.00000  Uiso   1.00
C236   C     0.32033   0.75213   0.26873   0.00000  Uiso   1.00
C237   C     0.19398   0.54771   0.28790   0.00000  Uiso   1.00
C238   C     0.16956   0.95388   0.20637   0.00000  Uiso   1.00
C239   C     0.19375   0.59369   0.28846   0.00000  Uiso   1.00
C240   C     0.16638   0.83506   0.24958   0.00000  Uiso   1.00
C241   C     0.16916   0.90784   0.20615   0.00000  Uiso   1.00
C242   C     0.16608   0.61700   0.25082   0.00000  Uiso   1.00
C243   C     0.16589   0.88348   0.24910   0.00000  Uiso   1.00
C244   C     0.13866   0.59415   0.21263   0.00000  Uiso   1.00
C245   C     0.16218   0.90576   0.29208   0.00000  Uiso   1.00
C246   C     0.13843   0.54820   0.21228   0.00000  Uiso   1.00
C247   C     0.16206   0.95167   0.29218   0.00000  Uiso   1.00
C248   C     0.16622   0.52464   0.24984   0.00000  Uiso   1.00
C249   C     0.16604   0.97609   0.24942   0.00000  Uiso   1.00
C250   C     0.25707   0.78683   0.12647   0.00000  Uiso   1.00
C251   C     0.19620   0.77870   0.05393   0.00000  Uiso   1.00
C252   C     0.26079   0.83188   0.15116   0.00000  Uiso   1.00
C253   C     0.31572   0.85147   0.15544   0.00000  Uiso   1.00
C254   C     0.13290   0.66863   0.37988   0.00000  Uiso   1.00
C255   C     0.07943   0.66341   0.35128   0.00000  Uiso   1.00
C256   C     0.06343   0.61471   0.34434   0.00000  Uiso   1.00
C257   C     0.13867   0.72062   0.44653   0.00000  Uiso   1.00
C258   C     0.20342   0.77293   0.10459   0.00000  Uiso   1.00
C259   C     0.14559   0.71546   0.39743   0.00000  Uiso   1.00
C260   C     0.12472   0.73159   0.10225   0.00000  Uiso   1.00
C261   C     0.18264   0.78793   0.39475   0.00000  Uiso   1.00
C262   C     0.11860   0.73503   0.05114   0.00000  Uiso   1.00
Cu263  Cu    0.16667   0.75000   0.29821   0.00000  Uiso   1.00
Cu264  Cu    0.16667   0.75001   0.20178   0.00000  Uiso   1.00
H265   H     0.32868   0.73033   0.19888   0.00000  Uiso   1.00
H266   H     0.15831   0.96806   0.32564   0.00000  Uiso   1.00
H267   H     0.22565   0.79605   0.03572   0.00000  Uiso   1.00
H268   H     0.12277   0.69329   0.46651   0.00000  Uiso   1.00
H269   H     0.09543   0.71368   0.12000   0.00000  Uiso   1.00
H270   H     0.19973   0.81521   0.37581   0.00000  Uiso   1.00
H271   H     0.08524   0.71904   0.03161   0.00000  Uiso   1.00
H272   H     0.19142   0.82329   0.46152   0.00000  Uiso   1.00
H273   H     0.00930   0.82832   0.17576   0.00000  Uiso   1.00
H274   H     0.32819   0.85818   0.11915   0.00000  Uiso   1.00
H275   H     0.31731   0.88317   0.17498   0.00000  Uiso   1.00
H276   H     0.00591   0.76241   0.30352   0.00000  Uiso   1.00
H277   H     0.23497   0.85550   0.13018   0.00000  Uiso   1.00
H278   H     0.24989   0.82836   0.18805   0.00000  Uiso   1.00
H279   H     0.27420   0.75989   0.14840   0.00000  Uiso   1.00
H280   H     0.28344   0.78908   0.09775   0.00000  Uiso   1.00
H281   H     0.09186   0.59770   0.32508   0.00000  Uiso   1.00
H282   H     0.06046   0.59783   0.37973   0.00000  Uiso   1.00
H283   H     0.02526   0.61220   0.32263   0.00000  Uiso   1.00
H284   H     0.05035   0.67948   0.37072   0.00000  Uiso   1.00
H285   H     0.07891   0.67902   0.31529   0.00000  Uiso   1.00
H286   H     0.16471   0.65482   0.36300   0.00000  Uiso   1.00
H287   H     0.21645   0.53023   0.31681   0.00000  Uiso   1.00
H288   H     0.13244   0.64553   0.41148   0.00000  Uiso   1.00
H289   H     0.17316   0.97211   0.17300   0.00000  Uiso   1.00
H290   H     0.21609   0.61102   0.31759   0.00000  Uiso   1.00
H291   H     0.17164   0.89144   0.17250   0.00000  Uiso   1.00
H292   H     0.11692   0.61186   0.18339   0.00000  Uiso   1.00
H293   H     0.15910   0.88778   0.32569   0.00000  Uiso   1.00
H294   H     0.11610   0.53109   0.18297   0.00000  Uiso   1.00
N295   N     0.16667   0.75001   0.12934   0.00000  Uiso   1.00
N296   N     0.16667   0.74999   0.37065   0.00000  Uiso   1.00
O297   O     0.16667   0.68573   0.29072   0.00000  Uiso   1.00
O298   O     0.16666   0.81428   0.20928   0.00000  Uiso   1.00
O299   O     0.16667   0.68573   0.20928   0.00000  Uiso   1.00
O300   O     0.16666   0.81427   0.29072   0.00000  Uiso   1.00
O301   O     0.09161   0.75000   0.28132   0.00000  Uiso   1.00
O302   O     0.24172   0.75001   0.21868   0.00000  Uiso   1.00
O303   O     0.09161   0.75000   0.19988   0.00000  Uiso   1.00
O304   O     0.24172   0.75000   0.30012   0.00000  Uiso   1.00
C305   C     0.49992   0.66511   0.25039   0.00000  Uiso   1.00
C306   C     0.51102   0.79271   0.44446   0.00000  Uiso   1.00
C307   C     0.48829   0.75897   0.02594   0.00000  Uiso   1.00
C308   C     0.48848   0.75859   0.47139   0.00000  Uiso   1.00
C309   C     0.40157   0.74820   0.23819   0.00000  Uiso   1.00
C310   C     0.59858   0.75003   0.26206   0.00000  Uiso   1.00
C311   C     0.34685   0.74296   0.23259   0.00000  Uiso   1.00
C312   C     0.65367   0.75213   0.26873   0.00000  Uiso   1.00
C313   C     0.52731   0.54771   0.28790   0.00000  Uiso   1.00
C314   C     0.50289   0.95388   0.20637   0.00000  Uiso   1.00
C315   C     0.52708   0.59369   0.28846   0.00000  Uiso   1.00
C316   C     0.49971   0.83506   0.24958   0.00000  Uiso   1.00
C317   C     0.50250   0.90784   0.20615   0.00000  Uiso   1.00
C318   C     0.49941   0.61700   0.25082   0.00000  Uiso   1.00
C319   C     0.49922   0.88348   0.24910   0.00000  Uiso   1.00
C320   C     0.47199   0.59415   0.21263   0.00000  Uiso   1.00
C321   C     0.49551   0.90576   0.29208   0.00000  Uiso   1.00
C322   C     0.47177   0.54820   0.21228   0.00000  Uiso   1.00
C323   C     0.49539   0.95167   0.29218   0.00000  Uiso   1.00
C324   C     0.49955   0.52464   0.24984   0.00000  Uiso   1.00
C325   C     0.49938   0.97609   0.24942   0.00000  Uiso   1.00
C326   C     0.59040   0.78683   0.12647   0.00000  Uiso   1.00
C327   C     0.52953   0.77870   0.05393   0.00000  Uiso   1.00
C328   C     0.59412   0.83188   0.15116   0.00000  Uiso   1.00
C329   C     0.64905   0.85147   0.15544   0.00000  Uiso   1.00
C330   C     0.46623   0.66863   0.37988   0.00000  Uiso   1.00
C331   C     0.41276   0.66341   0.35128   0.00000  Uiso   1.00
C332   C     0.39676   0.61471   0.34434   0.00000  Uiso   1.00
C333   C     0.47201   0.72062   0.44653   0.00000  Uiso   1.00
C334   C     0.53676   0.77293   0.10459   0.00000  Uiso   1.00
C335   C     0.47892   0.71546   0.39743   0.00000  Uiso   1.00
C336   C     0.45805   0.73159   0.10225   0.00000  Uiso   1.00
C337   C     0.51598   0.78793   0.39475   0.00000  Uiso   1.00
C338   C     0.45193   0.73503   0.05114   0.00000  Uiso   1.00
Cu339  Cu    0.50000   0.75000   0.29821   0.00000  Uiso   1.00
Cu340  Cu    0.50000   0.75001   0.20178   0.00000  Uiso   1.00
H341   H     0.66201   0.73033   0.19888   0.00000  Uiso   1.00
H342   H     0.49164   0.96806   0.32564   0.00000  Uiso   1.00
H343   H     0.55898   0.79605   0.03572   0.00000  Uiso   1.00
H344   H     0.45610   0.69329   0.46651   0.00000  Uiso   1.00
H345   H     0.42877   0.71368   0.12000   0.00000  Uiso   1.00
H346   H     0.53306   0.81521   0.37581   0.00000  Uiso   1.00
H347   H     0.41857   0.71904   0.03161   0.00000  Uiso   1.00
H348   H     0.52475   0.82329   0.46152   0.00000  Uiso   1.00
H349   H     0.34263   0.82832   0.17576   0.00000  Uiso   1.00
H350   H     0.66152   0.85818   0.11915   0.00000  Uiso   1.00
H351   H     0.65064   0.88317   0.17498   0.00000  Uiso   1.00
H352   H     0.33925   0.76241   0.30352   0.00000  Uiso   1.00
H353   H     0.56830   0.85550   0.13018   0.00000  Uiso   1.00
H354   H     0.58322   0.82836   0.18805   0.00000  Uiso   1.00
H355   H     0.60753   0.75989   0.14840   0.00000  Uiso   1.00
H356   H     0.61678   0.78908   0.09775   0.00000  Uiso   1.00
H357   H     0.42519   0.59770   0.32508   0.00000  Uiso   1.00
H358   H     0.39379   0.59783   0.37973   0.00000  Uiso   1.00
H359   H     0.35859   0.61220   0.32263   0.00000  Uiso   1.00
H360   H     0.38369   0.67948   0.37072   0.00000  Uiso   1.00
H361   H     0.41225   0.67902   0.31529   0.00000  Uiso   1.00
H362   H     0.49804   0.65482   0.36300   0.00000  Uiso   1.00
H363   H     0.54978   0.53023   0.31681   0.00000  Uiso   1.00
H364   H     0.46577   0.64553   0.41148   0.00000  Uiso   1.00
H365   H     0.50650   0.97211   0.17300   0.00000  Uiso   1.00
H366   H     0.54942   0.61102   0.31759   0.00000  Uiso   1.00
H367   H     0.50497   0.89144   0.17250   0.00000  Uiso   1.00
H368   H     0.45026   0.61186   0.18339   0.00000  Uiso   1.00
H369   H     0.49244   0.88778   0.32569   0.00000  Uiso   1.00
H370   H     0.44943   0.53109   0.18297   0.00000  Uiso   1.00
N371   N     0.50000   0.75001   0.12934   0.00000  Uiso   1.00
N372   N     0.50000   0.74999   0.37065   0.00000  Uiso   1.00
O373   O     0.50000   0.68573   0.29072   0.00000  Uiso   1.00
O374   O     0.50000   0.81428   0.20928   0.00000  Uiso   1.00
O375   O     0.50000   0.68573   0.20928   0.00000  Uiso   1.00
O376   O     0.50000   0.81427   0.29072   0.00000  Uiso   1.00
O377   O     0.42495   0.75000   0.28132   0.00000  Uiso   1.00
O378   O     0.57505   0.75001   0.21868   0.00000  Uiso   1.00
O379   O     0.42495   0.75000   0.19988   0.00000  Uiso   1.00
O380   O     0.57505   0.75000   0.30012   0.00000  Uiso   1.00
C381   C     0.83326   0.66511   0.25039   0.00000  Uiso   1.00
C382   C     0.84435   0.79271   0.44446   0.00000  Uiso   1.00
C383   C     0.82162   0.75897   0.02594   0.00000  Uiso   1.00
C384   C     0.82181   0.75859   0.47139   0.00000  Uiso   1.00
C385   C     0.73490   0.74820   0.23819   0.00000  Uiso   1.00
C386   C     0.93191   0.75003   0.26206   0.00000  Uiso   1.00
C387   C     0.68018   0.74296   0.23259   0.00000  Uiso   1.00
C388   C     0.98700   0.75213   0.26873   0.00000  Uiso   1.00
C389   C     0.86064   0.54771   0.28790   0.00000  Uiso   1.00
C390   C     0.83622   0.95388   0.20637   0.00000  Uiso   1.00
C391   C     0.86042   0.59369   0.28846   0.00000  Uiso   1.00
C392   C     0.83305   0.83506   0.24958   0.00000  Uiso   1.00
C393   C     0.83583   0.90784   0.20615   0.00000  Uiso   1.00
C394   C     0.83275   0.61700   0.25082   0.00000  Uiso   1.00
C395   C     0.83255   0.88348   0.24910   0.00000  Uiso   1.00
C396   C     0.80533   0.59415   0.21263   0.00000  Uiso   1.00
C397   C     0.82884   0.90576   0.29208   0.00000  Uiso   1.00
C398   C     0.80510   0.54820   0.21228   0.00000  Uiso   1.00
C399   C     0.82872   0.95167   0.29218   0.00000  Uiso   1.00
C400   C     0.83289   0.52464   0.24984   0.00000  Uiso   1.00
C401   C     0.83271   0.97609   0.24942   0.00000  Uiso   1.00
C402   C     0.92373   0.78683   0.12647   0.00000  Uiso   1.00
C403   C     0.86286   0.77870   0.05393   0.00000  Uiso   1.00
C404   C     0.92745   0.83188   0.15116   0.00000  Uiso   1.00
C405   C     0.98238   0.85147   0.15544   0.00000  Uiso   1.00
C406   C     0.79956   0.66863   0.37988   0.00000  Uiso   1.00
C407   C     0.74609   0.66341   0.35128   0.00000  Uiso   1.00
C408   C     0.73010   0.61471   0.34434   0.00000  Uiso   1.00
C409   C     0.80534   0.72062   0.44653   0.00000  Uiso   1.00
C410   C     0.87009   0.77293   0.10459   0.00000  Uiso   1.00
C411   C     0.81226   0.71546   0.39743   0.00000  Uiso   1.00
C412   C     0.79138   0.73159   0.10225   0.00000  Uiso   1.00
C413   C     0.84931   0.78793   0.39475   0.00000  Uiso   1.00
C414   C     0.78527   0.73503   0.05114   0.00000  Uiso   1.00
Cu415  Cu    0.83333   0.75000   0.29821   0.00000  Uiso   1.00
Cu416  Cu    0.83333   0.75001   0.20178   0.00000  Uiso   1.00
H417   H     0.99535   0.73033   0.19888   0.00000  Uiso   1.00
H418   H     0.82497   0.96806   0.32564   0.00000  Uiso   1.00
H419   H     0.89232   0.79605   0.03572   0.00000  Uiso   1.00
H420   H     0.78944   0.69329   0.46651   0.00000  Uiso   1.00
H421   H     0.76210   0.71368   0.12000   0.00000  Uiso   1.00
H422   H     0.86640   0.81521   0.37581   0.00000  Uiso   1.00
H423   H     0.75191   0.71904   0.03161   0.00000  Uiso   1.00
H424   H     0.85809   0.82329   0.46152   0.00000  Uiso   1.00
H425   H     0.67597   0.82832   0.17576   0.00000  Uiso   1.00
H426   H     0.99486   0.85818   0.11915   0.00000  Uiso   1.00
H427   H     0.98398   0.88317   0.17498   0.00000  Uiso   1.00
H428   H     0.67258   0.76241   0.30352   0.00000  Uiso   1.00
H429   H     0.90163   0.85550   0.13018   0.00000  Uiso   1.00
H430   H     0.91656   0.82836   0.18805   0.00000  Uiso   1.00
H431   H     0.94087   0.75989   0.14840   0.00000  Uiso   1.00
H432   H     0.95011   0.78908   0.09775   0.00000  Uiso   1.00
H433   H     0.75853   0.59770   0.32508   0.00000  Uiso   1.00
H434   H     0.72713   0.59783   0.37973   0.00000  Uiso   1.00
H435   H     0.69192   0.61220   0.32263   0.00000  Uiso   1.00
H436   H     0.71702   0.67948   0.37072   0.00000  Uiso   1.00
H437   H     0.74558   0.67902   0.31529   0.00000  Uiso   1.00
H438   H     0.83137   0.65482   0.36300   0.00000  Uiso   1.00
H439   H     0.88312   0.53023   0.31681   0.00000  Uiso   1.00
H440   H     0.79911   0.64553   0.41148   0.00000  Uiso   1.00
H441   H     0.83983   0.97211   0.17300   0.00000  Uiso   1.00
H442   H     0.88276   0.61102   0.31759   0.00000  Uiso   1.00
H443   H     0.83830   0.89144   0.17250   0.00000  Uiso   1.00
H444   H     0.78359   0.61186   0.18339   0.00000  Uiso   1.00
H445   H     0.82577   0.88778   0.32569   0.00000  Uiso   1.00
H446   H     0.78276   0.53109   0.18297   0.00000  Uiso   1.00
N447   N     0.83333   0.75001   0.12934   0.00000  Uiso   1.00
N448   N     0.83333   0.74999   0.37065   0.00000  Uiso   1.00
O449   O     0.83334   0.68573   0.29072   0.00000  Uiso   1.00
O450   O     0.83333   0.81428   0.20928   0.00000  Uiso   1.00
O451   O     0.83334   0.68573   0.20928   0.00000  Uiso   1.00
O452   O     0.83333   0.81427   0.29072   0.00000  Uiso   1.00
O453   O     0.75828   0.75000   0.28132   0.00000  Uiso   1.00
O454   O     0.90839   0.75001   0.21868   0.00000  Uiso   1.00
O455   O     0.75828   0.75000   0.19988   0.00000  Uiso   1.00
O456   O     0.90839   0.75000   0.30012   0.00000  Uiso   1.00
C457   C     0.16659   0.16511   0.75039   0.00000  Uiso   1.00
C458   C     0.17769   0.29271   0.94446   0.00000  Uiso   1.00
C459   C     0.15495   0.25897   0.52594   0.00000  Uiso   1.00
C460   C     0.15515   0.25859   0.97139   0.00000  Uiso   1.00
C461   C     0.06823   0.24820   0.73819   0.00000  Uiso   1.00
C462   C     0.26525   0.25003   0.76206   0.00000  Uiso   1.00
C463   C     0.01352   0.24296   0.73259   0.00000  Uiso   1.00
C464   C     0.32033   0.25213   0.76873   0.00000  Uiso   1.00
C465   C     0.19398   0.04771   0.78790   0.00000  Uiso   1.00
C466   C     0.16956   0.45388   0.70637   0.00000  Uiso   1.00
C467   C     0.19375   0.09369   0.78846   0.00000  Uiso   1.00
C468   C     0.16638   0.33506   0.74958   0.00000  Uiso   1.00
C469   C     0.16916   0.40784   0.70615   0.00000  Uiso   1.00
C470   C     0.16608   0.11700   0.75082   0.00000  Uiso   1.00
C471   C     0.16589   0.38348   0.74910   0.00000  Uiso   1.00
C472   C     0.13866   0.09415   0.71263   0.00000  Uiso   1.00
C473   C     0.16218   0.40576   0.79208   0.00000  Uiso   1.00
C474   C     0.13843   0.04820   0.71228   0.00000  Uiso   1.00
C475   C     0.16206   0.45167   0.79218   0.00000  Uiso   1.00
C476   C     0.16622   0.02464   0.74984   0.00000  Uiso   1.00
C477   C     0.16604   0.47609   0.74942   0.00000  Uiso   1.00
C478   C     0.25707   0.28683   0.62647   0.00000  Uiso   1.00
C479   C     0.19620   0.27870   0.55393   0.00000  Uiso   1.00
C480   C     0.26079   0.33188   0.65116   0.00000  Uiso   1.00
C481   C     0.31572   0.35147   0.65544   0.00000  Uiso   1.00
C482   C     0.13290   0.16863   0.87988   0.00000  Uiso   1.00
C483   C     0.07943   0.16341   0.85128   0.00000  Uiso   1.00
C484   C     0.06343   0.11471   0.84434   0.00000  Uiso   1.00
C485   C     0.13867   0.22062   0.94653   0.00000  Uiso   1.00
C486   C     0.20342   0.27293   0.60459   0.00000  Uiso   1.00
C487   C     0.14559   0.21546   0.89743   0.00000  Uiso   1.00
C488   C     0.12472   0.23159   0.60225   0.00000  Uiso   1.00
C489   C     0.18264   0.28793   0.89475   0.00000  Uiso   1.00
C490   C     0.11860   0.23503   0.55114   0.00000  Uiso   1.00
Cu491  Cu    0.16667   0.25000   0.79821   0.00000  Uiso   1.00
Cu492  Cu    0.16667   0.25001   0.70178   0.00000  Uiso   1.00
H493   H     0.32868   0.23033   0.69888   0.00000  Uiso   1.00
H494   H     0.15831   0.46806   0.82564   0.00000  Uiso   1.00
H495   H     0.22565   0.29605   0.53572   0.00000  Uiso   1.00
H496   H     0.12277   0.19329   0.96651   0.00000  Uiso   1.00
H497   H     0.09543   0.21368   0.62000   0.00000  Uiso   1.00
H498   H     0.19973   0.31521   0.87581   0.00000  Uiso   1.00
H499   H     0.08524   0.21904   0.53161   0.00000  Uiso   1.00
H500   H     0.19142   0.32329   0.96152   0.00000  Uiso   1.00
H501   H     0.00930   0.32832   0.67576   0.00000  Uiso   1.00
H502   H     0.32819   0.35818   0.61915   0.00000  Uiso   1.00
H503   H     0.31731   0.38317   0.67498   0.00000  Uiso   1.00
H504   H     0.00591   0.26241   0.80352   0.00000  Uiso   1.00
H505   H     0.23497   0.35550   0.63018   0.00000  Uiso   1.00
H506   H     0.24989   0.32836   0.68805   0.00000  Uiso   1.00
H507   H     0.27420   0.25989   0.64840   0.00000  Uiso   1.00
H508   H     0.28344   0.28908   0.59775   0.00000  Uiso   1.00
H509   H     0.09186   0.09770   0.82508   0.00000  Uiso   1.00
H510   H     0.06046   0.09783   0.87973   0.00000  Uiso   1.00
H511   H     0.02526   0.11220   0.82263   0.00000  Uiso   1.00
H512   H     0.05035   0.17948   0.87072   0.00000  Uiso   1.00
H513   H     0.07891   0.17902   0.81529   0.00000  Uiso   1.00
H514   H     0.16471   0.15482   0.86300   0.00000  Uiso   1.00
H515   H     0.21645   0.03023   0.81681   0.00000  Uiso   1.00
H516   H     0.13244   0.14553   0.91148   0.00000  Uiso   1.00
H517   H     0.17316   0.47211   0.67300   0.00000  Uiso   1.00
H518   H     0.21609   0.11102   0.81759   0.00000  Uiso   1.00
H519   H     0.17164   0.39144   0.67250   0.00000  Uiso   1.00
H520   H     0.11692   0.11186   0.68339   0.00000  Uiso   1.00
H521   H     0.15910   0.38778   0.82569   0.00000  Uiso   1.00
H522   H     0.11610   0.03109   0.68297   0.00000  Uiso   1.00
N523   N     0.16667   0.25001   0.62934   0.00000  Uiso   1.00
N524   N     0.16667   0.24999   0.87065   0.00000  Uiso   1.00
O525   O     0.16667   0.18573   0.79072   0.00000  Uiso   1.00
O526   O     0.16666   0.31428   0.70928   0.00000  Uiso   1.00
O527   O     0.16667   0.18573   0.70928   0.00000  Uiso   1.00
O528   O     0.16666   0.31427   0.79072   0.00000  Uiso   1.00
O529   O     0.09161   0.25000   0.78132   0.00000  Uiso   1.00
O530   O     0.24172   0.25001   0.71868   0.00000  Uiso   1.00
O531   O     0.09161   0.25000   0.69988   0.00000  Uiso   1.00
O532   O     0.24172   0.25000   0.80012   0.00000  Uiso   1.00
C533   C     0.49992   0.16511   0.75039   0.00000  Uiso   1.00
C534   C     0.51102   0.29271   0.94446   0.00000  Uiso   1.00
C535   C     0.48829   0.25897   0.52594   0.00000  Uiso   1.00
C536   C     0.48848   0.25859   0.97139   0.00000  Uiso   1.00
C537   C     0.40157   0.24820   0.73819   0.00000  Uiso   1.00
C538   C     0.59858   0.25003   0.76206   0.00000  Uiso   1.00
C539   C     0.34685   0.24296   0.73259   0.00000  Uiso   1.00
C540   C     0.65367   0.25213   0.76873   0.00000  Uiso   1.00
C541   C     0.52731   0.04771   0.78790   0.00000  Uiso   1.00
C542   C     0.50289   0.45388   0.70637   0.00000  Uiso   1.00
C543   C     0.52708   0.09369   0.78846   0.00000  Uiso   1.00
C544   C     0.49971   0.33506   0.74958   0.00000  Uiso   1.00
C545   C     0.50250   0.40784   0.70615   0.00000  Uiso   1.00
C546   C     0.49941   0.11700   0.75082   0.00000  Uiso   1.00
C547   C     0.49922   0.38348   0.74910   0.00000  Uiso   1.00
C548   C     0.47199   0.09415   0.71263   0.00000  Uiso   1.00
C549   C     0.49551   0.40576   0.79208   0.00000  Uiso   1.00
C550   C     0.47177   0.04820   0.71228   0.00000  Uiso   1.00
C551   C     0.49539   0.45167   0.79218   0.00000  Uiso   1.00
C552   C     0.49955   0.02464   0.74984   0.00000  Uiso   1.00
C553   C     0.49938   0.47609   0.74942   0.00000  Uiso   1.00
C554   C     0.59040   0.28683   0.62647   0.00000  Uiso   1.00
C555   C     0.52953   0.27870   0.55393   0.00000  Uiso   1.00
C556   C     0.59412   0.33188   0.65116   0.00000  Uiso   1.00
C557   C     0.64905   0.35147   0.65544   0.00000  Uiso   1.00
C558   C     0.46623   0.16863   0.87988   0.00000  Uiso   1.00
C559   C     0.41276   0.16341   0.85128   0.00000  Uiso   1.00
C560   C     0.39676   0.11471   0.84434   0.00000  Uiso   1.00
C561   C     0.47201   0.22062   0.94653   0.00000  Uiso   1.00
C562   C     0.53676   0.27293   0.60459   0.00000  Uiso   1.00
C563   C     0.47892   0.21546   0.89743   0.00000  Uiso   1.00
C564   C     0.45805   0.23159   0.60225   0.00000  Uiso   1.00
C565   C     0.51598   0.28793   0.89475   0.00000  Uiso   1.00
C566   C     0.45193   0.23503   0.55114   0.00000  Uiso   1.00
Cu567  Cu    0.50000   0.25000   0.79821   0.00000  Uiso   1.00
Cu568  Cu    0.50000   0.25001   0.70178   0.00000  Uiso   1.00
H569   H     0.66201   0.23033   0.69888   0.00000  Uiso   1.00
H570   H     0.49164   0.46806   0.82564   0.00000  Uiso   1.00
H571   H     0.55898   0.29605   0.53572   0.00000  Uiso   1.00
H572   H     0.45610   0.19329   0.96651   0.00000  Uiso   1.00
H573   H     0.42877   0.21368   0.62000   0.00000  Uiso   1.00
H574   H     0.53306   0.31521   0.87581   0.00000  Uiso   1.00
H575   H     0.41857   0.21904   0.53161   0.00000  Uiso   1.00
H576   H     0.52475   0.32329   0.96152   0.00000  Uiso   1.00
H577   H     0.34263   0.32832   0.67576   0.00000  Uiso   1.00
H578   H     0.66152   0.35818   0.61915   0.00000  Uiso   1.00
H579   H     0.65064   0.38317   0.67498   0.00000  Uiso   1.00
H580   H     0.33925   0.26241   0.80352   0.00000  Uiso   1.00
H581   H     0.56830   0.35550   0.63018   0.00000  Uiso   1.00
H582   H     0.58322   0.32836   0.68805   0.00000  Uiso   1.00
H583   H     0.60753   0.25989   0.64840   0.00000  Uiso   1.00
H584   H     0.61678   0.28908   0.59775   0.00000  Uiso   1.00
H585   H     0.42519   0.09770   0.82508   0.00000  Uiso   1.00
H586   H     0.39379   0.09783   0.87973   0.00000  Uiso   1.00
H587   H     0.35859   0.11220   0.82263   0.00000  Uiso   1.00
H588   H     0.38369   0.17948   0.87072   0.00000  Uiso   1.00
H589   H     0.41225   0.17902   0.81529   0.00000  Uiso   1.00
H590   H     0.49804   0.15482   0.86300   0.00000  Uiso   1.00
H591   H     0.54978   0.03023   0.81681   0.00000  Uiso   1.00
H592   H     0.46577   0.14553   0.91148   0.00000  Uiso   1.00
H593   H     0.50650   0.47211   0.67300   0.00000  Uiso   1.00
H594   H     0.54942   0.11102   0.81759   0.00000  Uiso   1.00
H595   H     0.50497   0.39144   0.67250   0.00000  Uiso   1.00
H596   H     0.45026   0.11186   0.68339   0.00000  Uiso   1.00
H597   H     0.49244   0.38778   0.82569   0.00000  Uiso   1.00
H598   H     0.44943   0.03109   0.68297   0.00000  Uiso   1.00
N599   N     0.50000   0.25001   0.62934   0.00000  Uiso   1.00
N600   N     0.50000   0.24999   0.87065   0.00000  Uiso   1.00
O601   O     0.50000   0.18573   0.79072   0.00000  Uiso   1.00
O602   O     0.50000   0.31428   0.70928   0.00000  Uiso   1.00
O603   O     0.50000   0.18573   0.70928   0.00000  Uiso   1.00
O604   O     0.50000   0.31427   0.79072   0.00000  Uiso   1.00
O605   O     0.42495   0.25000   0.78132   0.00000  Uiso   1.00
O606   O     0.57505   0.25001   0.71868   0.00000  Uiso   1.00
O607   O     0.42495   0.25000   0.69988   0.00000  Uiso   1.00
O608   O     0.57505   0.25000   0.80012   0.00000  Uiso   1.00
C609   C     0.83326   0.16511   0.75039   0.00000  Uiso   1.00
C610   C     0.84435   0.29271   0.94446   0.00000  Uiso   1.00
C611   C     0.82162   0.25897   0.52594   0.00000  Uiso   1.00
C612   C     0.82181   0.25859   0.97139   0.00000  Uiso   1.00
C613   C     0.73490   0.24820   0.73819   0.00000  Uiso   1.00
C614   C     0.93191   0.25003   0.76206   0.00000  Uiso   1.00
C615   C     0.68018   0.24296   0.73259   0.00000  Uiso   1.00
C616   C     0.98700   0.25213   0.76873   0.00000  Uiso   1.00
C617   C     0.86064   0.04771   0.78790   0.00000  Uiso   1.00
C618   C     0.83622   0.45388   0.70637   0.00000  Uiso   1.00
C619   C     0.86042   0.09369   0.78846   0.00000  Uiso   1.00
C620   C     0.83305   0.33506   0.74958   0.00000  Uiso   1.00
C621   C     0.83583   0.40784   0.70615   0.00000  Uiso   1.00
C622   C     0.83275   0.11700   0.75082   0.00000  Uiso   1.00
C623   C     0.83255   0.38348   0.74910   0.00000  Uiso   1.00
C624   C     0.80533   0.09415   0.71263   0.00000  Uiso   1.00
C625   C     0.82884   0.40576   0.79208   0.00000  Uiso   1.00
C626   C     0.80510   0.04820   0.71228   0.00000  Uiso   1.00
C627   C     0.82872   0.45167   0.79218   0.00000  Uiso   1.00
C628   C     0.83289   0.02464   0.74984   0.00000  Uiso   1.00
C629   C     0.83271   0.47609   0.74942   0.00000  Uiso   1.00
C630   C     0.92373   0.28683   0.62647   0.00000  Uiso   1.00
C631   C     0.86286   0.27870   0.55393   0.00000  Uiso   1.00
C632   C     0.92745   0.33188   0.65116   0.00000  Uiso   1.00
C633   C     0.98238   0.35147   0.65544   0.00000  Uiso   1.00
C634   C     0.79956   0.16863   0.87988   0.00000  Uiso   1.00
C635   C     0.74609   0.16341   0.85128   0.00000  Uiso   1.00
C636   C     0.73010   0.11471   0.84434   0.00000  Uiso   1.00
C637   C     0.80534   0.22062   0.94653   0.00000  Uiso   1.00
C638   C     0.87009   0.27293   0.60459   0.00000  Uiso   1.00
C639   C     0.81226   0.21546   0.89743   0.00000  Uiso   1.00
C640   C     0.79138   0.23159   0.60225   0.00000  Uiso   1.00
C641   C     0.84931   0.28793   0.89475   0.00000  Uiso   1.00
C642   C     0.78527   0.23503   0.55114   0.00000  Uiso   1.00
Cu643  Cu    0.83333   0.25000   0.79821   0.00000  Uiso   1.00
Cu644  Cu    0.83333   0.25001   0.70178   0.00000  Uiso   1.00
H645   H     0.99535   0.23033   0.69888   0.00000  Uiso   1.00
H646   H     0.82497   0.46806   0.82564   0.00000  Uiso   1.00
H647   H     0.89232   0.29605   0.53572   0.00000  Uiso   1.00
H648   H     0.78944   0.19329   0.96651   0.00000  Uiso   1.00
H649   H     0.76210   0.21368   0.62000   0.00000  Uiso   1.00
H650   H     0.86640   0.31521   0.87581   0.00000  Uiso   1.00
H651   H     0.75191   0.21904   0.53161   0.00000  Uiso   1.00
H652   H     0.85809   0.32329   0.96152   0.00000  Uiso   1.00
H653   H     0.67597   0.32832   0.67576   0.00000  Uiso   1.00
H654   H     0.99486   0.35818   0.61915   0.00000  Uiso   1.00
H655   H     0.98398   0.38317   0.67498   0.00000  Uiso   1.00
H656   H     0.67258   0.26241   0.80352   0.00000  Uiso   1.00
H657   H     0.90163   0.35550   0.63018   0.00000  Uiso   1.00
H658   H     0.91656   0.32836   0.68805   0.00000  Uiso   1.00
H659   H     0.94087   0.25989   0.64840   0.00000  Uiso   1.00
H660   H     0.95011   0.28908   0.59775   0.00000  Uiso   1.00
H661   H     0.75853   0.09770   0.82508   0.00000  Uiso   1.00
H662   H     0.72713   0.09783   0.87973   0.00000  Uiso   1.00
H663   H     0.69192   0.11220   0.82263   0.00000  Uiso   1.00
H664   H     0.71702   0.17948   0.87072   0.00000  Uiso   1.00
H665   H     0.74558   0.17902   0.81529   0.00000  Uiso   1.00
H666   H     0.83137   0.15482   0.86300   0.00000  Uiso   1.00
H667   H     0.88312   0.03023   0.81681   0.00000  Uiso   1.00
H668   H     0.79911   0.14553   0.91148   0.00000  Uiso   1.00
H669   H     0.83983   0.47211   0.67300   0.00000  Uiso   1.00
H670   H     0.88276   0.11102   0.81759   0.00000  Uiso   1.00
H671   H     0.83830   0.39144   0.67250   0.00000  Uiso   1.00
H672   H     0.78359   0.11186   0.68339   0.00000  Uiso   1.00
H673   H     0.82577   0.38778   0.82569   0.00000  Uiso   1.00
H674   H     0.78276   0.03109   0.68297   0.00000  Uiso   1.00
N675   N     0.83333   0.25001   0.62934   0.00000  Uiso   1.00
N676   N     0.83333   0.24999   0.87065   0.00000  Uiso   1.00
O677   O     0.83334   0.18573   0.79072   0.00000  Uiso   1.00
O678   O     0.83333   0.31428   0.70928   0.00000  Uiso   1.00
O679   O     0.83334   0.18573   0.70928   0.00000  Uiso   1.00
O680   O     0.83333   0.31427   0.79072   0.00000  Uiso   1.00
O681   O     0.75828   0.25000   0.78132   0.00000  Uiso   1.00
O682   O     0.90839   0.25001   0.71868   0.00000  Uiso   1.00
O683   O     0.75828   0.25000   0.69988   0.00000  Uiso   1.00
O684   O     0.90839   0.25000   0.80012   0.00000  Uiso   1.00
C685   C     0.16659   0.66511   0.75039   0.00000  Uiso   1.00
C686   C     0.17769   0.79271   0.94446   0.00000  Uiso   1.00
C687   C     0.15495   0.75897   0.52594   0.00000  Uiso   1.00
C688   C     0.15515   0.75859   0.97139   0.00000  Uiso   1.00
C689   C     0.06823   0.74820   0.73819   0.00000  Uiso   1.00
C690   C     0.26525   0.75003   0.76206   0.00000  Uiso   1.00
C691   C     0.01352   0.74296   0.73259   0.00000  Uiso   1.00
C692   C     0.32033   0.75213   0.76873   0.00000  Uiso   1.00
C693   C     0.19398   0.54771   0.78790   0.00000  Uiso   1.00
C694   C     0.16956   0.95388   0.70637   0.00000  Uiso   1.00
C695   C     0.19375   0.59369   0.78846   0.00000  Uiso   1.00
C696   C     0.16638   0.83506   0.74958   0.00000  Uiso   1.00
C697   C     0.16916   0.90784   0.70615   0.00000  Uiso   1.00
C698   C     0.16608   0.61700   0.75082   0.00000  Uiso   1.00
C699   C     0.16589   0.88348   0.74910   0.00000  Uiso   1.00
C700   C     0.13866   0.59415   0.71263   0.00000  Uiso   1.00
C701   C     0.16218   0.90576   0.79208   0.00000  Uiso   1.00
C702   C     0.13843   0.54820   0.71228   0.00000  Uiso   1.00
C703   C     0.16206   0.95167   0.79218   0.00000  Uiso   1.00
C704   C     0.16622   0.52464   0.74984   0.00000  Uiso   1.00
C705   C     0.16604   0.97609   0.74942   0.00000  Uiso   1.00
C706   C     0.25707   0.78683   0.62647   0.00000  Uiso   1.00
C707   C     0.19620   0.77870   0.55393   0.00000  Uiso   1.00
C708   C     0.26079   0.83188   0.65116   0.00000  Uiso   1.00
C709   C     0.31572   0.85147   0.65544   0.00000  Uiso   1.00
C710   C     0.13290   0.66863   0.87988   0.00000  Uiso   1.00
C711   C     0.07943   0.66341   0.85128   0.00000  Uiso   1.00
C712   C     0.06343   0.61471   0.84434   0.00000  Uiso   1.00
C713   C     0.13867   0.72062   0.94653   0.00000  Uiso   1.00
C714   C     0.20342   0.77293   0.60459   0.00000  Uiso   1.00
C715   C     0.14559   0.71546   0.89743   0.00000  Uiso   1.00
C716   C     0.12472   0.73159   0.60225   0.00000  Uiso   1.00
C717   C     0.18264   0.78793   0.89475   0.00000  Uiso   1.00
C718   C     0.11860   0.73503   0.55114   0.00000  Uiso   1.00
Cu719  Cu    0.16667   0.75000   0.79821   0.00000  Uiso   1.00
Cu720  Cu    0.16667   0.75001   0.70178   0.00000  Uiso   1.00
H721   H     0.32868   0.73033   0.69888   0.00000  Uiso   1.00
H722   H     0.15831   0.96806   0.82564   0.00000  Uiso   1.00
H723   H     0.22565   0.79605   0.53572   0.00000  Uiso   1.00
H724   H     0.12277   0.69329   0.96651   0.00000  Uiso   1.00
H725   H     0.09543   0.71368   0.62000   0.00000  Uiso   1.00
H726   H     0.19973   0.81521   0.87581   0.00000  Uiso   1.00
H727   H     0.08524   0.71904   0.53161   0.00000  Uiso   1.00
H728   H     0.19142   0.82329   0.96152   0.00000  Uiso   1.00
H729   H     0.00930   0.82832   0.67576   0.00000  Uiso   1.00
H730   H     0.32819   0.85818   0.61915   0.00000  Uiso   1.00
H731   H     0.31731   0.88317   0.67498   0.00000  Uiso   1.00
H732   H     0.00591   0.76241   0.80352   0.00000  Uiso   1.00
H733   H     0.23497   0.85550   0.63018   0.00000  Uiso   1.00
H734   H     0.24989   0.82836   0.68805   0.00000  Uiso   1.00
H735   H     0.27420   0.75989   0.64840   0.00000  Uiso   1.00
H736   H     0.28344   0.78908   0.59775   0.00000  Uiso   1.00
H737   H     0.09186   0.59770   0.82508   0.00000  Uiso   1.00
H738   H     0.06046   0.59783   0.87973   0.00000  Uiso   1.00
H739   H     0.02526   0.61220   0.82263   0.00000  Uiso   1.00
H740   H     0.05035   0.67948   0.87072   0.00000  Uiso   1.00
H741   H     0.07891   0.67902   0.81529   0.00000  Uiso   1.00
H742   H     0.16471   0.65482   0.86300   0.00000  Uiso   1.00
H743   H     0.21645   0.53023   0.81681   0.00000  Uiso   1.00
H744   H     0.13244   0.64553   0.91148   0.00000  Uiso   1.00
H745   H     0.17316   0.97211   0.67300   0.00000  Uiso   1.00
H746   H     0.21609   0.61102   0.81759   0.00000  Uiso   1.00
H747   H     0.17164   0.89144   0.67250   0.00000  Uiso   1.00
H748   H     0.11692   0.61186   0.68339   0.00000  Uiso   1.00
H749   H     0.15910   0.88778   0.82569   0.00000  Uiso   1.00
H750   H     0.11610   0.53109   0.68297   0.00000  Uiso   1.00
N751   N     0.16667   0.75001   0.62934   0.00000  Uiso   1.00
N752   N     0.16667   0.74999   0.87065   0.00000  Uiso   1.00
O753   O     0.16667   0.68573   0.79072   0.00000  Uiso   1.00
O754   O     0.16666   0.81428   0.70928   0.00000  Uiso   1.00
O755   O     0.16667   0.68573   0.70928   0.00000  Uiso   1.00
O756   O     0.16666   0.81427   0.79072   0.00000  Uiso   1.00
O757   O     0.09161   0.75000   0.78132   0.00000  Uiso   1.00
O758   O     0.24172   0.75001   0.71868   0.00000  Uiso   1.00
O759   O     0.09161   0.75000   0.69988   0.00000  Uiso   1.00
O760   O     0.24172   0.75000   0.80012   0.00000  Uiso   1.00
C761   C     0.49992   0.66511   0.75039   0.00000  Uiso   1.00
C762   C     0.51102   0.79271   0.94446   0.00000  Uiso   1.00
C763   C     0.48829   0.75897   0.52594   0.00000  Uiso   1.00
C764   C     0.48848   0.75859   0.97139   0.00000  Uiso   1.00
C765   C     0.40157   0.74820   0.73819   0.00000  Uiso   1.00
C766   C     0.59858   0.75003   0.76206   0.00000  Uiso   1.00
C767   C     0.34685   0.74296   0.73259   0.00000  Uiso   1.00
C768   C     0.65367   0.75213   0.76873   0.00000  Uiso   1.00
C769   C     0.52731   0.54771   0.78790   0.00000  Uiso   1.00
C770   C     0.50289   0.95388   0.70637   0.00000  Uiso   1.00
C771   C     0.52708   0.59369   0.78846   0.00000  Uiso   1.00
C772   C     0.49971   0.83506   0.74958   0.00000  Uiso   1.00
C773   C     0.50250   0.90784   0.70615   0.00000  Uiso   1.00
C774   C     0.49941   0.61700   0.75082   0.00000  Uiso   1.00
C775   C     0.49922   0.88348   0.74910   0.00000  Uiso   1.00
C776   C     0.47199   0.59415   0.71263   0.00000  Uiso   1.00
C777   C     0.49551   0.90576   0.79208   0.00000  Uiso   1.00
C778   C     0.47177   0.54820   0.71228   0.00000  Uiso   1.00
C779   C     0.49539   0.95167   0.79218   0.00000  Uiso   1.00
C780   C     0.49955   0.52464   0.74984   0.00000  Uiso   1.00
C781   C     0.49938   0.97609   0.74942   0.00000  Uiso   1.00
C782   C     0.59040   0.78683   0.62647   0.00000  Uiso   1.00
C783   C     0.52953   0.77870   0.55393   0.00000  Uiso   1.00
C784   C     0.59412   0.83188   0.65116   0.00000  Uiso   1.00
C785   C     0.64905   0.85147   0.65544   0.00000  Uiso   1.00
C786   C     0.46623   0.66863   0.87988   0.00000  Uiso   1.00
C787   C     0.41276   0.66341   0.85128   0.00000  Uiso   1.00
C788   C     0.39676   0.61471   0.84434   0.00000  Uiso   1.00
C789   C     0.47201   0.72062   0.94653   0.00000  Uiso   1.00
C790   C     0.53676   0.77293   0.60459   0.00000  Uiso   1.00
C791   C     0.47892   0.71546   0.89743   0.00000  Uiso   1.00
C792   C     0.45805   0.73159   0.60225   0.00000  Uiso   1.00
C793   C     0.51598   0.78793   0.89475   0.00000  Uiso   1.00
C794   C     0.45193   0.73503   0.55114   0.00000  Uiso   1.00
Cu795  Cu    0.50000   0.75000   0.79821   0.00000  Uiso   1.00
Cu796  Cu    0.50000   0.75001   0.70178   0.00000  Uiso   1.00
H797   H     0.66201   0.73033   0.69888   0.00000  Uiso   1.00
H798   H     0.49164   0.96806   0.82564   0.00000  Uiso   1.00
H799   H     0.55898   0.79605   0.53572   0.00000  Uiso   1.00
H800   H     0.45610   0.69329   0.96651   0.00000  Uiso   1.00
H801   H     0.42877   0.71368   0.62000   0.00000  Uiso   1.00
H802   H     0.53306   0.81521   0.87581   0.00000  Uiso   1.00
H803   H     0.41857   0.71904   0.53161   0.00000  Uiso   1.00
H804   H     0.52475   0.82329   0.96152   0.00000  Uiso   1.00
H805   H     0.34263   0.82832   0.67576   0.00000  Uiso   1.00
H806   H     0.66152   0.85818   0.61915   0.00000  Uiso   1.00
H807   H     0.65064   0.88317   0.67498   0.00000  Uiso   1.00
H808   H     0.33925   0.76241   0.80352   0.00000  Uiso   1.00
H809   H     0.56830   0.85550   0.63018   0.00000  Uiso   1.00
H810   H     0.58322   0.82836   0.68805   0.00000  Uiso   1.00
H811   H     0.60753   0.75989   0.64840   0.00000  Uiso   1.00
H812   H     0.61678   0.78908   0.59775   0.00000  Uiso   1.00
H813   H     0.42519   0.59770   0.82508   0.00000  Uiso   1.00
H814   H     0.39379   0.59783   0.87973   0.00000  Uiso   1.00
H815   H     0.35859   0.61220   0.82263   0.00000  Uiso   1.00
H816   H     0.38369   0.67948   0.87072   0.00000  Uiso   1.00
H817   H     0.41225   0.67902   0.81529   0.00000  Uiso   1.00
H818   H     0.49804   0.65482   0.86300   0.00000  Uiso   1.00
H819   H     0.54978   0.53023   0.81681   0.00000  Uiso   1.00
H820   H     0.46577   0.64553   0.91148   0.00000  Uiso   1.00
H821   H     0.50650   0.97211   0.67300   0.00000  Uiso   1.00
H822   H     0.54942   0.61102   0.81759   0.00000  Uiso   1.00
H823   H     0.50497   0.89144   0.67250   0.00000  Uiso   1.00
H824   H     0.45026   0.61186   0.68339   0.00000  Uiso   1.00
H825   H     0.49244   0.88778   0.82569   0.00000  Uiso   1.00
H826   H     0.44943   0.53109   0.68297   0.00000  Uiso   1.00
N827   N     0.50000   0.75001   0.62934   0.00000  Uiso   1.00
N828   N     0.50000   0.74999   0.87065   0.00000  Uiso   1.00
O829   O     0.50000   0.68573   0.79072   0.00000  Uiso   1.00
O830   O     0.50000   0.81428   0.70928   0.00000  Uiso   1.00
O831   O     0.50000   0.68573   0.70928   0.00000  Uiso   1.00
O832   O     0.50000   0.81427   0.79072   0.00000  Uiso   1.00
O833   O     0.42495   0.75000   0.78132   0.00000  Uiso   1.00
O834   O     0.57505   0.75001   0.71868   0.00000  Uiso   1.00
O835   O     0.42495   0.75000   0.69988   0.00000  Uiso   1.00
O836   O     0.57505   0.75000   0.80012   0.00000  Uiso   1.00
C837   C     0.83326   0.66511   0.75039   0.00000  Uiso   1.00
C838   C     0.84435   0.79271   0.94446   0.00000  Uiso   1.00
C839   C     0.82162   0.75897   0.52594   0.00000  Uiso   1.00
C840   C     0.82181   0.75859   0.97139   0.00000  Uiso   1.00
C841   C     0.73490   0.74820   0.73819   0.00000  Uiso   1.00
C842   C     0.93191   0.75003   0.76206   0.00000  Uiso   1.00
C843   C     0.68018   0.74296   0.73259   0.00000  Uiso   1.00
C844   C     0.98700   0.75213   0.76873   0.00000  Uiso   1.00
C845   C     0.86064   0.54771   0.78790   0.00000  Uiso   1.00
C846   C     0.83622   0.95388   0.70637   0.00000  Uiso   1.00
C847   C     0.86042   0.59369   0.78846   0.00000  Uiso   1.00
C848   C     0.83305   0.83506   0.74958   0.00000  Uiso   1.00
C849   C     0.83583   0.90784   0.70615   0.00000  Uiso   1.00
C850   C     0.83275   0.61700   0.75082   0.00000  Uiso   1.00
C851   C     0.83255   0.88348   0.74910   0.00000  Uiso   1.00
C852   C     0.80533   0.59415   0.71263   0.00000  Uiso   1.00
C853   C     0.82884   0.90576   0.79208   0.00000  Uiso   1.00
C854   C     0.80510   0.54820   0.71228   0.00000  Uiso   1.00
C855   C     0.82872   0.95167   0.79218   0.00000  Uiso   1.00
C856   C     0.83289   0.52464   0.74984   0.00000  Uiso   1.00
C857   C     0.83271   0.97609   0.74942   0.00000  Uiso   1.00
C858   C     0.92373   0.78683   0.62647   0.00000  Uiso   1.00
C859   C     0.86286   0.77870   0.55393   0.00000  Uiso   1.00
C860   C     0.92745   0.83188   0.65116   0.00000  Uiso   1.00
C861   C     0.98238   0.85147   0.65544   0.00000  Uiso   1.00
C862   C     0.79956   0.66863   0.87988   0.00000  Uiso   1.00
C863   C     0.74609   0.66341   0.85128   0.00000  Uiso   1.00
C864   C     0.73010   0.61471   0.84434   0.00000  Uiso   1.00
C865   C     0.80534   0.72062   0.94653   0.00000  Uiso   1.00
C866   C     0.87009   0.77293   0.60459   0.00000  Uiso   1.00
C867   C     0.81226   0.71546   0.89743   0.00000  Uiso   1.00
C868   C     0.79138   0.73159   0.60225   0.00000  Uiso   1.00
C869   C     0.84931   0.78793   0.89475   0.00000  Uiso   1.00
C870   C     0.78527   0.73503   0.55114   0.00000  Uiso   1.00
Cu871  Cu    0.83333   0.75000   0.79821   0.00000  Uiso   1.00
Cu872  Cu    0.83333   0.75001   0.70178   0.00000  Uiso   1.00
H873   H     0.99535   0.73033   0.69888   0.00000  Uiso   1.00
H874   H     0.82497   0.96806   0.82564   0.00000  Uiso   1.00
H875   H     0.89232   0.79605   0.53572   0.00000  Uiso   1.00
H876   H     0.78944   0.69329   0.96651   0.00000  Uiso   1.00
H877   H     0.76210   0.71368   0.62000   0.00000  Uiso   1.00
H878   H     0.86640   0.81521   0.87581   0.00000  Uiso   1.00
H879   H     0.75191   0.71904   0.53161   0.00000  Uiso   1.00
H880   H     0.85809   0.82329   0.96152   0.00000  Uiso   1.00
H881   H     0.67597   0.82832   0.67576   0.00000  Uiso   1.00
H882   H     0.99486   0.85818   0.61915   0.00000  Uiso   1.00
H883   H     0.98398   0.88317   0.67498   0.00000  Uiso   1.00
H884   H     0.67258   0.76241   0.80352   0.00000  Uiso   1.00
H885   H     0.90163   0.85550   0.63018   0.00000  Uiso   1.00
H886   H     0.91656   0.82836   0.68805   0.00000  Uiso   1.00
H887   H     0.94087   0.75989   0.64840   0.00000  Uiso   1.00
H888   H     0.95011   0.78908   0.59775   0.00000  Uiso   1.00
H889   H     0.75853   0.59770   0.82508   0.00000  Uiso   1.00
H890   H     0.72713   0.59783   0.87973   0.00000  Uiso   1.00
H891   H     0.69192   0.61220   0.82263   0.00000  Uiso   1.00
H892   H     0.71702   0.67948   0.87072   0.00000  Uiso   1.00
H893   H     0.74558   0.67902   0.81529   0.00000  Uiso   1.00
H894   H     0.83137   0.65482   0.86300   0.00000  Uiso   1.00
H895   H     0.88312   0.53023   0.81681   0.00000  Uiso   1.00
H896   H     0.79911   0.64553   0.91148   0.00000  Uiso   1.00
H897   H     0.83983   0.97211   0.67300   0.00000  Uiso   1.00
H898   H     0.88276   0.61102   0.81759   0.00000  Uiso   1.00
H899   H     0.83830   0.89144   0.67250   0.00000  Uiso   1.00
H900   H     0.78359   0.61186   0.68339   0.00000  Uiso   1.00
H901   H     0.82577   0.88778   0.82569   0.00000  Uiso   1.00
H902   H     0.78276   0.53109   0.68297   0.00000  Uiso   1.00
N903   N     0.83333   0.75001   0.62934   0.00000  Uiso   1.00
N904   N     0.83333   0.74999   0.87065   0.00000  Uiso   1.00
O905   O     0.83334   0.68573   0.79072   0.00000  Uiso   1.00
O906   O     0.83333   0.81428   0.70928   0.00000  Uiso   1.00
O907   O     0.83334   0.68573   0.70928   0.00000  Uiso   1.00
O908   O     0.83333   0.81427   0.79072   0.00000  Uiso   1.00
O909   O     0.75828   0.75000   0.78132   0.00000  Uiso   1.00
O910   O     0.90839   0.75001   0.71868   0.00000  Uiso   1.00
O911   O     0.75828   0.75000   0.69988   0.00000  Uiso   1.00
O912   O     0.90839   0.75000   0.80012   0.00000  Uiso   1.00
loop_
_geom_bond_atom_site_label_1
_geom_bond_atom_site_label_2
_geom_bond_distance
_geom_bond_site_symmetry_2
_ccdc_geom_bond_type
C1     O71     1.294   .     A
C1     O69     1.299   .     A
C1     C14     1.453   .     S
C2     H44     1.082   .     S
C2     C4      1.413   .     A
C2     C33     1.420   .     A
C3     C23     1.387   .     A
C3     C34     1.414   .     A
C3     C460    1.525   1_554 S
C4     C29     1.387   .     A
C4     C459    1.525   .     S
C5     C7      1.426   .     S
C5     O75     1.288   .     A
C5     O73     1.291   .     A
C6     O74     1.297   .     A
C6     C8      1.431   .     S
C6     O76     1.285   .     A
C7     C160    1.325   1_455 S
C7     H189    1.079   1_455 S
C8     C83     1.325   .     S
C8     H124    1.088   .     S
C9     H59     1.083   .     S
C9     C20     1.405   .     A
C9     C11     1.390   .     A
C10    C21     1.404   .     A
C10    H61     1.083   .     S
C10    C13     1.391   .     A
C11    H62     1.083   .     S
C11    C14     1.399   .     A
C12    O72     1.296   .     A
C12    C15     1.463   .     S
C12    O70     1.302   .     A
C13    H63     1.082   .     S
C13    C15     1.402   .     A
C14    C16     1.400   .     A
C15    C17     1.404   .     A
C16    C18     1.389   .     A
C16    H64     1.084   .     S
C17    H65     1.083   .     S
C17    C19     1.388   .     A
C18    C20     1.402   .     A
C18    H66     1.083   .     S
C19    C21     1.401   .     A
C19    H38     1.083   .     S
C20    C249    1.468   1_545 S
C21    C248    1.468   .     S
C22    C24     1.536   .     S
C22    H52     1.114   .     S
C22    C30     1.517   .     S
C22    H51     1.086   .     S
C23    C30     1.414   .     A
C23    H39     1.083   .     S
C24    H50     1.101   .     S
C24    C25     1.528   .     S
C24    H49     1.111   .     S
C25    H47     1.111   .     S
C25    H46     1.111   .     S
C25    H121    1.111   .     S
C26    C27     1.537   .     S
C26    C31     1.522   .     S
C26    H58     1.099   .     S
C26    H60     1.113   .     S
C27    H57     1.099   .     S
C27    H56     1.112   .     S
C27    C28     1.527   .     S
C28    H55     1.111   .     S
C28    H54     1.111   .     S
C28    H53     1.110   .     S
C29    C31     1.416   .     A
C29    H40     1.083   .     S
C30    N67     1.400   .     A
C31    N68     1.403   .     A
C32    H41     1.081   .     S
C32    C34     1.421   .     A
C32    N67     1.372   .     A
C33    H42     1.080   .     S
C33    N68     1.373   .     A
C34    H43     1.082   .     S
Cu35   Cu36    2.693   .     S
Cu35   O76     1.957   .     S
Cu35   O72     1.949   .     S
Cu35   O73     1.967   .     S
Cu35   N68     2.023   .     S
Cu35   O69     1.958   .     S
Cu36   N67     2.023   .     S
Cu36   O71     1.949   .     S
Cu36   O70     1.958   .     S
Cu36   O75     1.957   .     S
Cu36   O74     1.967   .     S
H37    C83     1.079   .     S
H45    C177    1.111   1_455 S
H48    C160    1.088   1_455 S
C77    O147    1.294   .     A
C77    O145    1.299   .     A
C77    C90     1.453   .     S
C78    H120    1.082   .     S
C78    C80     1.413   .     A
C78    C109    1.420   .     A
C79    C99     1.387   .     A
C79    C110    1.414   .     A
C79    C536    1.525   1_554 S
C80    C105    1.387   .     A
C80    C535    1.525   .     S
C81    C83     1.426   .     S
C81    O151    1.288   .     A
C81    O149    1.291   .     A
C82    O150    1.297   .     A
C82    C84     1.431   .     S
C82    O152    1.285   .     A
C84    C159    1.325   .     S
C84    H200    1.088   .     S
C85    H135    1.083   .     S
C85    C96     1.405   .     A
C85    C87     1.390   .     A
C86    C97     1.404   .     A
C86    H137    1.083   .     S
C86    C89     1.391   .     A
C87    H138    1.083   .     S
C87    C90     1.399   .     A
C88    O148    1.296   .     A
C88    C91     1.463   .     S
C88    O146    1.302   .     A
C89    H139    1.082   .     S
C89    C91     1.402   .     A
C90    C92     1.400   .     A
C91    C93     1.404   .     A
C92    C94     1.389   .     A
C92    H140    1.084   .     S
C93    H141    1.083   .     S
C93    C95     1.388   .     A
C94    C96     1.402   .     A
C94    H142    1.083   .     S
C95    C97     1.401   .     A
C95    H114    1.083   .     S
C96    C325    1.468   1_545 S
C97    C324    1.468   .     S
C98    C100    1.536   .     S
C98    H128    1.114   .     S
C98    C106    1.517   .     S
C98    H127    1.086   .     S
C99    C106    1.414   .     A
C99    H115    1.083   .     S
C100   H126    1.101   .     S
C100   C101    1.528   .     S
C100   H125    1.111   .     S
C101   H123    1.111   .     S
C101   H122    1.111   .     S
C101   H197    1.111   .     S
C102   C103    1.537   .     S
C102   C107    1.522   .     S
C102   H134    1.099   .     S
C102   H136    1.113   .     S
C103   H133    1.099   .     S
C103   H132    1.112   .     S
C103   C104    1.527   .     S
C104   H131    1.111   .     S
C104   H130    1.111   .     S
C104   H129    1.110   .     S
C105   C107    1.416   .     A
C105   H116    1.083   .     S
C106   N143    1.400   .     A
C107   N144    1.403   .     A
C108   H117    1.081   .     S
C108   C110    1.421   .     A
C108   N143    1.372   .     A
C109   H118    1.080   .     S
C109   N144    1.373   .     A
C110   H119    1.082   .     S
Cu111  Cu112   2.693   .     S
Cu111  O152    1.957   .     S
Cu111  O148    1.949   .     S
Cu111  O149    1.967   .     S
Cu111  N144    2.023   .     S
Cu111  O145    1.958   .     S
Cu112  N143    2.023   .     S
Cu112  O147    1.949   .     S
Cu112  O146    1.958   .     S
Cu112  O151    1.957   .     S
Cu112  O150    1.967   .     S
H113   C159    1.079   .     S
C153   O223    1.294   .     A
C153   O221    1.299   .     A
C153   C166    1.453   .     S
C154   H196    1.082   .     S
C154   C156    1.413   .     A
C154   C185    1.420   .     A
C155   C175    1.387   .     A
C155   C186    1.414   .     A
C155   C612    1.525   1_554 S
C156   C181    1.387   .     A
C156   C611    1.525   .     S
C157   C159    1.426   .     S
C157   O227    1.288   .     A
C157   O225    1.291   .     A
C158   O226    1.297   .     A
C158   C160    1.431   .     S
C158   O228    1.285   .     A
C160   C7      1.325   1_655 S
C160   H48     1.088   1_655 S
C161   H211    1.083   .     S
C161   C172    1.405   .     A
C161   C163    1.390   .     A
C162   C173    1.404   .     A
C162   H213    1.083   .     S
C162   C165    1.391   .     A
C163   H214    1.083   .     S
C163   C166    1.399   .     A
C164   O224    1.296   .     A
C164   C167    1.463   .     S
C164   O222    1.302   .     A
C165   H215    1.082   .     S
C165   C167    1.402   .     A
C166   C168    1.400   .     A
C167   C169    1.404   .     A
C168   C170    1.389   .     A
C168   H216    1.084   .     S
C169   H217    1.083   .     S
C169   C171    1.388   .     A
C170   C172    1.402   .     A
C170   H218    1.083   .     S
C171   C173    1.401   .     A
C171   H190    1.083   .     S
C172   C401    1.468   1_545 S
C173   C400    1.468   .     S
C174   C176    1.536   .     S
C174   H204    1.114   .     S
C174   C182    1.517   .     S
C174   H203    1.086   .     S
C175   C182    1.414   .     A
C175   H191    1.083   .     S
C176   H202    1.101   .     S
C176   C177    1.528   .     S
C176   H201    1.111   .     S
C177   H199    1.111   .     S
C177   H198    1.111   .     S
C177   H45     1.111   1_655 S
C178   C179    1.537   .     S
C178   C183    1.522   .     S
C178   H210    1.099   .     S
C178   H212    1.113   .     S
C179   H209    1.099   .     S
C179   H208    1.112   .     S
C179   C180    1.527   .     S
C180   H207    1.111   .     S
C180   H206    1.111   .     S
C180   H205    1.110   .     S
C181   C183    1.416   .     A
C181   H192    1.083   .     S
C182   N219    1.400   .     A
C183   N220    1.403   .     A
C184   H193    1.081   .     S
C184   C186    1.421   .     A
C184   N219    1.372   .     A
C185   H194    1.080   .     S
C185   N220    1.373   .     A
C186   H195    1.082   .     S
Cu187  Cu188   2.693   .     S
Cu187  O228    1.957   .     S
Cu187  O224    1.949   .     S
Cu187  O225    1.967   .     S
Cu187  N220    2.023   .     S
Cu187  O221    1.958   .     S
Cu188  N219    2.023   .     S
Cu188  O223    1.949   .     S
Cu188  O222    1.958   .     S
Cu188  O227    1.957   .     S
Cu188  O226    1.967   .     S
H189   C7      1.079   1_655 S
C229   O299    1.294   .     A
C229   O297    1.299   .     A
C229   C242    1.453   .     S
C230   H272    1.082   .     S
C230   C232    1.413   .     A
C230   C261    1.420   .     A
C231   C251    1.387   .     A
C231   C262    1.414   .     A
C231   C688    1.525   1_554 S
C232   C257    1.387   .     A
C232   C687    1.525   .     S
C233   C235    1.426   .     S
C233   O303    1.288   .     A
C233   O301    1.291   .     A
C234   O302    1.297   .     A
C234   C236    1.431   .     S
C234   O304    1.285   .     A
C235   C388    1.325   1_455 S
C235   H417    1.079   1_455 S
C236   C311    1.325   .     S
C236   H352    1.088   .     S
C237   H287    1.083   .     S
C237   C248    1.405   .     A
C237   C239    1.390   .     A
C238   C249    1.404   .     A
C238   H289    1.083   .     S
C238   C241    1.391   .     A
C239   H290    1.083   .     S
C239   C242    1.399   .     A
C240   O300    1.296   .     A
C240   C243    1.463   .     S
C240   O298    1.302   .     A
C241   H291    1.082   .     S
C241   C243    1.402   .     A
C242   C244    1.400   .     A
C243   C245    1.404   .     A
C244   C246    1.389   .     A
C244   H292    1.084   .     S
C245   H293    1.083   .     S
C245   C247    1.388   .     A
C246   C248    1.402   .     A
C246   H294    1.083   .     S
C247   C249    1.401   .     A
C247   H266    1.083   .     S
C249   C20     1.468   1_565 S
C250   C252    1.536   .     S
C250   H280    1.114   .     S
C250   C258    1.517   .     S
C250   H279    1.086   .     S
C251   C258    1.414   .     A
C251   H267    1.083   .     S
C252   H278    1.101   .     S
C252   C253    1.528   .     S
C252   H277    1.111   .     S
C253   H275    1.111   .     S
C253   H274    1.111   .     S
C253   H349    1.111   .     S
C254   C255    1.537   .     S
C254   C259    1.522   .     S
C254   H286    1.099   .     S
C254   H288    1.113   .     S
C255   H285    1.099   .     S
C255   H284    1.112   .     S
C255   C256    1.527   .     S
C256   H283    1.111   .     S
C256   H282    1.111   .     S
C256   H281    1.110   .     S
C257   C259    1.416   .     A
C257   H268    1.083   .     S
C258   N295    1.400   .     A
C259   N296    1.403   .     A
C260   H269    1.081   .     S
C260   C262    1.421   .     A
C260   N295    1.372   .     A
C261   H270    1.080   .     S
C261   N296    1.373   .     A
C262   H271    1.082   .     S
Cu263  Cu264   2.693   .     S
Cu263  O304    1.957   .     S
Cu263  O300    1.949   .     S
Cu263  O301    1.967   .     S
Cu263  N296    2.023   .     S
Cu263  O297    1.958   .     S
Cu264  N295    2.023   .     S
Cu264  O299    1.949   .     S
Cu264  O298    1.958   .     S
Cu264  O303    1.957   .     S
Cu264  O302    1.967   .     S
H265   C311    1.079   .     S
H273   C405    1.111   1_455 S
H276   C388    1.088   1_455 S
C305   O375    1.294   .     A
C305   O373    1.299   .     A
C305   C318    1.453   .     S
C306   H348    1.082   .     S
C306   C308    1.413   .     A
C306   C337    1.420   .     A
C307   C327    1.387   .     A
C307   C338    1.414   .     A
C307   C764    1.525   1_554 S
C308   C333    1.387   .     A
C308   C763    1.525   .     S
C309   C311    1.426   .     S
C309   O379    1.288   .     A
C309   O377    1.291   .     A
C310   O378    1.297   .     A
C310   C312    1.431   .     S
C310   O380    1.285   .     A
C312   C387    1.325   .     S
C312   H428    1.088   .     S
C313   H363    1.083   .     S
C313   C324    1.405   .     A
C313   C315    1.390   .     A
C314   C325    1.404   .     A
C314   H365    1.083   .     S
C314   C317    1.391   .     A
C315   H366    1.083   .     S
C315   C318    1.399   .     A
C316   O376    1.296   .     A
C316   C319    1.463   .     S
C316   O374    1.302   .     A
C317   H367    1.082   .     S
C317   C319    1.402   .     A
C318   C320    1.400   .     A
C319   C321    1.404   .     A
C320   C322    1.389   .     A
C320   H368    1.084   .     S
C321   H369    1.083   .     S
C321   C323    1.388   .     A
C322   C324    1.402   .     A
C322   H370    1.083   .     S
C323   C325    1.401   .     A
C323   H342    1.083   .     S
C325   C96     1.468   1_565 S
C326   C328    1.536   .     S
C326   H356    1.114   .     S
C326   C334    1.517   .     S
C326   H355    1.086   .     S
C327   C334    1.414   .     A
C327   H343    1.083   .     S
C328   H354    1.101   .     S
C328   C329    1.528   .     S
C328   H353    1.111   .     S
C329   H351    1.111   .     S
C329   H350    1.111   .     S
C329   H425    1.111   .     S
C330   C331    1.537   .     S
C330   C335    1.522   .     S
C330   H362    1.099   .     S
C330   H364    1.113   .     S
C331   H361    1.099   .     S
C331   H360    1.112   .     S
C331   C332    1.527   .     S
C332   H359    1.111   .     S
C332   H358    1.111   .     S
C332   H357    1.110   .     S
C333   C335    1.416   .     A
C333   H344    1.083   .     S
C334   N371    1.400   .     A
C335   N372    1.403   .     A
C336   H345    1.081   .     S
C336   C338    1.421   .     A
C336   N371    1.372   .     A
C337   H346    1.080   .     S
C337   N372    1.373   .     A
C338   H347    1.082   .     S
Cu339  Cu340   2.693   .     S
Cu339  O380    1.957   .     S
Cu339  O376    1.949   .     S
Cu339  O377    1.967   .     S
Cu339  N372    2.023   .     S
Cu339  O373    1.958   .     S
Cu340  N371    2.023   .     S
Cu340  O375    1.949   .     S
Cu340  O374    1.958   .     S
Cu340  O379    1.957   .     S
Cu340  O378    1.967   .     S
H341   C387    1.079   .     S
C381   O451    1.294   .     A
C381   O449    1.299   .     A
C381   C394    1.453   .     S
C382   H424    1.082   .     S
C382   C384    1.413   .     A
C382   C413    1.420   .     A
C383   C403    1.387   .     A
C383   C414    1.414   .     A
C383   C840    1.525   1_554 S
C384   C409    1.387   .     A
C384   C839    1.525   .     S
C385   C387    1.426   .     S
C385   O455    1.288   .     A
C385   O453    1.291   .     A
C386   O454    1.297   .     A
C386   C388    1.431   .     S
C386   O456    1.285   .     A
C388   C235    1.325   1_655 S
C388   H276    1.088   1_655 S
C389   H439    1.083   .     S
C389   C400    1.405   .     A
C389   C391    1.390   .     A
C390   C401    1.404   .     A
C390   H441    1.083   .     S
C390   C393    1.391   .     A
C391   H442    1.083   .     S
C391   C394    1.399   .     A
C392   O452    1.296   .     A
C392   C395    1.463   .     S
C392   O450    1.302   .     A
C393   H443    1.082   .     S
C393   C395    1.402   .     A
C394   C396    1.400   .     A
C395   C397    1.404   .     A
C396   C398    1.389   .     A
C396   H444    1.084   .     S
C397   H445    1.083   .     S
C397   C399    1.388   .     A
C398   C400    1.402   .     A
C398   H446    1.083   .     S
C399   C401    1.401   .     A
C399   H418    1.083   .     S
C401   C172    1.468   1_565 S
C402   C404    1.536   .     S
C402   H432    1.114   .     S
C402   C410    1.517   .     S
C402   H431    1.086   .     S
C403   C410    1.414   .     A
C403   H419    1.083   .     S
C404   H430    1.101   .     S
C404   C405    1.528   .     S
C404   H429    1.111   .     S
C405   H427    1.111   .     S
C405   H426    1.111   .     S
C405   H273    1.111   1_655 S
C406   C407    1.537   .     S
C406   C411    1.522   .     S
C406   H438    1.099   .     S
C406   H440    1.113   .     S
C407   H437    1.099   .     S
C407   H436    1.112   .     S
C407   C408    1.527   .     S
C408   H435    1.111   .     S
C408   H434    1.111   .     S
C408   H433    1.110   .     S
C409   C411    1.416   .     A
C409   H420    1.083   .     S
C410   N447    1.400   .     A
C411   N448    1.403   .     A
C412   H421    1.081   .     S
C412   C414    1.421   .     A
C412   N447    1.372   .     A
C413   H422    1.080   .     S
C413   N448    1.373   .     A
C414   H423    1.082   .     S
Cu415  Cu416   2.693   .     S
Cu415  O456    1.957   .     S
Cu415  O452    1.949   .     S
Cu415  O453    1.967   .     S
Cu415  N448    2.023   .     S
Cu415  O449    1.958   .     S
Cu416  N447    2.023   .     S
Cu416  O451    1.949   .     S
Cu416  O450    1.958   .     S
Cu416  O455    1.957   .     S
Cu416  O454    1.967   .     S
H417   C235    1.079   1_655 S
C457   O527    1.294   .     A
C457   O525    1.299   .     A
C457   C470    1.453   .     S
C458   H500    1.082   .     S
C458   C460    1.413   .     A
C458   C489    1.420   .     A
C459   C479    1.387   .     A
C459   C490    1.414   .     A
C460   C485    1.387   .     A
C460   C3      1.525   1_556 S
C461   C463    1.426   .     S
C461   O531    1.288   .     A
C461   O529    1.291   .     A
C462   O530    1.297   .     A
C462   C464    1.431   .     S
C462   O532    1.285   .     A
C463   C616    1.325   1_455 S
C463   H645    1.079   1_455 S
C464   C539    1.325   .     S
C464   H580    1.088   .     S
C465   H515    1.083   .     S
C465   C476    1.405   .     A
C465   C467    1.390   .     A
C466   C477    1.404   .     A
C466   H517    1.083   .     S
C466   C469    1.391   .     A
C467   H518    1.083   .     S
C467   C470    1.399   .     A
C468   O528    1.296   .     A
C468   C471    1.463   .     S
C468   O526    1.302   .     A
C469   H519    1.082   .     S
C469   C471    1.402   .     A
C470   C472    1.400   .     A
C471   C473    1.404   .     A
C472   C474    1.389   .     A
C472   H520    1.084   .     S
C473   H521    1.083   .     S
C473   C475    1.388   .     A
C474   C476    1.402   .     A
C474   H522    1.083   .     S
C475   C477    1.401   .     A
C475   H494    1.083   .     S
C476   C705    1.468   1_545 S
C477   C704    1.468   .     S
C478   C480    1.536   .     S
C478   H508    1.114   .     S
C478   C486    1.517   .     S
C478   H507    1.086   .     S
C479   C486    1.414   .     A
C479   H495    1.083   .     S
C480   H506    1.101   .     S
C480   C481    1.528   .     S
C480   H505    1.111   .     S
C481   H503    1.111   .     S
C481   H502    1.111   .     S
C481   H577    1.111   .     S
C482   C483    1.537   .     S
C482   C487    1.522   .     S
C482   H514    1.099   .     S
C482   H516    1.113   .     S
C483   H513    1.099   .     S
C483   H512    1.112   .     S
C483   C484    1.527   .     S
C484   H511    1.111   .     S
C484   H510    1.111   .     S
C484   H509    1.110   .     S
C485   C487    1.416   .     A
C485   H496    1.083   .     S
C486   N523    1.400   .     A
C487   N524    1.403   .     A
C488   H497    1.081   .     S
C488   C490    1.421   .     A
C488   N523    1.372   .     A
C489   H498    1.080   .     S
C489   N524    1.373   .     A
C490   H499    1.082   .     S
Cu491  Cu492   2.693   .     S
Cu491  O532    1.957   .     S
Cu491  O528    1.949   .     S
Cu491  O529    1.967   .     S
Cu491  N524    2.023   .     S
Cu491  O525    1.958   .     S
Cu492  N523    2.023   .     S
Cu492  O527    1.949   .     S
Cu492  O526    1.958   .     S
Cu492  O531    1.957   .     S
Cu492  O530    1.967   .     S
H493   C539    1.079   .     S
H501   C633    1.111   1_455 S
H504   C616    1.088   1_455 S
C533   O603    1.294   .     A
C533   O601    1.299   .     A
C533   C546    1.453   .     S
C534   H576    1.082   .     S
C534   C536    1.413   .     A
C534   C565    1.420   .     A
C535   C555    1.387   .     A
C535   C566    1.414   .     A
C536   C561    1.387   .     A
C536   C79     1.525   1_556 S
C537   C539    1.426   .     S
C537   O607    1.288   .     A
C537   O605    1.291   .     A
C538   O606    1.297   .     A
C538   C540    1.431   .     S
C538   O608    1.285   .     A
C540   C615    1.325   .     S
C540   H656    1.088   .     S
C541   H591    1.083   .     S
C541   C552    1.405   .     A
C541   C543    1.390   .     A
C542   C553    1.404   .     A
C542   H593    1.083   .     S
C542   C545    1.391   .     A
C543   H594    1.083   .     S
C543   C546    1.399   .     A
C544   O604    1.296   .     A
C544   C547    1.463   .     S
C544   O602    1.302   .     A
C545   H595    1.082   .     S
C545   C547    1.402   .     A
C546   C548    1.400   .     A
C547   C549    1.404   .     A
C548   C550    1.389   .     A
C548   H596    1.084   .     S
C549   H597    1.083   .     S
C549   C551    1.388   .     A
C550   C552    1.402   .     A
C550   H598    1.083   .     S
C551   C553    1.401   .     A
C551   H570    1.083   .     S
C552   C781    1.468   1_545 S
C553   C780    1.468   .     S
C554   C556    1.536   .     S
C554   H584    1.114   .     S
C554   C562    1.517   .     S
C554   H583    1.086   .     S
C555   C562    1.414   .     A
C555   H571    1.083   .     S
C556   H582    1.101   .     S
C556   C557    1.528   .     S
C556   H581    1.111   .     S
C557   H579    1.111   .     S
C557   H578    1.111   .     S
C557   H653    1.111   .     S
C558   C559    1.537   .     S
C558   C563    1.522   .     S
C558   H590    1.099   .     S
C558   H592    1.113   .     S
C559   H589    1.099   .     S
C559   H588    1.112   .     S
C559   C560    1.527   .     S
C560   H587    1.111   .     S
C560   H586    1.111   .     S
C560   H585    1.110   .     S
C561   C563    1.416   .     A
C561   H572    1.083   .     S
C562   N599    1.400   .     A
C563   N600    1.403   .     A
C564   H573    1.081   .     S
C564   C566    1.421   .     A
C564   N599    1.372   .     A
C565   H574    1.080   .     S
C565   N600    1.373   .     A
C566   H575    1.082   .     S
Cu567  Cu568   2.693   .     S
Cu567  O608    1.957   .     S
Cu567  O604    1.949   .     S
Cu567  O605    1.967   .     S
Cu567  N600    2.023   .     S
Cu567  O601    1.958   .     S
Cu568  N599    2.023   .     S
Cu568  O603    1.949   .     S
Cu568  O602    1.958   .     S
Cu568  O607    1.957   .     S
Cu568  O606    1.967   .     S
H569   C615    1.079   .     S
C609   O679    1.294   .     A
C609   O677    1.299   .     A
C609   C622    1.453   .     S
C610   H652    1.082   .     S
C610   C612    1.413   .     A
C610   C641    1.420   .     A
C611   C631    1.387   .     A
C611   C642    1.414   .     A
C612   C637    1.387   .     A
C612   C155    1.525   1_556 S
C613   C615    1.426   .     S
C613   O683    1.288   .     A
C613   O681    1.291   .     A
C614   O682    1.297   .     A
C614   C616    1.431   .     S
C614   O684    1.285   .     A
C616   C463    1.325   1_655 S
C616   H504    1.088   1_655 S
C617   H667    1.083   .     S
C617   C628    1.405   .     A
C617   C619    1.390   .     A
C618   C629    1.404   .     A
C618   H669    1.083   .     S
C618   C621    1.391   .     A
C619   H670    1.083   .     S
C619   C622    1.399   .     A
C620   O680    1.296   .     A
C620   C623    1.463   .     S
C620   O678    1.302   .     A
C621   H671    1.082   .     S
C621   C623    1.402   .     A
C622   C624    1.400   .     A
C623   C625    1.404   .     A
C624   C626    1.389   .     A
C624   H672    1.084   .     S
C625   H673    1.083   .     S
C625   C627    1.388   .     A
C626   C628    1.402   .     A
C626   H674    1.083   .     S
C627   C629    1.401   .     A
C627   H646    1.083   .     S
C628   C857    1.468   1_545 S
C629   C856    1.468   .     S
C630   C632    1.536   .     S
C630   H660    1.114   .     S
C630   C638    1.517   .     S
C630   H659    1.086   .     S
C631   C638    1.414   .     A
C631   H647    1.083   .     S
C632   H658    1.101   .     S
C632   C633    1.528   .     S
C632   H657    1.111   .     S
C633   H655    1.111   .     S
C633   H654    1.111   .     S
C633   H501    1.111   1_655 S
C634   C635    1.537   .     S
C634   C639    1.522   .     S
C634   H666    1.099   .     S
C634   H668    1.113   .     S
C635   H665    1.099   .     S
C635   H664    1.112   .     S
C635   C636    1.527   .     S
C636   H663    1.111   .     S
C636   H662    1.111   .     S
C636   H661    1.110   .     S
C637   C639    1.416   .     A
C637   H648    1.083   .     S
C638   N675    1.400   .     A
C639   N676    1.403   .     A
C640   H649    1.081   .     S
C640   C642    1.421   .     A
C640   N675    1.372   .     A
C641   H650    1.080   .     S
C641   N676    1.373   .     A
C642   H651    1.082   .     S
Cu643  Cu644   2.693   .     S
Cu643  O684    1.957   .     S
Cu643  O680    1.949   .     S
Cu643  O681    1.967   .     S
Cu643  N676    2.023   .     S
Cu643  O677    1.958   .     S
Cu644  N675    2.023   .     S
Cu644  O679    1.949   .     S
Cu644  O678    1.958   .     S
Cu644  O683    1.957   .     S
Cu644  O682    1.967   .     S
H645   C463    1.079   1_655 S
C685   O755    1.294   .     A
C685   O753    1.299   .     A
C685   C698    1.453   .     S
C686   H728    1.082   .     S
C686   C688    1.413   .     A
C686   C717    1.420   .     A
C687   C707    1.387   .     A
C687   C718    1.414   .     A
C688   C713    1.387   .     A
C688   C231    1.525   1_556 S
C689   C691    1.426   .     S
C689   O759    1.288   .     A
C689   O757    1.291   .     A
C690   O758    1.297   .     A
C690   C692    1.431   .     S
C690   O760    1.285   .     A
C691   C844    1.325   1_455 S
C691   H873    1.079   1_455 S
C692   C767    1.325   .     S
C692   H808    1.088   .     S
C693   H743    1.083   .     S
C693   C704    1.405   .     A
C693   C695    1.390   .     A
C694   C705    1.404   .     A
C694   H745    1.083   .     S
C694   C697    1.391   .     A
C695   H746    1.083   .     S
C695   C698    1.399   .     A
C696   O756    1.296   .     A
C696   C699    1.463   .     S
C696   O754    1.302   .     A
C697   H747    1.082   .     S
C697   C699    1.402   .     A
C698   C700    1.400   .     A
C699   C701    1.404   .     A
C700   C702    1.389   .     A
C700   H748    1.084   .     S
C701   H749    1.083   .     S
C701   C703    1.388   .     A
C702   C704    1.402   .     A
C702   H750    1.083   .     S
C703   C705    1.401   .     A
C703   H722    1.083   .     S
C705   C476    1.468   1_565 S
C706   C708    1.536   .     S
C706   H736    1.114   .     S
C706   C714    1.517   .     S
C706   H735    1.086   .     S
C707   C714    1.414   .     A
C707   H723    1.083   .     S
C708   H734    1.101   .     S
C708   C709    1.528   .     S
C708   H733    1.111   .     S
C709   H731    1.111   .     S
C709   H730    1.111   .     S
C709   H805    1.111   .     S
C710   C711    1.537   .     S
C710   C715    1.522   .     S
C710   H742    1.099   .     S
C710   H744    1.113   .     S
C711   H741    1.099   .     S
C711   H740    1.112   .     S
C711   C712    1.527   .     S
C712   H739    1.111   .     S
C712   H738    1.111   .     S
C712   H737    1.110   .     S
C713   C715    1.416   .     A
C713   H724    1.083   .     S
C714   N751    1.400   .     A
C715   N752    1.403   .     A
C716   H725    1.081   .     S
C716   C718    1.421   .     A
C716   N751    1.372   .     A
C717   H726    1.080   .     S
C717   N752    1.373   .     A
C718   H727    1.082   .     S
Cu719  Cu720   2.693   .     S
Cu719  O760    1.957   .     S
Cu719  O756    1.949   .     S
Cu719  O757    1.967   .     S
Cu719  N752    2.023   .     S
Cu719  O753    1.958   .     S
Cu720  N751    2.023   .     S
Cu720  O755    1.949   .     S
Cu720  O754    1.958   .     S
Cu720  O759    1.957   .     S
Cu720  O758    1.967   .     S
H721   C767    1.079   .     S
H729   C861    1.111   1_455 S
H732   C844    1.088   1_455 S
C761   O831    1.294   .     A
C761   O829    1.299   .     A
C761   C774    1.453   .     S
C762   H804    1.082   .     S
C762   C764    1.413   .     A
C762   C793    1.420   .     A
C763   C783    1.387   .     A
C763   C794    1.414   .     A
C764   C789    1.387   .     A
C764   C307    1.525   1_556 S
C765   C767    1.426   .     S
C765   O835    1.288   .     A
C765   O833    1.291   .     A
C766   O834    1.297   .     A
C766   C768    1.431   .     S
C766   O836    1.285   .     A
C768   C843    1.325   .     S
C768   H884    1.088   .     S
C769   H819    1.083   .     S
C769   C780    1.405   .     A
C769   C771    1.390   .     A
C770   C781    1.404   .     A
C770   H821    1.083   .     S
C770   C773    1.391   .     A
C771   H822    1.083   .     S
C771   C774    1.399   .     A
C772   O832    1.296   .     A
C772   C775    1.463   .     S
C772   O830    1.302   .     A
C773   H823    1.082   .     S
C773   C775    1.402   .     A
C774   C776    1.400   .     A
C775   C777    1.404   .     A
C776   C778    1.389   .     A
C776   H824    1.084   .     S
C777   H825    1.083   .     S
C777   C779    1.388   .     A
C778   C780    1.402   .     A
C778   H826    1.083   .     S
C779   C781    1.401   .     A
C779   H798    1.083   .     S
C781   C552    1.468   1_565 S
C782   C784    1.536   .     S
C782   H812    1.114   .     S
C782   C790    1.517   .     S
C782   H811    1.086   .     S
C783   C790    1.414   .     A
C783   H799    1.083   .     S
C784   H810    1.101   .     S
C784   C785    1.528   .     S
C784   H809    1.111   .     S
C785   H807    1.111   .     S
C785   H806    1.111   .     S
C785   H881    1.111   .     S
C786   C787    1.537   .     S
C786   C791    1.522   .     S
C786   H818    1.099   .     S
C786   H820    1.113   .     S
C787   H817    1.099   .     S
C787   H816    1.112   .     S
C787   C788    1.527   .     S
C788   H815    1.111   .     S
C788   H814    1.111   .     S
C788   H813    1.110   .     S
C789   C791    1.416   .     A
C789   H800    1.083   .     S
C790   N827    1.400   .     A
C791   N828    1.403   .     A
C792   H801    1.081   .     S
C792   C794    1.421   .     A
C792   N827    1.372   .     A
C793   H802    1.080   .     S
C793   N828    1.373   .     A
C794   H803    1.082   .     S
Cu795  Cu796   2.693   .     S
Cu795  O836    1.957   .     S
Cu795  O832    1.949   .     S
Cu795  O833    1.967   .     S
Cu795  N828    2.023   .     S
Cu795  O829    1.958   .     S
Cu796  N827    2.023   .     S
Cu796  O831    1.949   .     S
Cu796  O830    1.958   .     S
Cu796  O835    1.957   .     S
Cu796  O834    1.967   .     S
H797   C843    1.079   .     S
C837   O907    1.294   .     A
C837   O905    1.299   .     A
C837   C850    1.453   .     S
C838   H880    1.082   .     S
C838   C840    1.413   .     A
C838   C869    1.420   .     A
C839   C859    1.387   .     A
C839   C870    1.414   .     A
C840   C865    1.387   .     A
C840   C383    1.525   1_556 S
C841   C843    1.426   .     S
C841   O911    1.288   .     A
C841   O909    1.291   .     A
C842   O910    1.297   .     A
C842   C844    1.431   .     S
C842   O912    1.285   .     A
C844   C691    1.325   1_655 S
C844   H732    1.088   1_655 S
C845   H895    1.083   .     S
C845   C856    1.405   .     A
C845   C847    1.390   .     A
C846   C857    1.404   .     A
C846   H897    1.083   .     S
C846   C849    1.391   .     A
C847   H898    1.083   .     S
C847   C850    1.399   .     A
C848   O908    1.296   .     A
C848   C851    1.463   .     S
C848   O906    1.302   .     A
C849   H899    1.082   .     S
C849   C851    1.402   .     A
C850   C852    1.400   .     A
C851   C853    1.404   .     A
C852   C854    1.389   .     A
C852   H900    1.084   .     S
C853   H901    1.083   .     S
C853   C855    1.388   .     A
C854   C856    1.402   .     A
C854   H902    1.083   .     S
C855   C857    1.401   .     A
C855   H874    1.083   .     S
C857   C628    1.468   1_565 S
C858   C860    1.536   .     S
C858   H888    1.114   .     S
C858   C866    1.517   .     S
C858   H887    1.086   .     S
C859   C866    1.414   .     A
C859   H875    1.083   .     S
C860   H886    1.101   .     S
C860   C861    1.528   .     S
C860   H885    1.111   .     S
C861   H883    1.111   .     S
C861   H882    1.111   .     S
C861   H729    1.111   1_655 S
C862   C863    1.537   .     S
C862   C867    1.522   .     S
C862   H894    1.099   .     S
C862   H896    1.113   .     S
C863   H893    1.099   .     S
C863   H892    1.112   .     S
C863   C864    1.527   .     S
C864   H891    1.111   .     S
C864   H890    1.111   .     S
C864   H889    1.110   .     S
C865   C867    1.416   .     A
C865   H876    1.083   .     S
C866   N903    1.400   .     A
C867   N904    1.403   .     A
C868   H877    1.081   .     S
C868   C870    1.421   .     A
C868   N903    1.372   .     A
C869   H878    1.080   .     S
C869   N904    1.373   .     A
C870   H879    1.082   .     S
Cu871  Cu872   2.693   .     S
Cu871  O912    1.957   .     S
Cu871  O908    1.949   .     S
Cu871  O909    1.967   .     S
Cu871  N904    2.023   .     S
Cu871  O905    1.958   .     S
Cu872  N903    2.023   .     S
Cu872  O907    1.949   .     S
Cu872  O906    1.958   .     S
Cu872  O911    1.957   .     S
Cu872  O910    1.967   .     S
H873   C691    1.079   1_655 S
