data_str_m2_o10_o16_pcu_sym.117
_audit_creation_date              2020-01-03
_audit_creation_method            'Materials Studio'
_symmetry_space_group_name_H-M    'P1'
_symmetry_Int_Tables_number       1
_symmetry_cell_setting            triclinic
loop_
_symmetry_equiv_pos_as_xyz
  x,y,z
_cell_length_a                    22.3720
_cell_length_b                    26.2207
_cell_length_c                    26.6381
_cell_angle_alpha                 95.0638
_cell_angle_beta                  77.5505
_cell_angle_gamma                 102.8753
loop_
_atom_site_label
_atom_site_type_symbol
_atom_site_fract_x
_atom_site_fract_y
_atom_site_fract_z
_atom_site_U_iso_or_equiv
_atom_site_adp_type
_atom_site_occupancy
C1     C     0.18040   0.26641   0.25422   0.00000  Uiso   1.00
C2     C     0.13736   0.16372   0.48795   0.00000  Uiso   1.00
C3     C     0.14803   0.18342   0.43832   0.00000  Uiso   1.00
C4     C     0.18267   0.18235   0.01920   0.00000  Uiso   1.00
C5     C     0.22769   0.22925   0.00591   0.00000  Uiso   1.00
C6     C     0.23106   0.25309   0.46023   0.00000  Uiso   1.00
C7     C     0.19312   0.22950   0.42608   0.00000  Uiso   1.00
C8     C     0.18529   0.15653   0.06308   0.00000  Uiso   1.00
C9     C     0.26277   0.23087   0.08592   0.00000  Uiso   1.00
C10    C     0.11079   0.15821   0.40310   0.00000  Uiso   1.00
C11    C     0.18388   0.32164   0.26353   0.00000  Uiso   1.00
C12    C     0.13283   0.16411   0.34727   0.00000  Uiso   1.00
C13    C     0.14867   0.01152   0.24094   0.00000  Uiso   1.00
C14    C     0.15222   0.06686   0.24803   0.00000  Uiso   1.00
C15    C     0.20034   0.17089   0.15301   0.00000  Uiso   1.00
C16    C     0.26823   0.25237   0.03884   0.00000  Uiso   1.00
C17    C     0.22016   0.18390   0.09882   0.00000  Uiso   1.00
C18    C     0.05535   0.12194   0.42093   0.00000  Uiso   1.00
C19    C     0.03877   0.10924   0.47245   0.00000  Uiso   1.00
C20    C     0.07959   0.12935   0.00564   0.00000  Uiso   1.00
Cu21   Cu    0.10710   0.16105   0.24435   0.00000  Uiso   1.00
Cu22   Cu    0.22623   0.17228   0.25564   0.00000  Uiso   1.00
H23    H     0.28966   0.25215   0.11330   0.00000  Uiso   1.00
H24    H     0.00072   0.13418   0.20443   0.00000  Uiso   1.00
H25    H     0.26378   0.28973   0.45052   0.00000  Uiso   1.00
H26    H     0.30178   0.28867   0.02943   0.00000  Uiso   1.00
H27    H     0.02537   0.10279   0.39485   0.00000  Uiso   1.00
H28    H     0.06444   0.11913   0.04544   0.00000  Uiso   1.00
H29    H     0.32836   0.08242   0.48637   0.00000  Uiso   1.00
H30    H     0.19606   0.24930   0.39151   0.00000  Uiso   1.00
N31    N     0.31574   0.18074   0.26416   0.00000  Uiso   1.00
N32    N     0.01759   0.15259   0.23584   0.00000  Uiso   1.00
O33    O     0.12797   0.23807   0.24633   0.00000  Uiso   1.00
O34    O     0.22858   0.24755   0.25586   0.00000  Uiso   1.00
O35    O     0.09181   0.15960   0.31839   0.00000  Uiso   1.00
O36    O     0.19242   0.16908   0.32793   0.00000  Uiso   1.00
O37    O     0.10476   0.08578   0.24413   0.00000  Uiso   1.00
O38    O     0.20536   0.09526   0.25367   0.00000  Uiso   1.00
O39    O     0.14092   0.16425   0.17207   0.00000  Uiso   1.00
O40    O     0.24152   0.17373   0.18160   0.00000  Uiso   1.00
O41    O     0.11029   0.31711   0.20876   0.00000  Uiso   1.00
C42    C     0.14528   0.31805   0.15782   0.00000  Uiso   1.00
H43    H     0.18607   0.29926   0.15439   0.00000  Uiso   1.00
H44    H     0.16235   0.02561   0.14529   0.00000  Uiso   1.00
C45    C     0.10391   0.28797   0.12197   0.00000  Uiso   1.00
H46    H     0.06352   0.30660   0.12353   0.00000  Uiso   1.00
H47    H     0.13126   0.28823   0.08185   0.00000  Uiso   1.00
H48    H     0.08637   0.24674   0.13351   0.00000  Uiso   1.00
O49    O     0.00062   0.19810   0.30861   0.00000  Uiso   1.00
C50    C     0.32971   0.25086   0.31676   0.00000  Uiso   1.00
H51    H     0.28046   0.25346   0.33049   0.00000  Uiso   1.00
H52    H     0.01597   0.27318   0.28112   0.00000  Uiso   1.00
C53    C     0.03279   0.27580   0.35797   0.00000  Uiso   1.00
H54    H     0.01568   0.25328   0.39347   0.00000  Uiso   1.00
H55    H     0.08327   0.27589   0.34448   0.00000  Uiso   1.00
H56    H     0.02694   0.31680   0.36693   0.00000  Uiso   1.00
C57    C     0.16195   0.09810   0.06854   0.00000  Uiso   1.00
H58    H     0.19913   0.08143   0.07852   0.00000  Uiso   1.00
H59    H     0.11927   0.08964   0.09928   0.00000  Uiso   1.00
H60    H     0.15290   0.07744   0.03192   0.00000  Uiso   1.00
C61    C     0.22209   0.01588   0.30260   0.00000  Uiso   1.00
H62    H     0.23339   0.32089   0.32566   0.00000  Uiso   1.00
H63    H     0.26693   0.04001   0.28281   0.00000  Uiso   1.00
H64    H     0.19501   0.04050   0.33061   0.00000  Uiso   1.00
C65    C     0.51373   0.26641   0.25422   0.00000  Uiso   1.00
C66    C     0.47069   0.16372   0.48795   0.00000  Uiso   1.00
C67    C     0.48137   0.18342   0.43832   0.00000  Uiso   1.00
C68    C     0.51600   0.18235   0.01920   0.00000  Uiso   1.00
C69    C     0.56102   0.22925   0.00591   0.00000  Uiso   1.00
C70    C     0.56439   0.25309   0.46023   0.00000  Uiso   1.00
C71    C     0.52646   0.22950   0.42608   0.00000  Uiso   1.00
C72    C     0.51862   0.15653   0.06308   0.00000  Uiso   1.00
C73    C     0.59610   0.23087   0.08592   0.00000  Uiso   1.00
C74    C     0.44412   0.15821   0.40310   0.00000  Uiso   1.00
C75    C     0.51721   0.32164   0.26353   0.00000  Uiso   1.00
C76    C     0.46617   0.16411   0.34727   0.00000  Uiso   1.00
C77    C     0.48201   0.01152   0.24094   0.00000  Uiso   1.00
C78    C     0.48555   0.06686   0.24803   0.00000  Uiso   1.00
C79    C     0.53368   0.17089   0.15301   0.00000  Uiso   1.00
C80    C     0.60156   0.25237   0.03884   0.00000  Uiso   1.00
C81    C     0.55349   0.18390   0.09882   0.00000  Uiso   1.00
C82    C     0.38869   0.12194   0.42093   0.00000  Uiso   1.00
C83    C     0.37210   0.10924   0.47245   0.00000  Uiso   1.00
C84    C     0.41292   0.12935   0.00564   0.00000  Uiso   1.00
Cu85   Cu    0.44043   0.16105   0.24435   0.00000  Uiso   1.00
Cu86   Cu    0.55957   0.17228   0.25564   0.00000  Uiso   1.00
H87    H     0.62300   0.25215   0.11330   0.00000  Uiso   1.00
H88    H     0.33406   0.13418   0.20443   0.00000  Uiso   1.00
H89    H     0.59711   0.28973   0.45052   0.00000  Uiso   1.00
H90    H     0.63512   0.28867   0.02943   0.00000  Uiso   1.00
H91    H     0.35870   0.10279   0.39485   0.00000  Uiso   1.00
H92    H     0.39777   0.11913   0.04544   0.00000  Uiso   1.00
H93    H     0.66170   0.08242   0.48637   0.00000  Uiso   1.00
H94    H     0.52940   0.24930   0.39151   0.00000  Uiso   1.00
N95    N     0.64908   0.18074   0.26416   0.00000  Uiso   1.00
N96    N     0.35092   0.15259   0.23584   0.00000  Uiso   1.00
O97    O     0.46131   0.23807   0.24633   0.00000  Uiso   1.00
O98    O     0.56191   0.24755   0.25586   0.00000  Uiso   1.00
O99    O     0.42515   0.15960   0.31839   0.00000  Uiso   1.00
O100   O     0.52575   0.16908   0.32793   0.00000  Uiso   1.00
O101   O     0.43809   0.08578   0.24413   0.00000  Uiso   1.00
O102   O     0.53869   0.09526   0.25367   0.00000  Uiso   1.00
O103   O     0.47425   0.16425   0.17207   0.00000  Uiso   1.00
O104   O     0.57485   0.17373   0.18160   0.00000  Uiso   1.00
O105   O     0.44362   0.31711   0.20876   0.00000  Uiso   1.00
C106   C     0.47861   0.31805   0.15782   0.00000  Uiso   1.00
H107   H     0.51940   0.29926   0.15439   0.00000  Uiso   1.00
H108   H     0.49568   0.02561   0.14529   0.00000  Uiso   1.00
C109   C     0.43724   0.28797   0.12197   0.00000  Uiso   1.00
H110   H     0.39685   0.30660   0.12353   0.00000  Uiso   1.00
H111   H     0.46460   0.28823   0.08185   0.00000  Uiso   1.00
H112   H     0.41970   0.24674   0.13351   0.00000  Uiso   1.00
O113   O     0.33395   0.19810   0.30861   0.00000  Uiso   1.00
C114   C     0.66305   0.25086   0.31676   0.00000  Uiso   1.00
H115   H     0.61379   0.25346   0.33049   0.00000  Uiso   1.00
H116   H     0.34930   0.27318   0.28112   0.00000  Uiso   1.00
C117   C     0.36613   0.27580   0.35797   0.00000  Uiso   1.00
H118   H     0.34902   0.25328   0.39347   0.00000  Uiso   1.00
H119   H     0.41661   0.27589   0.34448   0.00000  Uiso   1.00
H120   H     0.36027   0.31680   0.36693   0.00000  Uiso   1.00
C121   C     0.49529   0.09810   0.06854   0.00000  Uiso   1.00
H122   H     0.53246   0.08143   0.07852   0.00000  Uiso   1.00
H123   H     0.45261   0.08964   0.09928   0.00000  Uiso   1.00
H124   H     0.48624   0.07744   0.03192   0.00000  Uiso   1.00
C125   C     0.55542   0.01588   0.30260   0.00000  Uiso   1.00
H126   H     0.56673   0.32089   0.32566   0.00000  Uiso   1.00
H127   H     0.60027   0.04001   0.28281   0.00000  Uiso   1.00
H128   H     0.52834   0.04050   0.33061   0.00000  Uiso   1.00
C129   C     0.84706   0.26641   0.25422   0.00000  Uiso   1.00
C130   C     0.80403   0.16372   0.48795   0.00000  Uiso   1.00
C131   C     0.81470   0.18342   0.43832   0.00000  Uiso   1.00
C132   C     0.84934   0.18235   0.01920   0.00000  Uiso   1.00
C133   C     0.89435   0.22925   0.00591   0.00000  Uiso   1.00
C134   C     0.89773   0.25309   0.46023   0.00000  Uiso   1.00
C135   C     0.85979   0.22950   0.42608   0.00000  Uiso   1.00
C136   C     0.85196   0.15653   0.06308   0.00000  Uiso   1.00
C137   C     0.92944   0.23087   0.08592   0.00000  Uiso   1.00
C138   C     0.77745   0.15821   0.40310   0.00000  Uiso   1.00
C139   C     0.85054   0.32164   0.26353   0.00000  Uiso   1.00
C140   C     0.79950   0.16411   0.34727   0.00000  Uiso   1.00
C141   C     0.81534   0.01152   0.24094   0.00000  Uiso   1.00
C142   C     0.81888   0.06686   0.24803   0.00000  Uiso   1.00
C143   C     0.86701   0.17089   0.15301   0.00000  Uiso   1.00
C144   C     0.93490   0.25237   0.03884   0.00000  Uiso   1.00
C145   C     0.88683   0.18390   0.09882   0.00000  Uiso   1.00
C146   C     0.72202   0.12194   0.42093   0.00000  Uiso   1.00
C147   C     0.70544   0.10924   0.47245   0.00000  Uiso   1.00
C148   C     0.74625   0.12935   0.00564   0.00000  Uiso   1.00
Cu149  Cu    0.77377   0.16105   0.24435   0.00000  Uiso   1.00
Cu150  Cu    0.89290   0.17228   0.25564   0.00000  Uiso   1.00
H151   H     0.95633   0.25215   0.11330   0.00000  Uiso   1.00
H152   H     0.66739   0.13418   0.20443   0.00000  Uiso   1.00
H153   H     0.93044   0.28973   0.45052   0.00000  Uiso   1.00
H154   H     0.96845   0.28867   0.02943   0.00000  Uiso   1.00
H155   H     0.69204   0.10279   0.39485   0.00000  Uiso   1.00
H156   H     0.73110   0.11913   0.04544   0.00000  Uiso   1.00
H157   H     0.99503   0.08242   0.48637   0.00000  Uiso   1.00
H158   H     0.86273   0.24930   0.39151   0.00000  Uiso   1.00
N159   N     0.98241   0.18074   0.26416   0.00000  Uiso   1.00
N160   N     0.68426   0.15259   0.23584   0.00000  Uiso   1.00
O161   O     0.79464   0.23807   0.24633   0.00000  Uiso   1.00
O162   O     0.89524   0.24755   0.25586   0.00000  Uiso   1.00
O163   O     0.75848   0.15960   0.31839   0.00000  Uiso   1.00
O164   O     0.85908   0.16908   0.32793   0.00000  Uiso   1.00
O165   O     0.77142   0.08578   0.24413   0.00000  Uiso   1.00
O166   O     0.87203   0.09526   0.25367   0.00000  Uiso   1.00
O167   O     0.80758   0.16425   0.17207   0.00000  Uiso   1.00
O168   O     0.90819   0.17373   0.18160   0.00000  Uiso   1.00
O169   O     0.77696   0.31711   0.20876   0.00000  Uiso   1.00
C170   C     0.81194   0.31805   0.15782   0.00000  Uiso   1.00
H171   H     0.85273   0.29926   0.15439   0.00000  Uiso   1.00
H172   H     0.82902   0.02561   0.14529   0.00000  Uiso   1.00
C173   C     0.77058   0.28797   0.12197   0.00000  Uiso   1.00
H174   H     0.73019   0.30660   0.12353   0.00000  Uiso   1.00
H175   H     0.79793   0.28823   0.08185   0.00000  Uiso   1.00
H176   H     0.75304   0.24674   0.13351   0.00000  Uiso   1.00
O177   O     0.66728   0.19810   0.30861   0.00000  Uiso   1.00
C178   C     0.99638   0.25086   0.31676   0.00000  Uiso   1.00
H179   H     0.94713   0.25346   0.33049   0.00000  Uiso   1.00
H180   H     0.68263   0.27318   0.28112   0.00000  Uiso   1.00
C181   C     0.69946   0.27580   0.35797   0.00000  Uiso   1.00
H182   H     0.68235   0.25328   0.39347   0.00000  Uiso   1.00
H183   H     0.74994   0.27589   0.34448   0.00000  Uiso   1.00
H184   H     0.69360   0.31680   0.36693   0.00000  Uiso   1.00
C185   C     0.82862   0.09810   0.06854   0.00000  Uiso   1.00
H186   H     0.86580   0.08143   0.07852   0.00000  Uiso   1.00
H187   H     0.78594   0.08964   0.09928   0.00000  Uiso   1.00
H188   H     0.81957   0.07744   0.03192   0.00000  Uiso   1.00
C189   C     0.88875   0.01588   0.30260   0.00000  Uiso   1.00
H190   H     0.90006   0.32089   0.32566   0.00000  Uiso   1.00
H191   H     0.93360   0.04001   0.28281   0.00000  Uiso   1.00
H192   H     0.86168   0.04050   0.33061   0.00000  Uiso   1.00
C193   C     0.18040   0.59974   0.25422   0.00000  Uiso   1.00
C194   C     0.13736   0.49705   0.48795   0.00000  Uiso   1.00
C195   C     0.14803   0.51675   0.43832   0.00000  Uiso   1.00
C196   C     0.18267   0.51569   0.01920   0.00000  Uiso   1.00
C197   C     0.22769   0.56258   0.00591   0.00000  Uiso   1.00
C198   C     0.23106   0.58642   0.46023   0.00000  Uiso   1.00
C199   C     0.19312   0.56283   0.42608   0.00000  Uiso   1.00
C200   C     0.18529   0.48986   0.06308   0.00000  Uiso   1.00
C201   C     0.26277   0.56420   0.08592   0.00000  Uiso   1.00
C202   C     0.11079   0.49154   0.40310   0.00000  Uiso   1.00
C203   C     0.18388   0.65498   0.26353   0.00000  Uiso   1.00
C204   C     0.13283   0.49744   0.34727   0.00000  Uiso   1.00
C205   C     0.14867   0.34486   0.24094   0.00000  Uiso   1.00
C206   C     0.15222   0.40019   0.24803   0.00000  Uiso   1.00
C207   C     0.20034   0.50422   0.15301   0.00000  Uiso   1.00
C208   C     0.26823   0.58570   0.03884   0.00000  Uiso   1.00
C209   C     0.22016   0.51724   0.09882   0.00000  Uiso   1.00
C210   C     0.05535   0.45528   0.42093   0.00000  Uiso   1.00
C211   C     0.03877   0.44258   0.47245   0.00000  Uiso   1.00
C212   C     0.07959   0.46268   0.00564   0.00000  Uiso   1.00
Cu213  Cu    0.10710   0.49439   0.24435   0.00000  Uiso   1.00
Cu214  Cu    0.22623   0.50561   0.25564   0.00000  Uiso   1.00
H215   H     0.28966   0.58548   0.11330   0.00000  Uiso   1.00
H216   H     0.00072   0.46751   0.20443   0.00000  Uiso   1.00
H217   H     0.26378   0.62306   0.45052   0.00000  Uiso   1.00
H218   H     0.30178   0.62201   0.02943   0.00000  Uiso   1.00
H219   H     0.02537   0.43612   0.39485   0.00000  Uiso   1.00
H220   H     0.06444   0.45247   0.04544   0.00000  Uiso   1.00
H221   H     0.32836   0.41576   0.48637   0.00000  Uiso   1.00
H222   H     0.19606   0.58263   0.39151   0.00000  Uiso   1.00
N223   N     0.31574   0.51407   0.26416   0.00000  Uiso   1.00
N224   N     0.01759   0.48593   0.23584   0.00000  Uiso   1.00
O225   O     0.12797   0.57141   0.24633   0.00000  Uiso   1.00
O226   O     0.22858   0.58089   0.25586   0.00000  Uiso   1.00
O227   O     0.09181   0.49293   0.31839   0.00000  Uiso   1.00
O228   O     0.19242   0.50241   0.32793   0.00000  Uiso   1.00
O229   O     0.10476   0.41911   0.24413   0.00000  Uiso   1.00
O230   O     0.20536   0.42859   0.25367   0.00000  Uiso   1.00
O231   O     0.14092   0.49759   0.17207   0.00000  Uiso   1.00
O232   O     0.24152   0.50707   0.18160   0.00000  Uiso   1.00
O233   O     0.11029   0.65045   0.20876   0.00000  Uiso   1.00
C234   C     0.14528   0.65138   0.15782   0.00000  Uiso   1.00
H235   H     0.18607   0.63259   0.15439   0.00000  Uiso   1.00
H236   H     0.16235   0.35895   0.14529   0.00000  Uiso   1.00
C237   C     0.10391   0.62131   0.12197   0.00000  Uiso   1.00
H238   H     0.06352   0.63993   0.12353   0.00000  Uiso   1.00
H239   H     0.13126   0.62157   0.08185   0.00000  Uiso   1.00
H240   H     0.08637   0.58008   0.13351   0.00000  Uiso   1.00
O241   O     0.00062   0.53144   0.30861   0.00000  Uiso   1.00
C242   C     0.32971   0.58419   0.31676   0.00000  Uiso   1.00
H243   H     0.28046   0.58679   0.33049   0.00000  Uiso   1.00
H244   H     0.01597   0.60651   0.28112   0.00000  Uiso   1.00
C245   C     0.03279   0.60914   0.35797   0.00000  Uiso   1.00
H246   H     0.01568   0.58662   0.39347   0.00000  Uiso   1.00
H247   H     0.08327   0.60923   0.34448   0.00000  Uiso   1.00
H248   H     0.02694   0.65013   0.36693   0.00000  Uiso   1.00
C249   C     0.16195   0.43144   0.06854   0.00000  Uiso   1.00
H250   H     0.19913   0.41476   0.07852   0.00000  Uiso   1.00
H251   H     0.11927   0.42297   0.09928   0.00000  Uiso   1.00
H252   H     0.15290   0.41077   0.03192   0.00000  Uiso   1.00
C253   C     0.22209   0.34922   0.30260   0.00000  Uiso   1.00
H254   H     0.23339   0.65422   0.32566   0.00000  Uiso   1.00
H255   H     0.26693   0.37335   0.28281   0.00000  Uiso   1.00
H256   H     0.19501   0.37383   0.33061   0.00000  Uiso   1.00
C257   C     0.51373   0.59974   0.25422   0.00000  Uiso   1.00
C258   C     0.47069   0.49705   0.48795   0.00000  Uiso   1.00
C259   C     0.48137   0.51675   0.43832   0.00000  Uiso   1.00
C260   C     0.51600   0.51569   0.01920   0.00000  Uiso   1.00
C261   C     0.56102   0.56258   0.00591   0.00000  Uiso   1.00
C262   C     0.56439   0.58642   0.46023   0.00000  Uiso   1.00
C263   C     0.52646   0.56283   0.42608   0.00000  Uiso   1.00
C264   C     0.51862   0.48986   0.06308   0.00000  Uiso   1.00
C265   C     0.59610   0.56420   0.08592   0.00000  Uiso   1.00
C266   C     0.44412   0.49154   0.40310   0.00000  Uiso   1.00
C267   C     0.51721   0.65498   0.26353   0.00000  Uiso   1.00
C268   C     0.46617   0.49744   0.34727   0.00000  Uiso   1.00
C269   C     0.48201   0.34486   0.24094   0.00000  Uiso   1.00
C270   C     0.48555   0.40019   0.24803   0.00000  Uiso   1.00
C271   C     0.53368   0.50422   0.15301   0.00000  Uiso   1.00
C272   C     0.60156   0.58570   0.03884   0.00000  Uiso   1.00
C273   C     0.55349   0.51724   0.09882   0.00000  Uiso   1.00
C274   C     0.38869   0.45528   0.42093   0.00000  Uiso   1.00
C275   C     0.37210   0.44258   0.47245   0.00000  Uiso   1.00
C276   C     0.41292   0.46268   0.00564   0.00000  Uiso   1.00
Cu277  Cu    0.44043   0.49439   0.24435   0.00000  Uiso   1.00
Cu278  Cu    0.55957   0.50561   0.25564   0.00000  Uiso   1.00
H279   H     0.62300   0.58548   0.11330   0.00000  Uiso   1.00
H280   H     0.33406   0.46751   0.20443   0.00000  Uiso   1.00
H281   H     0.59711   0.62306   0.45052   0.00000  Uiso   1.00
H282   H     0.63512   0.62201   0.02943   0.00000  Uiso   1.00
H283   H     0.35870   0.43612   0.39485   0.00000  Uiso   1.00
H284   H     0.39777   0.45247   0.04544   0.00000  Uiso   1.00
H285   H     0.66170   0.41576   0.48637   0.00000  Uiso   1.00
H286   H     0.52940   0.58263   0.39151   0.00000  Uiso   1.00
N287   N     0.64908   0.51407   0.26416   0.00000  Uiso   1.00
N288   N     0.35092   0.48593   0.23584   0.00000  Uiso   1.00
O289   O     0.46131   0.57141   0.24633   0.00000  Uiso   1.00
O290   O     0.56191   0.58089   0.25586   0.00000  Uiso   1.00
O291   O     0.42515   0.49293   0.31839   0.00000  Uiso   1.00
O292   O     0.52575   0.50241   0.32793   0.00000  Uiso   1.00
O293   O     0.43809   0.41911   0.24413   0.00000  Uiso   1.00
O294   O     0.53869   0.42859   0.25367   0.00000  Uiso   1.00
O295   O     0.47425   0.49759   0.17207   0.00000  Uiso   1.00
O296   O     0.57485   0.50707   0.18160   0.00000  Uiso   1.00
O297   O     0.44362   0.65045   0.20876   0.00000  Uiso   1.00
C298   C     0.47861   0.65138   0.15782   0.00000  Uiso   1.00
H299   H     0.51940   0.63259   0.15439   0.00000  Uiso   1.00
H300   H     0.49568   0.35895   0.14529   0.00000  Uiso   1.00
C301   C     0.43724   0.62131   0.12197   0.00000  Uiso   1.00
H302   H     0.39685   0.63993   0.12353   0.00000  Uiso   1.00
H303   H     0.46460   0.62157   0.08185   0.00000  Uiso   1.00
H304   H     0.41970   0.58008   0.13351   0.00000  Uiso   1.00
O305   O     0.33395   0.53144   0.30861   0.00000  Uiso   1.00
C306   C     0.66305   0.58419   0.31676   0.00000  Uiso   1.00
H307   H     0.61379   0.58679   0.33049   0.00000  Uiso   1.00
H308   H     0.34930   0.60651   0.28112   0.00000  Uiso   1.00
C309   C     0.36613   0.60914   0.35797   0.00000  Uiso   1.00
H310   H     0.34902   0.58662   0.39347   0.00000  Uiso   1.00
H311   H     0.41661   0.60923   0.34448   0.00000  Uiso   1.00
H312   H     0.36027   0.65013   0.36693   0.00000  Uiso   1.00
C313   C     0.49529   0.43144   0.06854   0.00000  Uiso   1.00
H314   H     0.53246   0.41476   0.07852   0.00000  Uiso   1.00
H315   H     0.45261   0.42297   0.09928   0.00000  Uiso   1.00
H316   H     0.48624   0.41077   0.03192   0.00000  Uiso   1.00
C317   C     0.55542   0.34922   0.30260   0.00000  Uiso   1.00
H318   H     0.56673   0.65422   0.32566   0.00000  Uiso   1.00
H319   H     0.60027   0.37335   0.28281   0.00000  Uiso   1.00
H320   H     0.52834   0.37383   0.33061   0.00000  Uiso   1.00
C321   C     0.84706   0.59974   0.25422   0.00000  Uiso   1.00
C322   C     0.80403   0.49705   0.48795   0.00000  Uiso   1.00
C323   C     0.81470   0.51675   0.43832   0.00000  Uiso   1.00
C324   C     0.84934   0.51569   0.01920   0.00000  Uiso   1.00
C325   C     0.89435   0.56258   0.00591   0.00000  Uiso   1.00
C326   C     0.89773   0.58642   0.46023   0.00000  Uiso   1.00
C327   C     0.85979   0.56283   0.42608   0.00000  Uiso   1.00
C328   C     0.85196   0.48986   0.06308   0.00000  Uiso   1.00
C329   C     0.92944   0.56420   0.08592   0.00000  Uiso   1.00
C330   C     0.77745   0.49154   0.40310   0.00000  Uiso   1.00
C331   C     0.85054   0.65498   0.26353   0.00000  Uiso   1.00
C332   C     0.79950   0.49744   0.34727   0.00000  Uiso   1.00
C333   C     0.81534   0.34486   0.24094   0.00000  Uiso   1.00
C334   C     0.81888   0.40019   0.24803   0.00000  Uiso   1.00
C335   C     0.86701   0.50422   0.15301   0.00000  Uiso   1.00
C336   C     0.93490   0.58570   0.03884   0.00000  Uiso   1.00
C337   C     0.88683   0.51724   0.09882   0.00000  Uiso   1.00
C338   C     0.72202   0.45528   0.42093   0.00000  Uiso   1.00
C339   C     0.70544   0.44258   0.47245   0.00000  Uiso   1.00
C340   C     0.74625   0.46268   0.00564   0.00000  Uiso   1.00
Cu341  Cu    0.77377   0.49439   0.24435   0.00000  Uiso   1.00
Cu342  Cu    0.89290   0.50561   0.25564   0.00000  Uiso   1.00
H343   H     0.95633   0.58548   0.11330   0.00000  Uiso   1.00
H344   H     0.66739   0.46751   0.20443   0.00000  Uiso   1.00
H345   H     0.93044   0.62306   0.45052   0.00000  Uiso   1.00
H346   H     0.96845   0.62201   0.02943   0.00000  Uiso   1.00
H347   H     0.69204   0.43612   0.39485   0.00000  Uiso   1.00
H348   H     0.73110   0.45247   0.04544   0.00000  Uiso   1.00
H349   H     0.99503   0.41576   0.48637   0.00000  Uiso   1.00
H350   H     0.86273   0.58263   0.39151   0.00000  Uiso   1.00
N351   N     0.98241   0.51407   0.26416   0.00000  Uiso   1.00
N352   N     0.68426   0.48593   0.23584   0.00000  Uiso   1.00
O353   O     0.79464   0.57141   0.24633   0.00000  Uiso   1.00
O354   O     0.89524   0.58089   0.25586   0.00000  Uiso   1.00
O355   O     0.75848   0.49293   0.31839   0.00000  Uiso   1.00
O356   O     0.85908   0.50241   0.32793   0.00000  Uiso   1.00
O357   O     0.77142   0.41911   0.24413   0.00000  Uiso   1.00
O358   O     0.87203   0.42859   0.25367   0.00000  Uiso   1.00
O359   O     0.80758   0.49759   0.17207   0.00000  Uiso   1.00
O360   O     0.90819   0.50707   0.18160   0.00000  Uiso   1.00
O361   O     0.77696   0.65045   0.20876   0.00000  Uiso   1.00
C362   C     0.81194   0.65138   0.15782   0.00000  Uiso   1.00
H363   H     0.85273   0.63259   0.15439   0.00000  Uiso   1.00
H364   H     0.82902   0.35895   0.14529   0.00000  Uiso   1.00
C365   C     0.77058   0.62131   0.12197   0.00000  Uiso   1.00
H366   H     0.73019   0.63993   0.12353   0.00000  Uiso   1.00
H367   H     0.79793   0.62157   0.08185   0.00000  Uiso   1.00
H368   H     0.75304   0.58008   0.13351   0.00000  Uiso   1.00
O369   O     0.66728   0.53144   0.30861   0.00000  Uiso   1.00
C370   C     0.99638   0.58419   0.31676   0.00000  Uiso   1.00
H371   H     0.94713   0.58679   0.33049   0.00000  Uiso   1.00
H372   H     0.68263   0.60651   0.28112   0.00000  Uiso   1.00
C373   C     0.69946   0.60914   0.35797   0.00000  Uiso   1.00
H374   H     0.68235   0.58662   0.39347   0.00000  Uiso   1.00
H375   H     0.74994   0.60923   0.34448   0.00000  Uiso   1.00
H376   H     0.69360   0.65013   0.36693   0.00000  Uiso   1.00
C377   C     0.82862   0.43144   0.06854   0.00000  Uiso   1.00
H378   H     0.86580   0.41476   0.07852   0.00000  Uiso   1.00
H379   H     0.78594   0.42297   0.09928   0.00000  Uiso   1.00
H380   H     0.81957   0.41077   0.03192   0.00000  Uiso   1.00
C381   C     0.88875   0.34922   0.30260   0.00000  Uiso   1.00
H382   H     0.90006   0.65422   0.32566   0.00000  Uiso   1.00
H383   H     0.93360   0.37335   0.28281   0.00000  Uiso   1.00
H384   H     0.86168   0.37383   0.33061   0.00000  Uiso   1.00
C385   C     0.18040   0.93307   0.25422   0.00000  Uiso   1.00
C386   C     0.13736   0.83038   0.48795   0.00000  Uiso   1.00
C387   C     0.14803   0.85008   0.43832   0.00000  Uiso   1.00
C388   C     0.18267   0.84902   0.01920   0.00000  Uiso   1.00
C389   C     0.22769   0.89592   0.00591   0.00000  Uiso   1.00
C390   C     0.23106   0.91975   0.46023   0.00000  Uiso   1.00
C391   C     0.19312   0.89617   0.42608   0.00000  Uiso   1.00
C392   C     0.18529   0.82320   0.06308   0.00000  Uiso   1.00
C393   C     0.26277   0.89754   0.08592   0.00000  Uiso   1.00
C394   C     0.11079   0.82488   0.40310   0.00000  Uiso   1.00
C395   C     0.18388   0.98831   0.26353   0.00000  Uiso   1.00
C396   C     0.13283   0.83078   0.34727   0.00000  Uiso   1.00
C397   C     0.14867   0.67819   0.24094   0.00000  Uiso   1.00
C398   C     0.15222   0.73352   0.24803   0.00000  Uiso   1.00
C399   C     0.20034   0.83756   0.15301   0.00000  Uiso   1.00
C400   C     0.26823   0.91903   0.03884   0.00000  Uiso   1.00
C401   C     0.22016   0.85057   0.09882   0.00000  Uiso   1.00
C402   C     0.05535   0.78861   0.42093   0.00000  Uiso   1.00
C403   C     0.03877   0.77591   0.47245   0.00000  Uiso   1.00
C404   C     0.07959   0.79602   0.00564   0.00000  Uiso   1.00
Cu405  Cu    0.10710   0.82772   0.24435   0.00000  Uiso   1.00
Cu406  Cu    0.22623   0.83895   0.25564   0.00000  Uiso   1.00
H407   H     0.28966   0.91882   0.11330   0.00000  Uiso   1.00
H408   H     0.00072   0.80084   0.20443   0.00000  Uiso   1.00
H409   H     0.26378   0.95639   0.45052   0.00000  Uiso   1.00
H410   H     0.30178   0.95534   0.02943   0.00000  Uiso   1.00
H411   H     0.02537   0.76945   0.39485   0.00000  Uiso   1.00
H412   H     0.06444   0.78580   0.04544   0.00000  Uiso   1.00
H413   H     0.32836   0.74909   0.48637   0.00000  Uiso   1.00
H414   H     0.19606   0.91597   0.39151   0.00000  Uiso   1.00
N415   N     0.31574   0.84741   0.26416   0.00000  Uiso   1.00
N416   N     0.01759   0.81926   0.23584   0.00000  Uiso   1.00
O417   O     0.12797   0.90474   0.24633   0.00000  Uiso   1.00
O418   O     0.22858   0.91422   0.25586   0.00000  Uiso   1.00
O419   O     0.09181   0.82627   0.31839   0.00000  Uiso   1.00
O420   O     0.19242   0.83575   0.32793   0.00000  Uiso   1.00
O421   O     0.10476   0.75245   0.24413   0.00000  Uiso   1.00
O422   O     0.20536   0.76193   0.25367   0.00000  Uiso   1.00
O423   O     0.14092   0.83092   0.17207   0.00000  Uiso   1.00
O424   O     0.24152   0.84040   0.18160   0.00000  Uiso   1.00
O425   O     0.11029   0.98378   0.20876   0.00000  Uiso   1.00
C426   C     0.14528   0.98472   0.15782   0.00000  Uiso   1.00
H427   H     0.18607   0.96592   0.15439   0.00000  Uiso   1.00
H428   H     0.16235   0.69228   0.14529   0.00000  Uiso   1.00
C429   C     0.10391   0.95464   0.12197   0.00000  Uiso   1.00
H430   H     0.06352   0.97326   0.12353   0.00000  Uiso   1.00
H431   H     0.13126   0.95490   0.08185   0.00000  Uiso   1.00
H432   H     0.08637   0.91341   0.13351   0.00000  Uiso   1.00
O433   O     0.00062   0.86477   0.30861   0.00000  Uiso   1.00
C434   C     0.32971   0.91753   0.31676   0.00000  Uiso   1.00
H435   H     0.28046   0.92012   0.33049   0.00000  Uiso   1.00
H436   H     0.01597   0.93985   0.28112   0.00000  Uiso   1.00
C437   C     0.03279   0.94247   0.35797   0.00000  Uiso   1.00
H438   H     0.01568   0.91995   0.39347   0.00000  Uiso   1.00
H439   H     0.08327   0.94256   0.34448   0.00000  Uiso   1.00
H440   H     0.02694   0.98346   0.36693   0.00000  Uiso   1.00
C441   C     0.16195   0.76477   0.06854   0.00000  Uiso   1.00
H442   H     0.19913   0.74809   0.07852   0.00000  Uiso   1.00
H443   H     0.11927   0.75630   0.09928   0.00000  Uiso   1.00
H444   H     0.15290   0.74411   0.03192   0.00000  Uiso   1.00
C445   C     0.22209   0.68255   0.30260   0.00000  Uiso   1.00
H446   H     0.23339   0.98755   0.32566   0.00000  Uiso   1.00
H447   H     0.26693   0.70668   0.28281   0.00000  Uiso   1.00
H448   H     0.19501   0.70716   0.33061   0.00000  Uiso   1.00
C449   C     0.51373   0.93307   0.25422   0.00000  Uiso   1.00
C450   C     0.47069   0.83038   0.48795   0.00000  Uiso   1.00
C451   C     0.48137   0.85008   0.43832   0.00000  Uiso   1.00
C452   C     0.51600   0.84902   0.01920   0.00000  Uiso   1.00
C453   C     0.56102   0.89592   0.00591   0.00000  Uiso   1.00
C454   C     0.56439   0.91975   0.46023   0.00000  Uiso   1.00
C455   C     0.52646   0.89617   0.42608   0.00000  Uiso   1.00
C456   C     0.51862   0.82320   0.06308   0.00000  Uiso   1.00
C457   C     0.59610   0.89754   0.08592   0.00000  Uiso   1.00
C458   C     0.44412   0.82488   0.40310   0.00000  Uiso   1.00
C459   C     0.51721   0.98831   0.26353   0.00000  Uiso   1.00
C460   C     0.46617   0.83078   0.34727   0.00000  Uiso   1.00
C461   C     0.48201   0.67819   0.24094   0.00000  Uiso   1.00
C462   C     0.48555   0.73352   0.24803   0.00000  Uiso   1.00
C463   C     0.53368   0.83756   0.15301   0.00000  Uiso   1.00
C464   C     0.60156   0.91903   0.03884   0.00000  Uiso   1.00
C465   C     0.55349   0.85057   0.09882   0.00000  Uiso   1.00
C466   C     0.38869   0.78861   0.42093   0.00000  Uiso   1.00
C467   C     0.37210   0.77591   0.47245   0.00000  Uiso   1.00
C468   C     0.41292   0.79602   0.00564   0.00000  Uiso   1.00
Cu469  Cu    0.44043   0.82772   0.24435   0.00000  Uiso   1.00
Cu470  Cu    0.55957   0.83895   0.25564   0.00000  Uiso   1.00
H471   H     0.62300   0.91882   0.11330   0.00000  Uiso   1.00
H472   H     0.33406   0.80084   0.20443   0.00000  Uiso   1.00
H473   H     0.59711   0.95639   0.45052   0.00000  Uiso   1.00
H474   H     0.63512   0.95534   0.02943   0.00000  Uiso   1.00
H475   H     0.35870   0.76945   0.39485   0.00000  Uiso   1.00
H476   H     0.39777   0.78580   0.04544   0.00000  Uiso   1.00
H477   H     0.66170   0.74909   0.48637   0.00000  Uiso   1.00
H478   H     0.52940   0.91597   0.39151   0.00000  Uiso   1.00
N479   N     0.64908   0.84741   0.26416   0.00000  Uiso   1.00
N480   N     0.35092   0.81926   0.23584   0.00000  Uiso   1.00
O481   O     0.46131   0.90474   0.24633   0.00000  Uiso   1.00
O482   O     0.56191   0.91422   0.25586   0.00000  Uiso   1.00
O483   O     0.42515   0.82627   0.31839   0.00000  Uiso   1.00
O484   O     0.52575   0.83575   0.32793   0.00000  Uiso   1.00
O485   O     0.43809   0.75245   0.24413   0.00000  Uiso   1.00
O486   O     0.53869   0.76193   0.25367   0.00000  Uiso   1.00
O487   O     0.47425   0.83092   0.17207   0.00000  Uiso   1.00
O488   O     0.57485   0.84040   0.18160   0.00000  Uiso   1.00
O489   O     0.44362   0.98378   0.20876   0.00000  Uiso   1.00
C490   C     0.47861   0.98472   0.15782   0.00000  Uiso   1.00
H491   H     0.51940   0.96592   0.15439   0.00000  Uiso   1.00
H492   H     0.49568   0.69228   0.14529   0.00000  Uiso   1.00
C493   C     0.43724   0.95464   0.12197   0.00000  Uiso   1.00
H494   H     0.39685   0.97326   0.12353   0.00000  Uiso   1.00
H495   H     0.46460   0.95490   0.08185   0.00000  Uiso   1.00
H496   H     0.41970   0.91341   0.13351   0.00000  Uiso   1.00
O497   O     0.33395   0.86477   0.30861   0.00000  Uiso   1.00
C498   C     0.66305   0.91753   0.31676   0.00000  Uiso   1.00
H499   H     0.61379   0.92012   0.33049   0.00000  Uiso   1.00
H500   H     0.34930   0.93985   0.28112   0.00000  Uiso   1.00
C501   C     0.36613   0.94247   0.35797   0.00000  Uiso   1.00
H502   H     0.34902   0.91995   0.39347   0.00000  Uiso   1.00
H503   H     0.41661   0.94256   0.34448   0.00000  Uiso   1.00
H504   H     0.36027   0.98346   0.36693   0.00000  Uiso   1.00
C505   C     0.49529   0.76477   0.06854   0.00000  Uiso   1.00
H506   H     0.53246   0.74809   0.07852   0.00000  Uiso   1.00
H507   H     0.45261   0.75630   0.09928   0.00000  Uiso   1.00
H508   H     0.48624   0.74411   0.03192   0.00000  Uiso   1.00
C509   C     0.55542   0.68255   0.30260   0.00000  Uiso   1.00
H510   H     0.56673   0.98755   0.32566   0.00000  Uiso   1.00
H511   H     0.60027   0.70668   0.28281   0.00000  Uiso   1.00
H512   H     0.52834   0.70716   0.33061   0.00000  Uiso   1.00
C513   C     0.84706   0.93307   0.25422   0.00000  Uiso   1.00
C514   C     0.80403   0.83038   0.48795   0.00000  Uiso   1.00
C515   C     0.81470   0.85008   0.43832   0.00000  Uiso   1.00
C516   C     0.84934   0.84902   0.01920   0.00000  Uiso   1.00
C517   C     0.89435   0.89592   0.00591   0.00000  Uiso   1.00
C518   C     0.89773   0.91975   0.46023   0.00000  Uiso   1.00
C519   C     0.85979   0.89617   0.42608   0.00000  Uiso   1.00
C520   C     0.85196   0.82320   0.06308   0.00000  Uiso   1.00
C521   C     0.92944   0.89754   0.08592   0.00000  Uiso   1.00
C522   C     0.77745   0.82488   0.40310   0.00000  Uiso   1.00
C523   C     0.85054   0.98831   0.26353   0.00000  Uiso   1.00
C524   C     0.79950   0.83078   0.34727   0.00000  Uiso   1.00
C525   C     0.81534   0.67819   0.24094   0.00000  Uiso   1.00
C526   C     0.81888   0.73352   0.24803   0.00000  Uiso   1.00
C527   C     0.86701   0.83756   0.15301   0.00000  Uiso   1.00
C528   C     0.93490   0.91903   0.03884   0.00000  Uiso   1.00
C529   C     0.88683   0.85057   0.09882   0.00000  Uiso   1.00
C530   C     0.72202   0.78861   0.42093   0.00000  Uiso   1.00
C531   C     0.70544   0.77591   0.47245   0.00000  Uiso   1.00
C532   C     0.74625   0.79602   0.00564   0.00000  Uiso   1.00
Cu533  Cu    0.77377   0.82772   0.24435   0.00000  Uiso   1.00
Cu534  Cu    0.89290   0.83895   0.25564   0.00000  Uiso   1.00
H535   H     0.95633   0.91882   0.11330   0.00000  Uiso   1.00
H536   H     0.66739   0.80084   0.20443   0.00000  Uiso   1.00
H537   H     0.93044   0.95639   0.45052   0.00000  Uiso   1.00
H538   H     0.96845   0.95534   0.02943   0.00000  Uiso   1.00
H539   H     0.69204   0.76945   0.39485   0.00000  Uiso   1.00
H540   H     0.73110   0.78580   0.04544   0.00000  Uiso   1.00
H541   H     0.99503   0.74909   0.48637   0.00000  Uiso   1.00
H542   H     0.86273   0.91597   0.39151   0.00000  Uiso   1.00
N543   N     0.98241   0.84741   0.26416   0.00000  Uiso   1.00
N544   N     0.68426   0.81926   0.23584   0.00000  Uiso   1.00
O545   O     0.79464   0.90474   0.24633   0.00000  Uiso   1.00
O546   O     0.89524   0.91422   0.25586   0.00000  Uiso   1.00
O547   O     0.75848   0.82627   0.31839   0.00000  Uiso   1.00
O548   O     0.85908   0.83575   0.32793   0.00000  Uiso   1.00
O549   O     0.77142   0.75245   0.24413   0.00000  Uiso   1.00
O550   O     0.87203   0.76193   0.25367   0.00000  Uiso   1.00
O551   O     0.80758   0.83092   0.17207   0.00000  Uiso   1.00
O552   O     0.90819   0.84040   0.18160   0.00000  Uiso   1.00
O553   O     0.77696   0.98378   0.20876   0.00000  Uiso   1.00
C554   C     0.81194   0.98472   0.15782   0.00000  Uiso   1.00
H555   H     0.85273   0.96592   0.15439   0.00000  Uiso   1.00
H556   H     0.82902   0.69228   0.14529   0.00000  Uiso   1.00
C557   C     0.77058   0.95464   0.12197   0.00000  Uiso   1.00
H558   H     0.73019   0.97326   0.12353   0.00000  Uiso   1.00
H559   H     0.79793   0.95490   0.08185   0.00000  Uiso   1.00
H560   H     0.75304   0.91341   0.13351   0.00000  Uiso   1.00
O561   O     0.66728   0.86477   0.30861   0.00000  Uiso   1.00
C562   C     0.99638   0.91753   0.31676   0.00000  Uiso   1.00
H563   H     0.94713   0.92012   0.33049   0.00000  Uiso   1.00
H564   H     0.68263   0.93985   0.28112   0.00000  Uiso   1.00
C565   C     0.69946   0.94247   0.35797   0.00000  Uiso   1.00
H566   H     0.68235   0.91995   0.39347   0.00000  Uiso   1.00
H567   H     0.74994   0.94256   0.34448   0.00000  Uiso   1.00
H568   H     0.69360   0.98346   0.36693   0.00000  Uiso   1.00
C569   C     0.82862   0.76477   0.06854   0.00000  Uiso   1.00
H570   H     0.86580   0.74809   0.07852   0.00000  Uiso   1.00
H571   H     0.78594   0.75630   0.09928   0.00000  Uiso   1.00
H572   H     0.81957   0.74411   0.03192   0.00000  Uiso   1.00
C573   C     0.88875   0.68255   0.30260   0.00000  Uiso   1.00
H574   H     0.90006   0.98755   0.32566   0.00000  Uiso   1.00
H575   H     0.93360   0.70668   0.28281   0.00000  Uiso   1.00
H576   H     0.86168   0.70716   0.33061   0.00000  Uiso   1.00
C577   C     0.18040   0.26641   0.75422   0.00000  Uiso   1.00
C578   C     0.13736   0.16372   0.98795   0.00000  Uiso   1.00
C579   C     0.14803   0.18342   0.93832   0.00000  Uiso   1.00
C580   C     0.18267   0.18235   0.51920   0.00000  Uiso   1.00
C581   C     0.22769   0.22925   0.50591   0.00000  Uiso   1.00
C582   C     0.23106   0.25309   0.96023   0.00000  Uiso   1.00
C583   C     0.19312   0.22950   0.92608   0.00000  Uiso   1.00
C584   C     0.18529   0.15653   0.56308   0.00000  Uiso   1.00
C585   C     0.26277   0.23087   0.58592   0.00000  Uiso   1.00
C586   C     0.11079   0.15821   0.90310   0.00000  Uiso   1.00
C587   C     0.18388   0.32164   0.76353   0.00000  Uiso   1.00
C588   C     0.13283   0.16411   0.84727   0.00000  Uiso   1.00
C589   C     0.14867   0.01152   0.74094   0.00000  Uiso   1.00
C590   C     0.15222   0.06686   0.74803   0.00000  Uiso   1.00
C591   C     0.20034   0.17089   0.65301   0.00000  Uiso   1.00
C592   C     0.26823   0.25237   0.53884   0.00000  Uiso   1.00
C593   C     0.22016   0.18390   0.59882   0.00000  Uiso   1.00
C594   C     0.05535   0.12194   0.92093   0.00000  Uiso   1.00
C595   C     0.03877   0.10924   0.97245   0.00000  Uiso   1.00
C596   C     0.07959   0.12935   0.50564   0.00000  Uiso   1.00
Cu597  Cu    0.10710   0.16105   0.74435   0.00000  Uiso   1.00
Cu598  Cu    0.22623   0.17228   0.75564   0.00000  Uiso   1.00
H599   H     0.28966   0.25215   0.61330   0.00000  Uiso   1.00
H600   H     0.00072   0.13418   0.70443   0.00000  Uiso   1.00
H601   H     0.26378   0.28973   0.95052   0.00000  Uiso   1.00
H602   H     0.30178   0.28867   0.52943   0.00000  Uiso   1.00
H603   H     0.02537   0.10279   0.89485   0.00000  Uiso   1.00
H604   H     0.06444   0.11913   0.54544   0.00000  Uiso   1.00
H605   H     0.32836   0.08242   0.98637   0.00000  Uiso   1.00
H606   H     0.19606   0.24930   0.89151   0.00000  Uiso   1.00
N607   N     0.31574   0.18074   0.76416   0.00000  Uiso   1.00
N608   N     0.01759   0.15259   0.73584   0.00000  Uiso   1.00
O609   O     0.12797   0.23807   0.74633   0.00000  Uiso   1.00
O610   O     0.22858   0.24755   0.75586   0.00000  Uiso   1.00
O611   O     0.09181   0.15960   0.81839   0.00000  Uiso   1.00
O612   O     0.19242   0.16908   0.82793   0.00000  Uiso   1.00
O613   O     0.10476   0.08578   0.74413   0.00000  Uiso   1.00
O614   O     0.20536   0.09526   0.75367   0.00000  Uiso   1.00
O615   O     0.14092   0.16425   0.67207   0.00000  Uiso   1.00
O616   O     0.24152   0.17373   0.68160   0.00000  Uiso   1.00
O617   O     0.11029   0.31711   0.70876   0.00000  Uiso   1.00
C618   C     0.14528   0.31805   0.65782   0.00000  Uiso   1.00
H619   H     0.18607   0.29926   0.65439   0.00000  Uiso   1.00
H620   H     0.16235   0.02561   0.64529   0.00000  Uiso   1.00
C621   C     0.10391   0.28797   0.62197   0.00000  Uiso   1.00
H622   H     0.06352   0.30660   0.62353   0.00000  Uiso   1.00
H623   H     0.13126   0.28823   0.58185   0.00000  Uiso   1.00
H624   H     0.08637   0.24674   0.63351   0.00000  Uiso   1.00
O625   O     0.00062   0.19810   0.80861   0.00000  Uiso   1.00
C626   C     0.32971   0.25086   0.81676   0.00000  Uiso   1.00
H627   H     0.28046   0.25346   0.83049   0.00000  Uiso   1.00
H628   H     0.01597   0.27318   0.78112   0.00000  Uiso   1.00
C629   C     0.03279   0.27580   0.85797   0.00000  Uiso   1.00
H630   H     0.01568   0.25328   0.89347   0.00000  Uiso   1.00
H631   H     0.08327   0.27589   0.84448   0.00000  Uiso   1.00
H632   H     0.02694   0.31680   0.86693   0.00000  Uiso   1.00
C633   C     0.16195   0.09810   0.56854   0.00000  Uiso   1.00
H634   H     0.19913   0.08143   0.57852   0.00000  Uiso   1.00
H635   H     0.11927   0.08964   0.59928   0.00000  Uiso   1.00
H636   H     0.15290   0.07744   0.53192   0.00000  Uiso   1.00
C637   C     0.22209   0.01588   0.80260   0.00000  Uiso   1.00
H638   H     0.23339   0.32089   0.82566   0.00000  Uiso   1.00
H639   H     0.26693   0.04001   0.78281   0.00000  Uiso   1.00
H640   H     0.19501   0.04050   0.83061   0.00000  Uiso   1.00
C641   C     0.51373   0.26641   0.75422   0.00000  Uiso   1.00
C642   C     0.47069   0.16372   0.98795   0.00000  Uiso   1.00
C643   C     0.48137   0.18342   0.93832   0.00000  Uiso   1.00
C644   C     0.51600   0.18235   0.51920   0.00000  Uiso   1.00
C645   C     0.56102   0.22925   0.50591   0.00000  Uiso   1.00
C646   C     0.56439   0.25309   0.96023   0.00000  Uiso   1.00
C647   C     0.52646   0.22950   0.92608   0.00000  Uiso   1.00
C648   C     0.51862   0.15653   0.56308   0.00000  Uiso   1.00
C649   C     0.59610   0.23087   0.58592   0.00000  Uiso   1.00
C650   C     0.44412   0.15821   0.90310   0.00000  Uiso   1.00
C651   C     0.51721   0.32164   0.76353   0.00000  Uiso   1.00
C652   C     0.46617   0.16411   0.84727   0.00000  Uiso   1.00
C653   C     0.48201   0.01152   0.74094   0.00000  Uiso   1.00
C654   C     0.48555   0.06686   0.74803   0.00000  Uiso   1.00
C655   C     0.53368   0.17089   0.65301   0.00000  Uiso   1.00
C656   C     0.60156   0.25237   0.53884   0.00000  Uiso   1.00
C657   C     0.55349   0.18390   0.59882   0.00000  Uiso   1.00
C658   C     0.38869   0.12194   0.92093   0.00000  Uiso   1.00
C659   C     0.37210   0.10924   0.97245   0.00000  Uiso   1.00
C660   C     0.41292   0.12935   0.50564   0.00000  Uiso   1.00
Cu661  Cu    0.44043   0.16105   0.74435   0.00000  Uiso   1.00
Cu662  Cu    0.55957   0.17228   0.75564   0.00000  Uiso   1.00
H663   H     0.62300   0.25215   0.61330   0.00000  Uiso   1.00
H664   H     0.33406   0.13418   0.70443   0.00000  Uiso   1.00
H665   H     0.59711   0.28973   0.95052   0.00000  Uiso   1.00
H666   H     0.63512   0.28867   0.52943   0.00000  Uiso   1.00
H667   H     0.35870   0.10279   0.89485   0.00000  Uiso   1.00
H668   H     0.39777   0.11913   0.54544   0.00000  Uiso   1.00
H669   H     0.66170   0.08242   0.98637   0.00000  Uiso   1.00
H670   H     0.52940   0.24930   0.89151   0.00000  Uiso   1.00
N671   N     0.64908   0.18074   0.76416   0.00000  Uiso   1.00
N672   N     0.35092   0.15259   0.73584   0.00000  Uiso   1.00
O673   O     0.46131   0.23807   0.74633   0.00000  Uiso   1.00
O674   O     0.56191   0.24755   0.75586   0.00000  Uiso   1.00
O675   O     0.42515   0.15960   0.81839   0.00000  Uiso   1.00
O676   O     0.52575   0.16908   0.82793   0.00000  Uiso   1.00
O677   O     0.43809   0.08578   0.74413   0.00000  Uiso   1.00
O678   O     0.53869   0.09526   0.75367   0.00000  Uiso   1.00
O679   O     0.47425   0.16425   0.67207   0.00000  Uiso   1.00
O680   O     0.57485   0.17373   0.68160   0.00000  Uiso   1.00
O681   O     0.44362   0.31711   0.70876   0.00000  Uiso   1.00
C682   C     0.47861   0.31805   0.65782   0.00000  Uiso   1.00
H683   H     0.51940   0.29926   0.65439   0.00000  Uiso   1.00
H684   H     0.49568   0.02561   0.64529   0.00000  Uiso   1.00
C685   C     0.43724   0.28797   0.62197   0.00000  Uiso   1.00
H686   H     0.39685   0.30660   0.62353   0.00000  Uiso   1.00
H687   H     0.46460   0.28823   0.58185   0.00000  Uiso   1.00
H688   H     0.41970   0.24674   0.63351   0.00000  Uiso   1.00
O689   O     0.33395   0.19810   0.80861   0.00000  Uiso   1.00
C690   C     0.66305   0.25086   0.81676   0.00000  Uiso   1.00
H691   H     0.61379   0.25346   0.83049   0.00000  Uiso   1.00
H692   H     0.34930   0.27318   0.78112   0.00000  Uiso   1.00
C693   C     0.36613   0.27580   0.85797   0.00000  Uiso   1.00
H694   H     0.34902   0.25328   0.89347   0.00000  Uiso   1.00
H695   H     0.41661   0.27589   0.84448   0.00000  Uiso   1.00
H696   H     0.36027   0.31680   0.86693   0.00000  Uiso   1.00
C697   C     0.49529   0.09810   0.56854   0.00000  Uiso   1.00
H698   H     0.53246   0.08143   0.57852   0.00000  Uiso   1.00
H699   H     0.45261   0.08964   0.59928   0.00000  Uiso   1.00
H700   H     0.48624   0.07744   0.53192   0.00000  Uiso   1.00
C701   C     0.55542   0.01588   0.80260   0.00000  Uiso   1.00
H702   H     0.56673   0.32089   0.82566   0.00000  Uiso   1.00
H703   H     0.60027   0.04001   0.78281   0.00000  Uiso   1.00
H704   H     0.52834   0.04050   0.83061   0.00000  Uiso   1.00
C705   C     0.84706   0.26641   0.75422   0.00000  Uiso   1.00
C706   C     0.80403   0.16372   0.98795   0.00000  Uiso   1.00
C707   C     0.81470   0.18342   0.93832   0.00000  Uiso   1.00
C708   C     0.84934   0.18235   0.51920   0.00000  Uiso   1.00
C709   C     0.89435   0.22925   0.50591   0.00000  Uiso   1.00
C710   C     0.89773   0.25309   0.96023   0.00000  Uiso   1.00
C711   C     0.85979   0.22950   0.92608   0.00000  Uiso   1.00
C712   C     0.85196   0.15653   0.56308   0.00000  Uiso   1.00
C713   C     0.92944   0.23087   0.58592   0.00000  Uiso   1.00
C714   C     0.77745   0.15821   0.90310   0.00000  Uiso   1.00
C715   C     0.85054   0.32164   0.76353   0.00000  Uiso   1.00
C716   C     0.79950   0.16411   0.84727   0.00000  Uiso   1.00
C717   C     0.81534   0.01152   0.74094   0.00000  Uiso   1.00
C718   C     0.81888   0.06686   0.74803   0.00000  Uiso   1.00
C719   C     0.86701   0.17089   0.65301   0.00000  Uiso   1.00
C720   C     0.93490   0.25237   0.53884   0.00000  Uiso   1.00
C721   C     0.88683   0.18390   0.59882   0.00000  Uiso   1.00
C722   C     0.72202   0.12194   0.92093   0.00000  Uiso   1.00
C723   C     0.70544   0.10924   0.97245   0.00000  Uiso   1.00
C724   C     0.74625   0.12935   0.50564   0.00000  Uiso   1.00
Cu725  Cu    0.77377   0.16105   0.74435   0.00000  Uiso   1.00
Cu726  Cu    0.89290   0.17228   0.75564   0.00000  Uiso   1.00
H727   H     0.95633   0.25215   0.61330   0.00000  Uiso   1.00
H728   H     0.66739   0.13418   0.70443   0.00000  Uiso   1.00
H729   H     0.93044   0.28973   0.95052   0.00000  Uiso   1.00
H730   H     0.96845   0.28867   0.52943   0.00000  Uiso   1.00
H731   H     0.69204   0.10279   0.89485   0.00000  Uiso   1.00
H732   H     0.73110   0.11913   0.54544   0.00000  Uiso   1.00
H733   H     0.99503   0.08242   0.98637   0.00000  Uiso   1.00
H734   H     0.86273   0.24930   0.89151   0.00000  Uiso   1.00
N735   N     0.98241   0.18074   0.76416   0.00000  Uiso   1.00
N736   N     0.68426   0.15259   0.73584   0.00000  Uiso   1.00
O737   O     0.79464   0.23807   0.74633   0.00000  Uiso   1.00
O738   O     0.89524   0.24755   0.75586   0.00000  Uiso   1.00
O739   O     0.75848   0.15960   0.81839   0.00000  Uiso   1.00
O740   O     0.85908   0.16908   0.82793   0.00000  Uiso   1.00
O741   O     0.77142   0.08578   0.74413   0.00000  Uiso   1.00
O742   O     0.87203   0.09526   0.75367   0.00000  Uiso   1.00
O743   O     0.80758   0.16425   0.67207   0.00000  Uiso   1.00
O744   O     0.90819   0.17373   0.68160   0.00000  Uiso   1.00
O745   O     0.77696   0.31711   0.70876   0.00000  Uiso   1.00
C746   C     0.81194   0.31805   0.65782   0.00000  Uiso   1.00
H747   H     0.85273   0.29926   0.65439   0.00000  Uiso   1.00
H748   H     0.82902   0.02561   0.64529   0.00000  Uiso   1.00
C749   C     0.77058   0.28797   0.62197   0.00000  Uiso   1.00
H750   H     0.73019   0.30660   0.62353   0.00000  Uiso   1.00
H751   H     0.79793   0.28823   0.58185   0.00000  Uiso   1.00
H752   H     0.75304   0.24674   0.63351   0.00000  Uiso   1.00
O753   O     0.66728   0.19810   0.80861   0.00000  Uiso   1.00
C754   C     0.99638   0.25086   0.81676   0.00000  Uiso   1.00
H755   H     0.94713   0.25346   0.83049   0.00000  Uiso   1.00
H756   H     0.68263   0.27318   0.78112   0.00000  Uiso   1.00
C757   C     0.69946   0.27580   0.85797   0.00000  Uiso   1.00
H758   H     0.68235   0.25328   0.89347   0.00000  Uiso   1.00
H759   H     0.74994   0.27589   0.84448   0.00000  Uiso   1.00
H760   H     0.69360   0.31680   0.86693   0.00000  Uiso   1.00
C761   C     0.82862   0.09810   0.56854   0.00000  Uiso   1.00
H762   H     0.86580   0.08143   0.57852   0.00000  Uiso   1.00
H763   H     0.78594   0.08964   0.59928   0.00000  Uiso   1.00
H764   H     0.81957   0.07744   0.53192   0.00000  Uiso   1.00
C765   C     0.88875   0.01588   0.80260   0.00000  Uiso   1.00
H766   H     0.90006   0.32089   0.82566   0.00000  Uiso   1.00
H767   H     0.93360   0.04001   0.78281   0.00000  Uiso   1.00
H768   H     0.86168   0.04050   0.83061   0.00000  Uiso   1.00
C769   C     0.18040   0.59974   0.75422   0.00000  Uiso   1.00
C770   C     0.13736   0.49705   0.98795   0.00000  Uiso   1.00
C771   C     0.14803   0.51675   0.93832   0.00000  Uiso   1.00
C772   C     0.18267   0.51569   0.51920   0.00000  Uiso   1.00
C773   C     0.22769   0.56258   0.50591   0.00000  Uiso   1.00
C774   C     0.23106   0.58642   0.96023   0.00000  Uiso   1.00
C775   C     0.19312   0.56283   0.92608   0.00000  Uiso   1.00
C776   C     0.18529   0.48986   0.56308   0.00000  Uiso   1.00
C777   C     0.26277   0.56420   0.58592   0.00000  Uiso   1.00
C778   C     0.11079   0.49154   0.90310   0.00000  Uiso   1.00
C779   C     0.18388   0.65498   0.76353   0.00000  Uiso   1.00
C780   C     0.13283   0.49744   0.84727   0.00000  Uiso   1.00
C781   C     0.14867   0.34486   0.74094   0.00000  Uiso   1.00
C782   C     0.15222   0.40019   0.74803   0.00000  Uiso   1.00
C783   C     0.20034   0.50422   0.65301   0.00000  Uiso   1.00
C784   C     0.26823   0.58570   0.53884   0.00000  Uiso   1.00
C785   C     0.22016   0.51724   0.59882   0.00000  Uiso   1.00
C786   C     0.05535   0.45528   0.92093   0.00000  Uiso   1.00
C787   C     0.03877   0.44258   0.97245   0.00000  Uiso   1.00
C788   C     0.07959   0.46268   0.50564   0.00000  Uiso   1.00
Cu789  Cu    0.10710   0.49439   0.74435   0.00000  Uiso   1.00
Cu790  Cu    0.22623   0.50561   0.75564   0.00000  Uiso   1.00
H791   H     0.28966   0.58548   0.61330   0.00000  Uiso   1.00
H792   H     0.00072   0.46751   0.70443   0.00000  Uiso   1.00
H793   H     0.26378   0.62306   0.95052   0.00000  Uiso   1.00
H794   H     0.30178   0.62201   0.52943   0.00000  Uiso   1.00
H795   H     0.02537   0.43612   0.89485   0.00000  Uiso   1.00
H796   H     0.06444   0.45247   0.54544   0.00000  Uiso   1.00
H797   H     0.32836   0.41576   0.98637   0.00000  Uiso   1.00
H798   H     0.19606   0.58263   0.89151   0.00000  Uiso   1.00
N799   N     0.31574   0.51407   0.76416   0.00000  Uiso   1.00
N800   N     0.01759   0.48593   0.73584   0.00000  Uiso   1.00
O801   O     0.12797   0.57141   0.74633   0.00000  Uiso   1.00
O802   O     0.22858   0.58089   0.75586   0.00000  Uiso   1.00
O803   O     0.09181   0.49293   0.81839   0.00000  Uiso   1.00
O804   O     0.19242   0.50241   0.82793   0.00000  Uiso   1.00
O805   O     0.10476   0.41911   0.74413   0.00000  Uiso   1.00
O806   O     0.20536   0.42859   0.75367   0.00000  Uiso   1.00
O807   O     0.14092   0.49759   0.67207   0.00000  Uiso   1.00
O808   O     0.24152   0.50707   0.68160   0.00000  Uiso   1.00
O809   O     0.11029   0.65045   0.70876   0.00000  Uiso   1.00
C810   C     0.14528   0.65138   0.65782   0.00000  Uiso   1.00
H811   H     0.18607   0.63259   0.65439   0.00000  Uiso   1.00
H812   H     0.16235   0.35895   0.64529   0.00000  Uiso   1.00
C813   C     0.10391   0.62131   0.62197   0.00000  Uiso   1.00
H814   H     0.06352   0.63993   0.62353   0.00000  Uiso   1.00
H815   H     0.13126   0.62157   0.58185   0.00000  Uiso   1.00
H816   H     0.08637   0.58008   0.63351   0.00000  Uiso   1.00
O817   O     0.00062   0.53144   0.80861   0.00000  Uiso   1.00
C818   C     0.32971   0.58419   0.81676   0.00000  Uiso   1.00
H819   H     0.28046   0.58679   0.83049   0.00000  Uiso   1.00
H820   H     0.01597   0.60651   0.78112   0.00000  Uiso   1.00
C821   C     0.03279   0.60914   0.85797   0.00000  Uiso   1.00
H822   H     0.01568   0.58662   0.89347   0.00000  Uiso   1.00
H823   H     0.08327   0.60923   0.84448   0.00000  Uiso   1.00
H824   H     0.02694   0.65013   0.86693   0.00000  Uiso   1.00
C825   C     0.16195   0.43144   0.56854   0.00000  Uiso   1.00
H826   H     0.19913   0.41476   0.57852   0.00000  Uiso   1.00
H827   H     0.11927   0.42297   0.59928   0.00000  Uiso   1.00
H828   H     0.15290   0.41077   0.53192   0.00000  Uiso   1.00
C829   C     0.22209   0.34922   0.80260   0.00000  Uiso   1.00
H830   H     0.23339   0.65422   0.82566   0.00000  Uiso   1.00
H831   H     0.26693   0.37335   0.78281   0.00000  Uiso   1.00
H832   H     0.19501   0.37383   0.83061   0.00000  Uiso   1.00
C833   C     0.51373   0.59974   0.75422   0.00000  Uiso   1.00
C834   C     0.47069   0.49705   0.98795   0.00000  Uiso   1.00
C835   C     0.48137   0.51675   0.93832   0.00000  Uiso   1.00
C836   C     0.51600   0.51569   0.51920   0.00000  Uiso   1.00
C837   C     0.56102   0.56258   0.50591   0.00000  Uiso   1.00
C838   C     0.56439   0.58642   0.96023   0.00000  Uiso   1.00
C839   C     0.52646   0.56283   0.92608   0.00000  Uiso   1.00
C840   C     0.51862   0.48986   0.56308   0.00000  Uiso   1.00
C841   C     0.59610   0.56420   0.58592   0.00000  Uiso   1.00
C842   C     0.44412   0.49154   0.90310   0.00000  Uiso   1.00
C843   C     0.51721   0.65498   0.76353   0.00000  Uiso   1.00
C844   C     0.46617   0.49744   0.84727   0.00000  Uiso   1.00
C845   C     0.48201   0.34486   0.74094   0.00000  Uiso   1.00
C846   C     0.48555   0.40019   0.74803   0.00000  Uiso   1.00
C847   C     0.53368   0.50422   0.65301   0.00000  Uiso   1.00
C848   C     0.60156   0.58570   0.53884   0.00000  Uiso   1.00
C849   C     0.55349   0.51724   0.59882   0.00000  Uiso   1.00
C850   C     0.38869   0.45528   0.92093   0.00000  Uiso   1.00
C851   C     0.37210   0.44258   0.97245   0.00000  Uiso   1.00
C852   C     0.41292   0.46268   0.50564   0.00000  Uiso   1.00
Cu853  Cu    0.44043   0.49439   0.74435   0.00000  Uiso   1.00
Cu854  Cu    0.55957   0.50561   0.75564   0.00000  Uiso   1.00
H855   H     0.62300   0.58548   0.61330   0.00000  Uiso   1.00
H856   H     0.33406   0.46751   0.70443   0.00000  Uiso   1.00
H857   H     0.59711   0.62306   0.95052   0.00000  Uiso   1.00
H858   H     0.63512   0.62201   0.52943   0.00000  Uiso   1.00
H859   H     0.35870   0.43612   0.89485   0.00000  Uiso   1.00
H860   H     0.39777   0.45247   0.54544   0.00000  Uiso   1.00
H861   H     0.66170   0.41576   0.98637   0.00000  Uiso   1.00
H862   H     0.52940   0.58263   0.89151   0.00000  Uiso   1.00
N863   N     0.64908   0.51407   0.76416   0.00000  Uiso   1.00
N864   N     0.35092   0.48593   0.73584   0.00000  Uiso   1.00
O865   O     0.46131   0.57141   0.74633   0.00000  Uiso   1.00
O866   O     0.56191   0.58089   0.75586   0.00000  Uiso   1.00
O867   O     0.42515   0.49293   0.81839   0.00000  Uiso   1.00
O868   O     0.52575   0.50241   0.82793   0.00000  Uiso   1.00
O869   O     0.43809   0.41911   0.74413   0.00000  Uiso   1.00
O870   O     0.53869   0.42859   0.75367   0.00000  Uiso   1.00
O871   O     0.47425   0.49759   0.67207   0.00000  Uiso   1.00
O872   O     0.57485   0.50707   0.68160   0.00000  Uiso   1.00
O873   O     0.44362   0.65045   0.70876   0.00000  Uiso   1.00
C874   C     0.47861   0.65138   0.65782   0.00000  Uiso   1.00
H875   H     0.51940   0.63259   0.65439   0.00000  Uiso   1.00
H876   H     0.49568   0.35895   0.64529   0.00000  Uiso   1.00
C877   C     0.43724   0.62131   0.62197   0.00000  Uiso   1.00
H878   H     0.39685   0.63993   0.62353   0.00000  Uiso   1.00
H879   H     0.46460   0.62157   0.58185   0.00000  Uiso   1.00
H880   H     0.41970   0.58008   0.63351   0.00000  Uiso   1.00
O881   O     0.33395   0.53144   0.80861   0.00000  Uiso   1.00
C882   C     0.66305   0.58419   0.81676   0.00000  Uiso   1.00
H883   H     0.61379   0.58679   0.83049   0.00000  Uiso   1.00
H884   H     0.34930   0.60651   0.78112   0.00000  Uiso   1.00
C885   C     0.36613   0.60914   0.85797   0.00000  Uiso   1.00
H886   H     0.34902   0.58662   0.89347   0.00000  Uiso   1.00
H887   H     0.41661   0.60923   0.84448   0.00000  Uiso   1.00
H888   H     0.36027   0.65013   0.86693   0.00000  Uiso   1.00
C889   C     0.49529   0.43144   0.56854   0.00000  Uiso   1.00
H890   H     0.53246   0.41476   0.57852   0.00000  Uiso   1.00
H891   H     0.45261   0.42297   0.59928   0.00000  Uiso   1.00
H892   H     0.48624   0.41077   0.53192   0.00000  Uiso   1.00
C893   C     0.55542   0.34922   0.80260   0.00000  Uiso   1.00
H894   H     0.56673   0.65422   0.82566   0.00000  Uiso   1.00
H895   H     0.60027   0.37335   0.78281   0.00000  Uiso   1.00
H896   H     0.52834   0.37383   0.83061   0.00000  Uiso   1.00
C897   C     0.84706   0.59974   0.75422   0.00000  Uiso   1.00
C898   C     0.80403   0.49705   0.98795   0.00000  Uiso   1.00
C899   C     0.81470   0.51675   0.93832   0.00000  Uiso   1.00
C900   C     0.84934   0.51569   0.51920   0.00000  Uiso   1.00
C901   C     0.89435   0.56258   0.50591   0.00000  Uiso   1.00
C902   C     0.89773   0.58642   0.96023   0.00000  Uiso   1.00
C903   C     0.85979   0.56283   0.92608   0.00000  Uiso   1.00
C904   C     0.85196   0.48986   0.56308   0.00000  Uiso   1.00
C905   C     0.92944   0.56420   0.58592   0.00000  Uiso   1.00
C906   C     0.77745   0.49154   0.90310   0.00000  Uiso   1.00
C907   C     0.85054   0.65498   0.76353   0.00000  Uiso   1.00
C908   C     0.79950   0.49744   0.84727   0.00000  Uiso   1.00
C909   C     0.81534   0.34486   0.74094   0.00000  Uiso   1.00
C910   C     0.81888   0.40019   0.74803   0.00000  Uiso   1.00
C911   C     0.86701   0.50422   0.65301   0.00000  Uiso   1.00
C912   C     0.93490   0.58570   0.53884   0.00000  Uiso   1.00
C913   C     0.88683   0.51724   0.59882   0.00000  Uiso   1.00
C914   C     0.72202   0.45528   0.92093   0.00000  Uiso   1.00
C915   C     0.70544   0.44258   0.97245   0.00000  Uiso   1.00
C916   C     0.74625   0.46268   0.50564   0.00000  Uiso   1.00
Cu917  Cu    0.77377   0.49439   0.74435   0.00000  Uiso   1.00
Cu918  Cu    0.89290   0.50561   0.75564   0.00000  Uiso   1.00
H919   H     0.95633   0.58548   0.61330   0.00000  Uiso   1.00
H920   H     0.66739   0.46751   0.70443   0.00000  Uiso   1.00
H921   H     0.93044   0.62306   0.95052   0.00000  Uiso   1.00
H922   H     0.96845   0.62201   0.52943   0.00000  Uiso   1.00
H923   H     0.69204   0.43612   0.89485   0.00000  Uiso   1.00
H924   H     0.73110   0.45247   0.54544   0.00000  Uiso   1.00
H925   H     0.99503   0.41576   0.98637   0.00000  Uiso   1.00
H926   H     0.86273   0.58263   0.89151   0.00000  Uiso   1.00
N927   N     0.98241   0.51407   0.76416   0.00000  Uiso   1.00
N928   N     0.68426   0.48593   0.73584   0.00000  Uiso   1.00
O929   O     0.79464   0.57141   0.74633   0.00000  Uiso   1.00
O930   O     0.89524   0.58089   0.75586   0.00000  Uiso   1.00
O931   O     0.75848   0.49293   0.81839   0.00000  Uiso   1.00
O932   O     0.85908   0.50241   0.82793   0.00000  Uiso   1.00
O933   O     0.77142   0.41911   0.74413   0.00000  Uiso   1.00
O934   O     0.87203   0.42859   0.75367   0.00000  Uiso   1.00
O935   O     0.80758   0.49759   0.67207   0.00000  Uiso   1.00
O936   O     0.90819   0.50707   0.68160   0.00000  Uiso   1.00
O937   O     0.77696   0.65045   0.70876   0.00000  Uiso   1.00
C938   C     0.81194   0.65138   0.65782   0.00000  Uiso   1.00
H939   H     0.85273   0.63259   0.65439   0.00000  Uiso   1.00
H940   H     0.82902   0.35895   0.64529   0.00000  Uiso   1.00
C941   C     0.77058   0.62131   0.62197   0.00000  Uiso   1.00
H942   H     0.73019   0.63993   0.62353   0.00000  Uiso   1.00
H943   H     0.79793   0.62157   0.58185   0.00000  Uiso   1.00
H944   H     0.75304   0.58008   0.63351   0.00000  Uiso   1.00
O945   O     0.66728   0.53144   0.80861   0.00000  Uiso   1.00
C946   C     0.99638   0.58419   0.81676   0.00000  Uiso   1.00
H947   H     0.94713   0.58679   0.83049   0.00000  Uiso   1.00
H948   H     0.68263   0.60651   0.78112   0.00000  Uiso   1.00
C949   C     0.69946   0.60914   0.85797   0.00000  Uiso   1.00
H950   H     0.68235   0.58662   0.89347   0.00000  Uiso   1.00
H951   H     0.74994   0.60923   0.84448   0.00000  Uiso   1.00
H952   H     0.69360   0.65013   0.86693   0.00000  Uiso   1.00
C953   C     0.82862   0.43144   0.56854   0.00000  Uiso   1.00
H954   H     0.86580   0.41476   0.57852   0.00000  Uiso   1.00
H955   H     0.78594   0.42297   0.59928   0.00000  Uiso   1.00
H956   H     0.81957   0.41077   0.53192   0.00000  Uiso   1.00
C957   C     0.88875   0.34922   0.80260   0.00000  Uiso   1.00
H958   H     0.90006   0.65422   0.82566   0.00000  Uiso   1.00
H959   H     0.93360   0.37335   0.78281   0.00000  Uiso   1.00
H960   H     0.86168   0.37383   0.83061   0.00000  Uiso   1.00
C961   C     0.18040   0.93307   0.75422   0.00000  Uiso   1.00
C962   C     0.13736   0.83038   0.98795   0.00000  Uiso   1.00
C963   C     0.14803   0.85008   0.93832   0.00000  Uiso   1.00
C964   C     0.18267   0.84902   0.51920   0.00000  Uiso   1.00
C965   C     0.22769   0.89592   0.50591   0.00000  Uiso   1.00
C966   C     0.23106   0.91975   0.96023   0.00000  Uiso   1.00
C967   C     0.19312   0.89617   0.92608   0.00000  Uiso   1.00
C968   C     0.18529   0.82320   0.56308   0.00000  Uiso   1.00
C969   C     0.26277   0.89754   0.58592   0.00000  Uiso   1.00
C970   C     0.11079   0.82488   0.90310   0.00000  Uiso   1.00
C971   C     0.18388   0.98831   0.76353   0.00000  Uiso   1.00
C972   C     0.13283   0.83078   0.84727   0.00000  Uiso   1.00
C973   C     0.14867   0.67819   0.74094   0.00000  Uiso   1.00
C974   C     0.15222   0.73352   0.74803   0.00000  Uiso   1.00
C975   C     0.20034   0.83756   0.65301   0.00000  Uiso   1.00
C976   C     0.26823   0.91903   0.53884   0.00000  Uiso   1.00
C977   C     0.22016   0.85057   0.59882   0.00000  Uiso   1.00
C978   C     0.05535   0.78861   0.92093   0.00000  Uiso   1.00
C979   C     0.03877   0.77591   0.97245   0.00000  Uiso   1.00
C980   C     0.07959   0.79602   0.50564   0.00000  Uiso   1.00
Cu981  Cu    0.10710   0.82772   0.74435   0.00000  Uiso   1.00
Cu982  Cu    0.22623   0.83895   0.75564   0.00000  Uiso   1.00
H983   H     0.28966   0.91882   0.61330   0.00000  Uiso   1.00
H984   H     0.00072   0.80084   0.70443   0.00000  Uiso   1.00
H985   H     0.26378   0.95639   0.95052   0.00000  Uiso   1.00
H986   H     0.30178   0.95534   0.52943   0.00000  Uiso   1.00
H987   H     0.02537   0.76945   0.89485   0.00000  Uiso   1.00
H988   H     0.06444   0.78580   0.54544   0.00000  Uiso   1.00
H989   H     0.32836   0.74909   0.98637   0.00000  Uiso   1.00
H990   H     0.19606   0.91597   0.89151   0.00000  Uiso   1.00
N991   N     0.31574   0.84741   0.76416   0.00000  Uiso   1.00
N992   N     0.01759   0.81926   0.73584   0.00000  Uiso   1.00
O993   O     0.12797   0.90474   0.74633   0.00000  Uiso   1.00
O994   O     0.22858   0.91422   0.75586   0.00000  Uiso   1.00
O995   O     0.09181   0.82627   0.81839   0.00000  Uiso   1.00
O996   O     0.19242   0.83575   0.82793   0.00000  Uiso   1.00
O997   O     0.10476   0.75245   0.74413   0.00000  Uiso   1.00
O998   O     0.20536   0.76193   0.75367   0.00000  Uiso   1.00
O999   O     0.14092   0.83092   0.67207   0.00000  Uiso   1.00
O1000  O     0.24152   0.84040   0.68160   0.00000  Uiso   1.00
O1001  O     0.11029   0.98378   0.70876   0.00000  Uiso   1.00
C1002  C     0.14528   0.98472   0.65782   0.00000  Uiso   1.00
H1003  H     0.18607   0.96592   0.65439   0.00000  Uiso   1.00
H1004  H     0.16235   0.69228   0.64529   0.00000  Uiso   1.00
C1005  C     0.10391   0.95464   0.62197   0.00000  Uiso   1.00
H1006  H     0.06352   0.97326   0.62353   0.00000  Uiso   1.00
H1007  H     0.13126   0.95490   0.58185   0.00000  Uiso   1.00
H1008  H     0.08637   0.91341   0.63351   0.00000  Uiso   1.00
O1009  O     0.00062   0.86477   0.80861   0.00000  Uiso   1.00
C1010  C     0.32971   0.91753   0.81676   0.00000  Uiso   1.00
H1011  H     0.28046   0.92012   0.83049   0.00000  Uiso   1.00
H1012  H     0.01597   0.93985   0.78112   0.00000  Uiso   1.00
C1013  C     0.03279   0.94247   0.85797   0.00000  Uiso   1.00
H1014  H     0.01568   0.91995   0.89347   0.00000  Uiso   1.00
H1015  H     0.08327   0.94256   0.84448   0.00000  Uiso   1.00
H1016  H     0.02694   0.98346   0.86693   0.00000  Uiso   1.00
C1017  C     0.16195   0.76477   0.56854   0.00000  Uiso   1.00
H1018  H     0.19913   0.74809   0.57852   0.00000  Uiso   1.00
H1019  H     0.11927   0.75630   0.59928   0.00000  Uiso   1.00
H1020  H     0.15290   0.74411   0.53192   0.00000  Uiso   1.00
C1021  C     0.22209   0.68255   0.80260   0.00000  Uiso   1.00
H1022  H     0.23339   0.98755   0.82566   0.00000  Uiso   1.00
H1023  H     0.26693   0.70668   0.78281   0.00000  Uiso   1.00
H1024  H     0.19501   0.70716   0.83061   0.00000  Uiso   1.00
C1025  C     0.51373   0.93307   0.75422   0.00000  Uiso   1.00
C1026  C     0.47069   0.83038   0.98795   0.00000  Uiso   1.00
C1027  C     0.48137   0.85008   0.93832   0.00000  Uiso   1.00
C1028  C     0.51600   0.84902   0.51920   0.00000  Uiso   1.00
C1029  C     0.56102   0.89592   0.50591   0.00000  Uiso   1.00
C1030  C     0.56439   0.91975   0.96023   0.00000  Uiso   1.00
C1031  C     0.52646   0.89617   0.92608   0.00000  Uiso   1.00
C1032  C     0.51862   0.82320   0.56308   0.00000  Uiso   1.00
C1033  C     0.59610   0.89754   0.58592   0.00000  Uiso   1.00
C1034  C     0.44412   0.82488   0.90310   0.00000  Uiso   1.00
C1035  C     0.51721   0.98831   0.76353   0.00000  Uiso   1.00
C1036  C     0.46617   0.83078   0.84727   0.00000  Uiso   1.00
C1037  C     0.48201   0.67819   0.74094   0.00000  Uiso   1.00
C1038  C     0.48555   0.73352   0.74803   0.00000  Uiso   1.00
C1039  C     0.53368   0.83756   0.65301   0.00000  Uiso   1.00
C1040  C     0.60156   0.91903   0.53884   0.00000  Uiso   1.00
C1041  C     0.55349   0.85057   0.59882   0.00000  Uiso   1.00
C1042  C     0.38869   0.78861   0.92093   0.00000  Uiso   1.00
C1043  C     0.37210   0.77591   0.97245   0.00000  Uiso   1.00
C1044  C     0.41292   0.79602   0.50564   0.00000  Uiso   1.00
Cu1045 Cu    0.44043   0.82772   0.74435   0.00000  Uiso   1.00
Cu1046 Cu    0.55957   0.83895   0.75564   0.00000  Uiso   1.00
H1047  H     0.62300   0.91882   0.61330   0.00000  Uiso   1.00
H1048  H     0.33406   0.80084   0.70443   0.00000  Uiso   1.00
H1049  H     0.59711   0.95639   0.95052   0.00000  Uiso   1.00
H1050  H     0.63512   0.95534   0.52943   0.00000  Uiso   1.00
H1051  H     0.35870   0.76945   0.89485   0.00000  Uiso   1.00
H1052  H     0.39777   0.78580   0.54544   0.00000  Uiso   1.00
H1053  H     0.66170   0.74909   0.98637   0.00000  Uiso   1.00
H1054  H     0.52940   0.91597   0.89151   0.00000  Uiso   1.00
N1055  N     0.64908   0.84741   0.76416   0.00000  Uiso   1.00
N1056  N     0.35092   0.81926   0.73584   0.00000  Uiso   1.00
O1057  O     0.46131   0.90474   0.74633   0.00000  Uiso   1.00
O1058  O     0.56191   0.91422   0.75586   0.00000  Uiso   1.00
O1059  O     0.42515   0.82627   0.81839   0.00000  Uiso   1.00
O1060  O     0.52575   0.83575   0.82793   0.00000  Uiso   1.00
O1061  O     0.43809   0.75245   0.74413   0.00000  Uiso   1.00
O1062  O     0.53869   0.76193   0.75367   0.00000  Uiso   1.00
O1063  O     0.47425   0.83092   0.67207   0.00000  Uiso   1.00
O1064  O     0.57485   0.84040   0.68160   0.00000  Uiso   1.00
O1065  O     0.44362   0.98378   0.70876   0.00000  Uiso   1.00
C1066  C     0.47861   0.98472   0.65782   0.00000  Uiso   1.00
H1067  H     0.51940   0.96592   0.65439   0.00000  Uiso   1.00
H1068  H     0.49568   0.69228   0.64529   0.00000  Uiso   1.00
C1069  C     0.43724   0.95464   0.62197   0.00000  Uiso   1.00
H1070  H     0.39685   0.97326   0.62353   0.00000  Uiso   1.00
H1071  H     0.46460   0.95490   0.58185   0.00000  Uiso   1.00
H1072  H     0.41970   0.91341   0.63351   0.00000  Uiso   1.00
O1073  O     0.33395   0.86477   0.80861   0.00000  Uiso   1.00
C1074  C     0.66305   0.91753   0.81676   0.00000  Uiso   1.00
H1075  H     0.61379   0.92012   0.83049   0.00000  Uiso   1.00
H1076  H     0.34930   0.93985   0.78112   0.00000  Uiso   1.00
C1077  C     0.36613   0.94247   0.85797   0.00000  Uiso   1.00
H1078  H     0.34902   0.91995   0.89347   0.00000  Uiso   1.00
H1079  H     0.41661   0.94256   0.84448   0.00000  Uiso   1.00
H1080  H     0.36027   0.98346   0.86693   0.00000  Uiso   1.00
C1081  C     0.49529   0.76477   0.56854   0.00000  Uiso   1.00
H1082  H     0.53246   0.74809   0.57852   0.00000  Uiso   1.00
H1083  H     0.45261   0.75630   0.59928   0.00000  Uiso   1.00
H1084  H     0.48624   0.74411   0.53192   0.00000  Uiso   1.00
C1085  C     0.55542   0.68255   0.80260   0.00000  Uiso   1.00
H1086  H     0.56673   0.98755   0.82566   0.00000  Uiso   1.00
H1087  H     0.60027   0.70668   0.78281   0.00000  Uiso   1.00
H1088  H     0.52834   0.70716   0.83061   0.00000  Uiso   1.00
C1089  C     0.84706   0.93307   0.75422   0.00000  Uiso   1.00
C1090  C     0.80403   0.83038   0.98795   0.00000  Uiso   1.00
C1091  C     0.81470   0.85008   0.93832   0.00000  Uiso   1.00
C1092  C     0.84934   0.84902   0.51920   0.00000  Uiso   1.00
C1093  C     0.89435   0.89592   0.50591   0.00000  Uiso   1.00
C1094  C     0.89773   0.91975   0.96023   0.00000  Uiso   1.00
C1095  C     0.85979   0.89617   0.92608   0.00000  Uiso   1.00
C1096  C     0.85196   0.82320   0.56308   0.00000  Uiso   1.00
C1097  C     0.92944   0.89754   0.58592   0.00000  Uiso   1.00
C1098  C     0.77745   0.82488   0.90310   0.00000  Uiso   1.00
C1099  C     0.85054   0.98831   0.76353   0.00000  Uiso   1.00
C1100  C     0.79950   0.83078   0.84727   0.00000  Uiso   1.00
C1101  C     0.81534   0.67819   0.74094   0.00000  Uiso   1.00
C1102  C     0.81888   0.73352   0.74803   0.00000  Uiso   1.00
C1103  C     0.86701   0.83756   0.65301   0.00000  Uiso   1.00
C1104  C     0.93490   0.91903   0.53884   0.00000  Uiso   1.00
C1105  C     0.88683   0.85057   0.59882   0.00000  Uiso   1.00
C1106  C     0.72202   0.78861   0.92093   0.00000  Uiso   1.00
C1107  C     0.70544   0.77591   0.97245   0.00000  Uiso   1.00
C1108  C     0.74625   0.79602   0.50564   0.00000  Uiso   1.00
Cu1109 Cu    0.77377   0.82772   0.74435   0.00000  Uiso   1.00
Cu1110 Cu    0.89290   0.83895   0.75564   0.00000  Uiso   1.00
H1111  H     0.95633   0.91882   0.61330   0.00000  Uiso   1.00
H1112  H     0.66739   0.80084   0.70443   0.00000  Uiso   1.00
H1113  H     0.93044   0.95639   0.95052   0.00000  Uiso   1.00
H1114  H     0.96845   0.95534   0.52943   0.00000  Uiso   1.00
H1115  H     0.69204   0.76945   0.89485   0.00000  Uiso   1.00
H1116  H     0.73110   0.78580   0.54544   0.00000  Uiso   1.00
H1117  H     0.99503   0.74909   0.98637   0.00000  Uiso   1.00
H1118  H     0.86273   0.91597   0.89151   0.00000  Uiso   1.00
N1119  N     0.98241   0.84741   0.76416   0.00000  Uiso   1.00
N1120  N     0.68426   0.81926   0.73584   0.00000  Uiso   1.00
O1121  O     0.79464   0.90474   0.74633   0.00000  Uiso   1.00
O1122  O     0.89524   0.91422   0.75586   0.00000  Uiso   1.00
O1123  O     0.75848   0.82627   0.81839   0.00000  Uiso   1.00
O1124  O     0.85908   0.83575   0.82793   0.00000  Uiso   1.00
O1125  O     0.77142   0.75245   0.74413   0.00000  Uiso   1.00
O1126  O     0.87203   0.76193   0.75367   0.00000  Uiso   1.00
O1127  O     0.80758   0.83092   0.67207   0.00000  Uiso   1.00
O1128  O     0.90819   0.84040   0.68160   0.00000  Uiso   1.00
O1129  O     0.77696   0.98378   0.70876   0.00000  Uiso   1.00
C1130  C     0.81194   0.98472   0.65782   0.00000  Uiso   1.00
H1131  H     0.85273   0.96592   0.65439   0.00000  Uiso   1.00
H1132  H     0.82902   0.69228   0.64529   0.00000  Uiso   1.00
C1133  C     0.77058   0.95464   0.62197   0.00000  Uiso   1.00
H1134  H     0.73019   0.97326   0.62353   0.00000  Uiso   1.00
H1135  H     0.79793   0.95490   0.58185   0.00000  Uiso   1.00
H1136  H     0.75304   0.91341   0.63351   0.00000  Uiso   1.00
O1137  O     0.66728   0.86477   0.80861   0.00000  Uiso   1.00
C1138  C     0.99638   0.91753   0.81676   0.00000  Uiso   1.00
H1139  H     0.94713   0.92012   0.83049   0.00000  Uiso   1.00
H1140  H     0.68263   0.93985   0.78112   0.00000  Uiso   1.00
C1141  C     0.69946   0.94247   0.85797   0.00000  Uiso   1.00
H1142  H     0.68235   0.91995   0.89347   0.00000  Uiso   1.00
H1143  H     0.74994   0.94256   0.84448   0.00000  Uiso   1.00
H1144  H     0.69360   0.98346   0.86693   0.00000  Uiso   1.00
C1145  C     0.82862   0.76477   0.56854   0.00000  Uiso   1.00
H1146  H     0.86580   0.74809   0.57852   0.00000  Uiso   1.00
H1147  H     0.78594   0.75630   0.59928   0.00000  Uiso   1.00
H1148  H     0.81957   0.74411   0.53192   0.00000  Uiso   1.00
C1149  C     0.88875   0.68255   0.80260   0.00000  Uiso   1.00
H1150  H     0.90006   0.98755   0.82566   0.00000  Uiso   1.00
H1151  H     0.93360   0.70668   0.78281   0.00000  Uiso   1.00
H1152  H     0.86168   0.70716   0.83061   0.00000  Uiso   1.00
loop_
_geom_bond_atom_site_label_1
_geom_bond_atom_site_label_2
_geom_bond_distance
_geom_bond_site_symmetry_2
_ccdc_geom_bond_type
C1     O33     1.289   .     A
C1     O34     1.292   .     A
C1     C11     1.435   .     S
C2     C3      1.415   .     A
C2     C580    1.425   .     S
C2     C596    1.414   .     S
C3     C7      1.403   .     A
C3     C10     1.412   .     A
C4     C8      1.420   .     A
C4     C5      1.422   .     A
C4     C578    1.425   1_554 S
C5     C16     1.401   .     A
C5     C582    1.397   1_554 S
C6     C7      1.389   .     A
C6     H25     1.084   .     S
C6     C581    1.397   .     S
C7     H30     1.079   .     S
C8     C57     1.514   .     S
C8     C17     1.407   .     A
C9     C17     1.398   .     A
C9     C16     1.391   .     A
C9     H23     1.083   .     S
C10    C12     1.473   .     S
C10    C18     1.403   .     A
C11    C205    1.355   .     S
C11    C253    1.521   .     S
C12    O36     1.303   .     A
C12    O35     1.299   .     A
C13    C14     1.433   .     S
C13    C395    1.355   1_545 S
C13    O425    1.389   1_545 S
C14    O37     1.294   .     A
C14    O38     1.286   .     A
C15    O39     1.295   .     A
C15    O40     1.302   .     A
C15    C17     1.463   .     S
C16    H26     1.084   .     S
C18    C19     1.392   .     A
C18    H27     1.083   .     S
C19    C596    1.394   .     S
C19    H157    1.083   1_455 S
C20    H28     1.080   .     S
C20    C578    1.414   1_554 S
C20    C595    1.394   1_554 S
Cu21   O35     1.930   .     S
Cu21   O39     1.913   .     S
Cu21   N32     2.025   .     S
Cu21   O33     1.967   .     S
Cu21   O37     1.962   .     S
Cu21   Cu22    2.695   .     S
Cu22   O36     1.913   .     S
Cu22   O40     1.930   .     S
Cu22   O38     1.967   .     S
Cu22   O34     1.962   .     S
Cu22   N31     2.025   .     S
H24    N32     1.029   .     S
H29    C83     1.083   .     S
N31    N96     1.280   .     S
N31    O113    1.344   .     S
N32    N159    1.280   1_455 S
O41    C42     1.412   .     S
O41    C205    1.389   .     S
C42    H43     1.114   .     S
C42    C45     1.521   .     S
C42    H236    1.110   .     S
H44    C426    1.110   1_545 S
C45    H47     1.111   .     S
C45    H46     1.111   .     S
C45    H48     1.111   .     S
O49    N159    1.344   1_455 S
O49    C178    1.402   1_455 S
C50    H51     1.099   .     S
C50    O113    1.402   .     S
C50    H116    1.114   .     S
C50    C117    1.522   .     S
H52    C178    1.114   1_455 S
C53    H54     1.110   .     S
C53    H55     1.108   .     S
C53    H56     1.111   .     S
C53    C178    1.522   1_455 S
C57    H58     1.110   .     S
C57    H59     1.110   .     S
C57    H60     1.109   .     S
C61    H64     1.111   .     S
C61    H63     1.110   .     S
C61    C395    1.521   1_545 S
C61    H446    1.106   1_545 S
H62    C253    1.106   .     S
C65    O97     1.289   .     A
C65    O98     1.292   .     A
C65    C75     1.435   .     S
C66    C67     1.415   .     A
C66    C644    1.425   .     S
C66    C660    1.414   .     S
C67    C71     1.403   .     A
C67    C74     1.412   .     A
C68    C72     1.420   .     A
C68    C69     1.422   .     A
C68    C642    1.425   1_554 S
C69    C80     1.401   .     A
C69    C646    1.397   1_554 S
C70    C71     1.389   .     A
C70    H89     1.084   .     S
C70    C645    1.397   .     S
C71    H94     1.079   .     S
C72    C121    1.514   .     S
C72    C81     1.407   .     A
C73    C81     1.398   .     A
C73    C80     1.391   .     A
C73    H87     1.083   .     S
C74    C76     1.473   .     S
C74    C82     1.403   .     A
C75    C269    1.355   .     S
C75    C317    1.521   .     S
C76    O100    1.303   .     A
C76    O99     1.299   .     A
C77    C78     1.433   .     S
C77    C459    1.355   1_545 S
C77    O489    1.389   1_545 S
C78    O101    1.294   .     A
C78    O102    1.286   .     A
C79    O103    1.295   .     A
C79    O104    1.302   .     A
C79    C81     1.463   .     S
C80    H90     1.084   .     S
C82    C83     1.392   .     A
C82    H91     1.083   .     S
C83    C660    1.394   .     S
C84    H92     1.080   .     S
C84    C642    1.414   1_554 S
C84    C659    1.394   1_554 S
Cu85   O99     1.930   .     S
Cu85   O103    1.913   .     S
Cu85   N96     2.025   .     S
Cu85   O97     1.967   .     S
Cu85   O101    1.962   .     S
Cu85   Cu86    2.695   .     S
Cu86   O100    1.913   .     S
Cu86   O104    1.930   .     S
Cu86   O102    1.967   .     S
Cu86   O98     1.962   .     S
Cu86   N95     2.025   .     S
H88    N96     1.029   .     S
H93    C147    1.083   .     S
N95    N160    1.280   .     S
N95    O177    1.344   .     S
O105   C106    1.412   .     S
O105   C269    1.389   .     S
C106   H107    1.114   .     S
C106   C109    1.521   .     S
C106   H300    1.110   .     S
H108   C490    1.110   1_545 S
C109   H111    1.111   .     S
C109   H110    1.111   .     S
C109   H112    1.111   .     S
C114   H115    1.099   .     S
C114   O177    1.402   .     S
C114   H180    1.114   .     S
C114   C181    1.522   .     S
C117   H118    1.110   .     S
C117   H119    1.108   .     S
C117   H120    1.111   .     S
C121   H122    1.110   .     S
C121   H123    1.110   .     S
C121   H124    1.109   .     S
C125   H128    1.111   .     S
C125   H127    1.110   .     S
C125   C459    1.521   1_545 S
C125   H510    1.106   1_545 S
H126   C317    1.106   .     S
C129   O161    1.289   .     A
C129   O162    1.292   .     A
C129   C139    1.435   .     S
C130   C131    1.415   .     A
C130   C708    1.425   .     S
C130   C724    1.414   .     S
C131   C135    1.403   .     A
C131   C138    1.412   .     A
C132   C136    1.420   .     A
C132   C133    1.422   .     A
C132   C706    1.425   1_554 S
C133   C144    1.401   .     A
C133   C710    1.397   1_554 S
C134   C135    1.389   .     A
C134   H153    1.084   .     S
C134   C709    1.397   .     S
C135   H158    1.079   .     S
C136   C185    1.514   .     S
C136   C145    1.407   .     A
C137   C145    1.398   .     A
C137   C144    1.391   .     A
C137   H151    1.083   .     S
C138   C140    1.473   .     S
C138   C146    1.403   .     A
C139   C333    1.355   .     S
C139   C381    1.521   .     S
C140   O164    1.303   .     A
C140   O163    1.299   .     A
C141   C142    1.433   .     S
C141   C523    1.355   1_545 S
C141   O553    1.389   1_545 S
C142   O165    1.294   .     A
C142   O166    1.286   .     A
C143   O167    1.295   .     A
C143   O168    1.302   .     A
C143   C145    1.463   .     S
C144   H154    1.084   .     S
C146   C147    1.392   .     A
C146   H155    1.083   .     S
C147   C724    1.394   .     S
C148   H156    1.080   .     S
C148   C706    1.414   1_554 S
C148   C723    1.394   1_554 S
Cu149  O163    1.930   .     S
Cu149  O167    1.913   .     S
Cu149  N160    2.025   .     S
Cu149  O161    1.967   .     S
Cu149  O165    1.962   .     S
Cu149  Cu150   2.695   .     S
Cu150  O164    1.913   .     S
Cu150  O168    1.930   .     S
Cu150  O166    1.967   .     S
Cu150  O162    1.962   .     S
Cu150  N159    2.025   .     S
H152   N160    1.029   .     S
H157   C19     1.083   1_655 S
N159   N32     1.280   1_655 S
N159   O49     1.344   1_655 S
O169   C170    1.412   .     S
O169   C333    1.389   .     S
C170   H171    1.114   .     S
C170   C173    1.521   .     S
C170   H364    1.110   .     S
H172   C554    1.110   1_545 S
C173   H175    1.111   .     S
C173   H174    1.111   .     S
C173   H176    1.111   .     S
C178   H179    1.099   .     S
C178   O49     1.402   1_655 S
C178   H52     1.114   1_655 S
C178   C53     1.522   1_655 S
C181   H182    1.110   .     S
C181   H183    1.108   .     S
C181   H184    1.111   .     S
C185   H186    1.110   .     S
C185   H187    1.110   .     S
C185   H188    1.109   .     S
C189   H192    1.111   .     S
C189   H191    1.110   .     S
C189   C523    1.521   1_545 S
C189   H574    1.106   1_545 S
H190   C381    1.106   .     S
C193   O225    1.289   .     A
C193   O226    1.292   .     A
C193   C203    1.435   .     S
C194   C195    1.415   .     A
C194   C772    1.425   .     S
C194   C788    1.414   .     S
C195   C199    1.403   .     A
C195   C202    1.412   .     A
C196   C200    1.420   .     A
C196   C197    1.422   .     A
C196   C770    1.425   1_554 S
C197   C208    1.401   .     A
C197   C774    1.397   1_554 S
C198   C199    1.389   .     A
C198   H217    1.084   .     S
C198   C773    1.397   .     S
C199   H222    1.079   .     S
C200   C249    1.514   .     S
C200   C209    1.407   .     A
C201   C209    1.398   .     A
C201   C208    1.391   .     A
C201   H215    1.083   .     S
C202   C204    1.473   .     S
C202   C210    1.403   .     A
C203   C397    1.355   .     S
C203   C445    1.521   .     S
C204   O228    1.303   .     A
C204   O227    1.299   .     A
C205   C206    1.433   .     S
C206   O229    1.294   .     A
C206   O230    1.286   .     A
C207   O231    1.295   .     A
C207   O232    1.302   .     A
C207   C209    1.463   .     S
C208   H218    1.084   .     S
C210   C211    1.392   .     A
C210   H219    1.083   .     S
C211   C788    1.394   .     S
C211   H349    1.083   1_455 S
C212   H220    1.080   .     S
C212   C770    1.414   1_554 S
C212   C787    1.394   1_554 S
Cu213  O227    1.930   .     S
Cu213  O231    1.913   .     S
Cu213  N224    2.025   .     S
Cu213  O225    1.967   .     S
Cu213  O229    1.962   .     S
Cu213  Cu214   2.695   .     S
Cu214  O228    1.913   .     S
Cu214  O232    1.930   .     S
Cu214  O230    1.967   .     S
Cu214  O226    1.962   .     S
Cu214  N223    2.025   .     S
H216   N224    1.029   .     S
H221   C275    1.083   .     S
N223   N288    1.280   .     S
N223   O305    1.344   .     S
N224   N351    1.280   1_455 S
O233   C234    1.412   .     S
O233   C397    1.389   .     S
C234   H235    1.114   .     S
C234   C237    1.521   .     S
C234   H428    1.110   .     S
C237   H239    1.111   .     S
C237   H238    1.111   .     S
C237   H240    1.111   .     S
O241   N351    1.344   1_455 S
O241   C370    1.402   1_455 S
C242   H243    1.099   .     S
C242   O305    1.402   .     S
C242   H308    1.114   .     S
C242   C309    1.522   .     S
H244   C370    1.114   1_455 S
C245   H246    1.110   .     S
C245   H247    1.108   .     S
C245   H248    1.111   .     S
C245   C370    1.522   1_455 S
C249   H250    1.110   .     S
C249   H251    1.110   .     S
C249   H252    1.109   .     S
C253   H256    1.111   .     S
C253   H255    1.110   .     S
H254   C445    1.106   .     S
C257   O289    1.289   .     A
C257   O290    1.292   .     A
C257   C267    1.435   .     S
C258   C259    1.415   .     A
C258   C836    1.425   .     S
C258   C852    1.414   .     S
C259   C263    1.403   .     A
C259   C266    1.412   .     A
C260   C264    1.420   .     A
C260   C261    1.422   .     A
C260   C834    1.425   1_554 S
C261   C272    1.401   .     A
C261   C838    1.397   1_554 S
C262   C263    1.389   .     A
C262   H281    1.084   .     S
C262   C837    1.397   .     S
C263   H286    1.079   .     S
C264   C313    1.514   .     S
C264   C273    1.407   .     A
C265   C273    1.398   .     A
C265   C272    1.391   .     A
C265   H279    1.083   .     S
C266   C268    1.473   .     S
C266   C274    1.403   .     A
C267   C461    1.355   .     S
C267   C509    1.521   .     S
C268   O292    1.303   .     A
C268   O291    1.299   .     A
C269   C270    1.433   .     S
C270   O293    1.294   .     A
C270   O294    1.286   .     A
C271   O295    1.295   .     A
C271   O296    1.302   .     A
C271   C273    1.463   .     S
C272   H282    1.084   .     S
C274   C275    1.392   .     A
C274   H283    1.083   .     S
C275   C852    1.394   .     S
C276   H284    1.080   .     S
C276   C834    1.414   1_554 S
C276   C851    1.394   1_554 S
Cu277  O291    1.930   .     S
Cu277  O295    1.913   .     S
Cu277  N288    2.025   .     S
Cu277  O289    1.967   .     S
Cu277  O293    1.962   .     S
Cu277  Cu278   2.695   .     S
Cu278  O292    1.913   .     S
Cu278  O296    1.930   .     S
Cu278  O294    1.967   .     S
Cu278  O290    1.962   .     S
Cu278  N287    2.025   .     S
H280   N288    1.029   .     S
H285   C339    1.083   .     S
N287   N352    1.280   .     S
N287   O369    1.344   .     S
O297   C298    1.412   .     S
O297   C461    1.389   .     S
C298   H299    1.114   .     S
C298   C301    1.521   .     S
C298   H492    1.110   .     S
C301   H303    1.111   .     S
C301   H302    1.111   .     S
C301   H304    1.111   .     S
C306   H307    1.099   .     S
C306   O369    1.402   .     S
C306   H372    1.114   .     S
C306   C373    1.522   .     S
C309   H310    1.110   .     S
C309   H311    1.108   .     S
C309   H312    1.111   .     S
C313   H314    1.110   .     S
C313   H315    1.110   .     S
C313   H316    1.109   .     S
C317   H320    1.111   .     S
C317   H319    1.110   .     S
H318   C509    1.106   .     S
C321   O353    1.289   .     A
C321   O354    1.292   .     A
C321   C331    1.435   .     S
C322   C323    1.415   .     A
C322   C900    1.425   .     S
C322   C916    1.414   .     S
C323   C327    1.403   .     A
C323   C330    1.412   .     A
C324   C328    1.420   .     A
C324   C325    1.422   .     A
C324   C898    1.425   1_554 S
C325   C336    1.401   .     A
C325   C902    1.397   1_554 S
C326   C327    1.389   .     A
C326   H345    1.084   .     S
C326   C901    1.397   .     S
C327   H350    1.079   .     S
C328   C377    1.514   .     S
C328   C337    1.407   .     A
C329   C337    1.398   .     A
C329   C336    1.391   .     A
C329   H343    1.083   .     S
C330   C332    1.473   .     S
C330   C338    1.403   .     A
C331   C525    1.355   .     S
C331   C573    1.521   .     S
C332   O356    1.303   .     A
C332   O355    1.299   .     A
C333   C334    1.433   .     S
C334   O357    1.294   .     A
C334   O358    1.286   .     A
C335   O359    1.295   .     A
C335   O360    1.302   .     A
C335   C337    1.463   .     S
C336   H346    1.084   .     S
C338   C339    1.392   .     A
C338   H347    1.083   .     S
C339   C916    1.394   .     S
C340   H348    1.080   .     S
C340   C898    1.414   1_554 S
C340   C915    1.394   1_554 S
Cu341  O355    1.930   .     S
Cu341  O359    1.913   .     S
Cu341  N352    2.025   .     S
Cu341  O353    1.967   .     S
Cu341  O357    1.962   .     S
Cu341  Cu342   2.695   .     S
Cu342  O356    1.913   .     S
Cu342  O360    1.930   .     S
Cu342  O358    1.967   .     S
Cu342  O354    1.962   .     S
Cu342  N351    2.025   .     S
H344   N352    1.029   .     S
H349   C211    1.083   1_655 S
N351   N224    1.280   1_655 S
N351   O241    1.344   1_655 S
O361   C362    1.412   .     S
O361   C525    1.389   .     S
C362   H363    1.114   .     S
C362   C365    1.521   .     S
C362   H556    1.110   .     S
C365   H367    1.111   .     S
C365   H366    1.111   .     S
C365   H368    1.111   .     S
C370   H371    1.099   .     S
C370   O241    1.402   1_655 S
C370   H244    1.114   1_655 S
C370   C245    1.522   1_655 S
C373   H374    1.110   .     S
C373   H375    1.108   .     S
C373   H376    1.111   .     S
C377   H378    1.110   .     S
C377   H379    1.110   .     S
C377   H380    1.109   .     S
C381   H384    1.111   .     S
C381   H383    1.110   .     S
H382   C573    1.106   .     S
C385   O417    1.289   .     A
C385   O418    1.292   .     A
C385   C395    1.435   .     S
C386   C387    1.415   .     A
C386   C964    1.425   .     S
C386   C980    1.414   .     S
C387   C391    1.403   .     A
C387   C394    1.412   .     A
C388   C392    1.420   .     A
C388   C389    1.422   .     A
C388   C962    1.425   1_554 S
C389   C400    1.401   .     A
C389   C966    1.397   1_554 S
C390   C391    1.389   .     A
C390   H409    1.084   .     S
C390   C965    1.397   .     S
C391   H414    1.079   .     S
C392   C441    1.514   .     S
C392   C401    1.407   .     A
C393   C401    1.398   .     A
C393   C400    1.391   .     A
C393   H407    1.083   .     S
C394   C396    1.473   .     S
C394   C402    1.403   .     A
C395   C13     1.355   1_565 S
C395   C61     1.521   1_565 S
C396   O420    1.303   .     A
C396   O419    1.299   .     A
C397   C398    1.433   .     S
C398   O421    1.294   .     A
C398   O422    1.286   .     A
C399   O423    1.295   .     A
C399   O424    1.302   .     A
C399   C401    1.463   .     S
C400   H410    1.084   .     S
C402   C403    1.392   .     A
C402   H411    1.083   .     S
C403   C980    1.394   .     S
C403   H541    1.083   1_455 S
C404   H412    1.080   .     S
C404   C962    1.414   1_554 S
C404   C979    1.394   1_554 S
Cu405  O419    1.930   .     S
Cu405  O423    1.913   .     S
Cu405  N416    2.025   .     S
Cu405  O417    1.967   .     S
Cu405  O421    1.962   .     S
Cu405  Cu406   2.695   .     S
Cu406  O420    1.913   .     S
Cu406  O424    1.930   .     S
Cu406  O422    1.967   .     S
Cu406  O418    1.962   .     S
Cu406  N415    2.025   .     S
H408   N416    1.029   .     S
H413   C467    1.083   .     S
N415   N480    1.280   .     S
N415   O497    1.344   .     S
N416   N543    1.280   1_455 S
O425   C426    1.412   .     S
O425   C13     1.389   1_565 S
C426   H427    1.114   .     S
C426   C429    1.521   .     S
C426   H44     1.110   1_565 S
C429   H431    1.111   .     S
C429   H430    1.111   .     S
C429   H432    1.111   .     S
O433   N543    1.344   1_455 S
O433   C562    1.402   1_455 S
C434   H435    1.099   .     S
C434   O497    1.402   .     S
C434   H500    1.114   .     S
C434   C501    1.522   .     S
H436   C562    1.114   1_455 S
C437   H438    1.110   .     S
C437   H439    1.108   .     S
C437   H440    1.111   .     S
C437   C562    1.522   1_455 S
C441   H442    1.110   .     S
C441   H443    1.110   .     S
C441   H444    1.109   .     S
C445   H448    1.111   .     S
C445   H447    1.110   .     S
H446   C61     1.106   1_565 S
C449   O481    1.289   .     A
C449   O482    1.292   .     A
C449   C459    1.435   .     S
C450   C451    1.415   .     A
C450   C1028   1.425   .     S
C450   C1044   1.414   .     S
C451   C455    1.403   .     A
C451   C458    1.412   .     A
C452   C456    1.420   .     A
C452   C453    1.422   .     A
C452   C1026   1.425   1_554 S
C453   C464    1.401   .     A
C453   C1030   1.397   1_554 S
C454   C455    1.389   .     A
C454   H473    1.084   .     S
C454   C1029   1.397   .     S
C455   H478    1.079   .     S
C456   C505    1.514   .     S
C456   C465    1.407   .     A
C457   C465    1.398   .     A
C457   C464    1.391   .     A
C457   H471    1.083   .     S
C458   C460    1.473   .     S
C458   C466    1.403   .     A
C459   C77     1.355   1_565 S
C459   C125    1.521   1_565 S
C460   O484    1.303   .     A
C460   O483    1.299   .     A
C461   C462    1.433   .     S
C462   O485    1.294   .     A
C462   O486    1.286   .     A
C463   O487    1.295   .     A
C463   O488    1.302   .     A
C463   C465    1.463   .     S
C464   H474    1.084   .     S
C466   C467    1.392   .     A
C466   H475    1.083   .     S
C467   C1044   1.394   .     S
C468   H476    1.080   .     S
C468   C1026   1.414   1_554 S
C468   C1043   1.394   1_554 S
Cu469  O483    1.930   .     S
Cu469  O487    1.913   .     S
Cu469  N480    2.025   .     S
Cu469  O481    1.967   .     S
Cu469  O485    1.962   .     S
Cu469  Cu470   2.695   .     S
Cu470  O484    1.913   .     S
Cu470  O488    1.930   .     S
Cu470  O486    1.967   .     S
Cu470  O482    1.962   .     S
Cu470  N479    2.025   .     S
H472   N480    1.029   .     S
H477   C531    1.083   .     S
N479   N544    1.280   .     S
N479   O561    1.344   .     S
O489   C490    1.412   .     S
O489   C77     1.389   1_565 S
C490   H491    1.114   .     S
C490   C493    1.521   .     S
C490   H108    1.110   1_565 S
C493   H495    1.111   .     S
C493   H494    1.111   .     S
C493   H496    1.111   .     S
C498   H499    1.099   .     S
C498   O561    1.402   .     S
C498   H564    1.114   .     S
C498   C565    1.522   .     S
C501   H502    1.110   .     S
C501   H503    1.108   .     S
C501   H504    1.111   .     S
C505   H506    1.110   .     S
C505   H507    1.110   .     S
C505   H508    1.109   .     S
C509   H512    1.111   .     S
C509   H511    1.110   .     S
H510   C125    1.106   1_565 S
C513   O545    1.289   .     A
C513   O546    1.292   .     A
C513   C523    1.435   .     S
C514   C515    1.415   .     A
C514   C1092   1.425   .     S
C514   C1108   1.414   .     S
C515   C519    1.403   .     A
C515   C522    1.412   .     A
C516   C520    1.420   .     A
C516   C517    1.422   .     A
C516   C1090   1.425   1_554 S
C517   C528    1.401   .     A
C517   C1094   1.397   1_554 S
C518   C519    1.389   .     A
C518   H537    1.084   .     S
C518   C1093   1.397   .     S
C519   H542    1.079   .     S
C520   C569    1.514   .     S
C520   C529    1.407   .     A
C521   C529    1.398   .     A
C521   C528    1.391   .     A
C521   H535    1.083   .     S
C522   C524    1.473   .     S
C522   C530    1.403   .     A
C523   C141    1.355   1_565 S
C523   C189    1.521   1_565 S
C524   O548    1.303   .     A
C524   O547    1.299   .     A
C525   C526    1.433   .     S
C526   O549    1.294   .     A
C526   O550    1.286   .     A
C527   O551    1.295   .     A
C527   O552    1.302   .     A
C527   C529    1.463   .     S
C528   H538    1.084   .     S
C530   C531    1.392   .     A
C530   H539    1.083   .     S
C531   C1108   1.394   .     S
C532   H540    1.080   .     S
C532   C1090   1.414   1_554 S
C532   C1107   1.394   1_554 S
Cu533  O547    1.930   .     S
Cu533  O551    1.913   .     S
Cu533  N544    2.025   .     S
Cu533  O545    1.967   .     S
Cu533  O549    1.962   .     S
Cu533  Cu534   2.695   .     S
Cu534  O548    1.913   .     S
Cu534  O552    1.930   .     S
Cu534  O550    1.967   .     S
Cu534  O546    1.962   .     S
Cu534  N543    2.025   .     S
H536   N544    1.029   .     S
H541   C403    1.083   1_655 S
N543   N416    1.280   1_655 S
N543   O433    1.344   1_655 S
O553   C554    1.412   .     S
O553   C141    1.389   1_565 S
C554   H555    1.114   .     S
C554   C557    1.521   .     S
C554   H172    1.110   1_565 S
C557   H559    1.111   .     S
C557   H558    1.111   .     S
C557   H560    1.111   .     S
C562   H563    1.099   .     S
C562   O433    1.402   1_655 S
C562   H436    1.114   1_655 S
C562   C437    1.522   1_655 S
C565   H566    1.110   .     S
C565   H567    1.108   .     S
C565   H568    1.111   .     S
C569   H570    1.110   .     S
C569   H571    1.110   .     S
C569   H572    1.109   .     S
C573   H576    1.111   .     S
C573   H575    1.110   .     S
H574   C189    1.106   1_565 S
C577   O609    1.289   .     A
C577   O610    1.292   .     A
C577   C587    1.435   .     S
C578   C579    1.415   .     A
C578   C4      1.425   1_556 S
C578   C20     1.414   1_556 S
C579   C583    1.403   .     A
C579   C586    1.412   .     A
C580   C584    1.420   .     A
C580   C581    1.422   .     A
C581   C592    1.401   .     A
C582   C583    1.389   .     A
C582   H601    1.084   .     S
C582   C5      1.397   1_556 S
C583   H606    1.079   .     S
C584   C633    1.514   .     S
C584   C593    1.407   .     A
C585   C593    1.398   .     A
C585   C592    1.391   .     A
C585   H599    1.083   .     S
C586   C588    1.473   .     S
C586   C594    1.403   .     A
C587   C781    1.355   .     S
C587   C829    1.521   .     S
C588   O612    1.303   .     A
C588   O611    1.299   .     A
C589   C590    1.433   .     S
C589   C971    1.355   1_545 S
C589   O1001   1.389   1_545 S
C590   O613    1.294   .     A
C590   O614    1.286   .     A
C591   O615    1.295   .     A
C591   O616    1.302   .     A
C591   C593    1.463   .     S
C592   H602    1.084   .     S
C594   C595    1.392   .     A
C594   H603    1.083   .     S
C595   C20     1.394   1_556 S
C595   H733    1.083   1_455 S
C596   H604    1.080   .     S
Cu597  O611    1.930   .     S
Cu597  O615    1.913   .     S
Cu597  N608    2.025   .     S
Cu597  O609    1.967   .     S
Cu597  O613    1.962   .     S
Cu597  Cu598   2.695   .     S
Cu598  O612    1.913   .     S
Cu598  O616    1.930   .     S
Cu598  O614    1.967   .     S
Cu598  O610    1.962   .     S
Cu598  N607    2.025   .     S
H600   N608    1.029   .     S
H605   C659    1.083   .     S
N607   N672    1.280   .     S
N607   O689    1.344   .     S
N608   N735    1.280   1_455 S
O617   C618    1.412   .     S
O617   C781    1.389   .     S
C618   H619    1.114   .     S
C618   C621    1.521   .     S
C618   H812    1.110   .     S
H620   C1002   1.110   1_545 S
C621   H623    1.111   .     S
C621   H622    1.111   .     S
C621   H624    1.111   .     S
O625   N735    1.344   1_455 S
O625   C754    1.402   1_455 S
C626   H627    1.099   .     S
C626   O689    1.402   .     S
C626   H692    1.114   .     S
C626   C693    1.522   .     S
H628   C754    1.114   1_455 S
C629   H630    1.110   .     S
C629   H631    1.108   .     S
C629   H632    1.111   .     S
C629   C754    1.522   1_455 S
C633   H634    1.110   .     S
C633   H635    1.110   .     S
C633   H636    1.109   .     S
C637   H640    1.111   .     S
C637   H639    1.110   .     S
C637   C971    1.521   1_545 S
C637   H1022   1.106   1_545 S
H638   C829    1.106   .     S
C641   O673    1.289   .     A
C641   O674    1.292   .     A
C641   C651    1.435   .     S
C642   C643    1.415   .     A
C642   C68     1.425   1_556 S
C642   C84     1.414   1_556 S
C643   C647    1.403   .     A
C643   C650    1.412   .     A
C644   C648    1.420   .     A
C644   C645    1.422   .     A
C645   C656    1.401   .     A
C646   C647    1.389   .     A
C646   H665    1.084   .     S
C646   C69     1.397   1_556 S
C647   H670    1.079   .     S
C648   C697    1.514   .     S
C648   C657    1.407   .     A
C649   C657    1.398   .     A
C649   C656    1.391   .     A
C649   H663    1.083   .     S
C650   C652    1.473   .     S
C650   C658    1.403   .     A
C651   C845    1.355   .     S
C651   C893    1.521   .     S
C652   O676    1.303   .     A
C652   O675    1.299   .     A
C653   C654    1.433   .     S
C653   C1035   1.355   1_545 S
C653   O1065   1.389   1_545 S
C654   O677    1.294   .     A
C654   O678    1.286   .     A
C655   O679    1.295   .     A
C655   O680    1.302   .     A
C655   C657    1.463   .     S
C656   H666    1.084   .     S
C658   C659    1.392   .     A
C658   H667    1.083   .     S
C659   C84     1.394   1_556 S
C660   H668    1.080   .     S
Cu661  O675    1.930   .     S
Cu661  O679    1.913   .     S
Cu661  N672    2.025   .     S
Cu661  O673    1.967   .     S
Cu661  O677    1.962   .     S
Cu661  Cu662   2.695   .     S
Cu662  O676    1.913   .     S
Cu662  O680    1.930   .     S
Cu662  O678    1.967   .     S
Cu662  O674    1.962   .     S
Cu662  N671    2.025   .     S
H664   N672    1.029   .     S
H669   C723    1.083   .     S
N671   N736    1.280   .     S
N671   O753    1.344   .     S
O681   C682    1.412   .     S
O681   C845    1.389   .     S
C682   H683    1.114   .     S
C682   C685    1.521   .     S
C682   H876    1.110   .     S
H684   C1066   1.110   1_545 S
C685   H687    1.111   .     S
C685   H686    1.111   .     S
C685   H688    1.111   .     S
C690   H691    1.099   .     S
C690   O753    1.402   .     S
C690   H756    1.114   .     S
C690   C757    1.522   .     S
C693   H694    1.110   .     S
C693   H695    1.108   .     S
C693   H696    1.111   .     S
C697   H698    1.110   .     S
C697   H699    1.110   .     S
C697   H700    1.109   .     S
C701   H704    1.111   .     S
C701   H703    1.110   .     S
C701   C1035   1.521   1_545 S
C701   H1086   1.106   1_545 S
H702   C893    1.106   .     S
C705   O737    1.289   .     A
C705   O738    1.292   .     A
C705   C715    1.435   .     S
C706   C707    1.415   .     A
C706   C132    1.425   1_556 S
C706   C148    1.414   1_556 S
C707   C711    1.403   .     A
C707   C714    1.412   .     A
C708   C712    1.420   .     A
C708   C709    1.422   .     A
C709   C720    1.401   .     A
C710   C711    1.389   .     A
C710   H729    1.084   .     S
C710   C133    1.397   1_556 S
C711   H734    1.079   .     S
C712   C761    1.514   .     S
C712   C721    1.407   .     A
C713   C721    1.398   .     A
C713   C720    1.391   .     A
C713   H727    1.083   .     S
C714   C716    1.473   .     S
C714   C722    1.403   .     A
C715   C909    1.355   .     S
C715   C957    1.521   .     S
C716   O740    1.303   .     A
C716   O739    1.299   .     A
C717   C718    1.433   .     S
C717   C1099   1.355   1_545 S
C717   O1129   1.389   1_545 S
C718   O741    1.294   .     A
C718   O742    1.286   .     A
C719   O743    1.295   .     A
C719   O744    1.302   .     A
C719   C721    1.463   .     S
C720   H730    1.084   .     S
C722   C723    1.392   .     A
C722   H731    1.083   .     S
C723   C148    1.394   1_556 S
C724   H732    1.080   .     S
Cu725  O739    1.930   .     S
Cu725  O743    1.913   .     S
Cu725  N736    2.025   .     S
Cu725  O737    1.967   .     S
Cu725  O741    1.962   .     S
Cu725  Cu726   2.695   .     S
Cu726  O740    1.913   .     S
Cu726  O744    1.930   .     S
Cu726  O742    1.967   .     S
Cu726  O738    1.962   .     S
Cu726  N735    2.025   .     S
H728   N736    1.029   .     S
H733   C595    1.083   1_655 S
N735   N608    1.280   1_655 S
N735   O625    1.344   1_655 S
O745   C746    1.412   .     S
O745   C909    1.389   .     S
C746   H747    1.114   .     S
C746   C749    1.521   .     S
C746   H940    1.110   .     S
H748   C1130   1.110   1_545 S
C749   H751    1.111   .     S
C749   H750    1.111   .     S
C749   H752    1.111   .     S
C754   H755    1.099   .     S
C754   O625    1.402   1_655 S
C754   H628    1.114   1_655 S
C754   C629    1.522   1_655 S
C757   H758    1.110   .     S
C757   H759    1.108   .     S
C757   H760    1.111   .     S
C761   H762    1.110   .     S
C761   H763    1.110   .     S
C761   H764    1.109   .     S
C765   H768    1.111   .     S
C765   H767    1.110   .     S
C765   C1099   1.521   1_545 S
C765   H1150   1.106   1_545 S
H766   C957    1.106   .     S
C769   O801    1.289   .     A
C769   O802    1.292   .     A
C769   C779    1.435   .     S
C770   C771    1.415   .     A
C770   C196    1.425   1_556 S
C770   C212    1.414   1_556 S
C771   C775    1.403   .     A
C771   C778    1.412   .     A
C772   C776    1.420   .     A
C772   C773    1.422   .     A
C773   C784    1.401   .     A
C774   C775    1.389   .     A
C774   H793    1.084   .     S
C774   C197    1.397   1_556 S
C775   H798    1.079   .     S
C776   C825    1.514   .     S
C776   C785    1.407   .     A
C777   C785    1.398   .     A
C777   C784    1.391   .     A
C777   H791    1.083   .     S
C778   C780    1.473   .     S
C778   C786    1.403   .     A
C779   C973    1.355   .     S
C779   C1021   1.521   .     S
C780   O804    1.303   .     A
C780   O803    1.299   .     A
C781   C782    1.433   .     S
C782   O805    1.294   .     A
C782   O806    1.286   .     A
C783   O807    1.295   .     A
C783   O808    1.302   .     A
C783   C785    1.463   .     S
C784   H794    1.084   .     S
C786   C787    1.392   .     A
C786   H795    1.083   .     S
C787   C212    1.394   1_556 S
C787   H925    1.083   1_455 S
C788   H796    1.080   .     S
Cu789  O803    1.930   .     S
Cu789  O807    1.913   .     S
Cu789  N800    2.025   .     S
Cu789  O801    1.967   .     S
Cu789  O805    1.962   .     S
Cu789  Cu790   2.695   .     S
Cu790  O804    1.913   .     S
Cu790  O808    1.930   .     S
Cu790  O806    1.967   .     S
Cu790  O802    1.962   .     S
Cu790  N799    2.025   .     S
H792   N800    1.029   .     S
H797   C851    1.083   .     S
N799   N864    1.280   .     S
N799   O881    1.344   .     S
N800   N927    1.280   1_455 S
O809   C810    1.412   .     S
O809   C973    1.389   .     S
C810   H811    1.114   .     S
C810   C813    1.521   .     S
C810   H1004   1.110   .     S
C813   H815    1.111   .     S
C813   H814    1.111   .     S
C813   H816    1.111   .     S
O817   N927    1.344   1_455 S
O817   C946    1.402   1_455 S
C818   H819    1.099   .     S
C818   O881    1.402   .     S
C818   H884    1.114   .     S
C818   C885    1.522   .     S
H820   C946    1.114   1_455 S
C821   H822    1.110   .     S
C821   H823    1.108   .     S
C821   H824    1.111   .     S
C821   C946    1.522   1_455 S
C825   H826    1.110   .     S
C825   H827    1.110   .     S
C825   H828    1.109   .     S
C829   H832    1.111   .     S
C829   H831    1.110   .     S
H830   C1021   1.106   .     S
C833   O865    1.289   .     A
C833   O866    1.292   .     A
C833   C843    1.435   .     S
C834   C835    1.415   .     A
C834   C260    1.425   1_556 S
C834   C276    1.414   1_556 S
C835   C839    1.403   .     A
C835   C842    1.412   .     A
C836   C840    1.420   .     A
C836   C837    1.422   .     A
C837   C848    1.401   .     A
C838   C839    1.389   .     A
C838   H857    1.084   .     S
C838   C261    1.397   1_556 S
C839   H862    1.079   .     S
C840   C889    1.514   .     S
C840   C849    1.407   .     A
C841   C849    1.398   .     A
C841   C848    1.391   .     A
C841   H855    1.083   .     S
C842   C844    1.473   .     S
C842   C850    1.403   .     A
C843   C1037   1.355   .     S
C843   C1085   1.521   .     S
C844   O868    1.303   .     A
C844   O867    1.299   .     A
C845   C846    1.433   .     S
C846   O869    1.294   .     A
C846   O870    1.286   .     A
C847   O871    1.295   .     A
C847   O872    1.302   .     A
C847   C849    1.463   .     S
C848   H858    1.084   .     S
C850   C851    1.392   .     A
C850   H859    1.083   .     S
C851   C276    1.394   1_556 S
C852   H860    1.080   .     S
Cu853  O867    1.930   .     S
Cu853  O871    1.913   .     S
Cu853  N864    2.025   .     S
Cu853  O865    1.967   .     S
Cu853  O869    1.962   .     S
Cu853  Cu854   2.695   .     S
Cu854  O868    1.913   .     S
Cu854  O872    1.930   .     S
Cu854  O870    1.967   .     S
Cu854  O866    1.962   .     S
Cu854  N863    2.025   .     S
H856   N864    1.029   .     S
H861   C915    1.083   .     S
N863   N928    1.280   .     S
N863   O945    1.344   .     S
O873   C874    1.412   .     S
O873   C1037   1.389   .     S
C874   H875    1.114   .     S
C874   C877    1.521   .     S
C874   H1068   1.110   .     S
C877   H879    1.111   .     S
C877   H878    1.111   .     S
C877   H880    1.111   .     S
C882   H883    1.099   .     S
C882   O945    1.402   .     S
C882   H948    1.114   .     S
C882   C949    1.522   .     S
C885   H886    1.110   .     S
C885   H887    1.108   .     S
C885   H888    1.111   .     S
C889   H890    1.110   .     S
C889   H891    1.110   .     S
C889   H892    1.109   .     S
C893   H896    1.111   .     S
C893   H895    1.110   .     S
H894   C1085   1.106   .     S
C897   O929    1.289   .     A
C897   O930    1.292   .     A
C897   C907    1.435   .     S
C898   C899    1.415   .     A
C898   C324    1.425   1_556 S
C898   C340    1.414   1_556 S
C899   C903    1.403   .     A
C899   C906    1.412   .     A
C900   C904    1.420   .     A
C900   C901    1.422   .     A
C901   C912    1.401   .     A
C902   C903    1.389   .     A
C902   H921    1.084   .     S
C902   C325    1.397   1_556 S
C903   H926    1.079   .     S
C904   C953    1.514   .     S
C904   C913    1.407   .     A
C905   C913    1.398   .     A
C905   C912    1.391   .     A
C905   H919    1.083   .     S
C906   C908    1.473   .     S
C906   C914    1.403   .     A
C907   C1101   1.355   .     S
C907   C1149   1.521   .     S
C908   O932    1.303   .     A
C908   O931    1.299   .     A
C909   C910    1.433   .     S
C910   O933    1.294   .     A
C910   O934    1.286   .     A
C911   O935    1.295   .     A
C911   O936    1.302   .     A
C911   C913    1.463   .     S
C912   H922    1.084   .     S
C914   C915    1.392   .     A
C914   H923    1.083   .     S
C915   C340    1.394   1_556 S
C916   H924    1.080   .     S
Cu917  O931    1.930   .     S
Cu917  O935    1.913   .     S
Cu917  N928    2.025   .     S
Cu917  O929    1.967   .     S
Cu917  O933    1.962   .     S
Cu917  Cu918   2.695   .     S
Cu918  O932    1.913   .     S
Cu918  O936    1.930   .     S
Cu918  O934    1.967   .     S
Cu918  O930    1.962   .     S
Cu918  N927    2.025   .     S
H920   N928    1.029   .     S
H925   C787    1.083   1_655 S
N927   N800    1.280   1_655 S
N927   O817    1.344   1_655 S
O937   C938    1.412   .     S
O937   C1101   1.389   .     S
C938   H939    1.114   .     S
C938   C941    1.521   .     S
C938   H1132   1.110   .     S
C941   H943    1.111   .     S
C941   H942    1.111   .     S
C941   H944    1.111   .     S
C946   H947    1.099   .     S
C946   O817    1.402   1_655 S
C946   H820    1.114   1_655 S
C946   C821    1.522   1_655 S
C949   H950    1.110   .     S
C949   H951    1.108   .     S
C949   H952    1.111   .     S
C953   H954    1.110   .     S
C953   H955    1.110   .     S
C953   H956    1.109   .     S
C957   H960    1.111   .     S
C957   H959    1.110   .     S
H958   C1149   1.106   .     S
C961   O993    1.289   .     A
C961   O994    1.292   .     A
C961   C971    1.435   .     S
C962   C963    1.415   .     A
C962   C388    1.425   1_556 S
C962   C404    1.414   1_556 S
C963   C967    1.403   .     A
C963   C970    1.412   .     A
C964   C968    1.420   .     A
C964   C965    1.422   .     A
C965   C976    1.401   .     A
C966   C967    1.389   .     A
C966   H985    1.084   .     S
C966   C389    1.397   1_556 S
C967   H990    1.079   .     S
C968   C1017   1.514   .     S
C968   C977    1.407   .     A
C969   C977    1.398   .     A
C969   C976    1.391   .     A
C969   H983    1.083   .     S
C970   C972    1.473   .     S
C970   C978    1.403   .     A
C971   C589    1.355   1_565 S
C971   C637    1.521   1_565 S
C972   O996    1.303   .     A
C972   O995    1.299   .     A
C973   C974    1.433   .     S
C974   O997    1.294   .     A
C974   O998    1.286   .     A
C975   O999    1.295   .     A
C975   O1000   1.302   .     A
C975   C977    1.463   .     S
C976   H986    1.084   .     S
C978   C979    1.392   .     A
C978   H987    1.083   .     S
C979   C404    1.394   1_556 S
C979   H1117   1.083   1_455 S
C980   H988    1.080   .     S
Cu981  O995    1.930   .     S
Cu981  O999    1.913   .     S
Cu981  N992    2.025   .     S
Cu981  O993    1.967   .     S
Cu981  O997    1.962   .     S
Cu981  Cu982   2.695   .     S
Cu982  O996    1.913   .     S
Cu982  O1000   1.930   .     S
Cu982  O998    1.967   .     S
Cu982  O994    1.962   .     S
Cu982  N991    2.025   .     S
H984   N992    1.029   .     S
H989   C1043   1.083   .     S
N991   N1056   1.280   .     S
N991   O1073   1.344   .     S
N992   N1119   1.280   1_455 S
O1001  C1002   1.412   .     S
O1001  C589    1.389   1_565 S
C1002  H1003   1.114   .     S
C1002  C1005   1.521   .     S
C1002  H620    1.110   1_565 S
C1005  H1007   1.111   .     S
C1005  H1006   1.111   .     S
C1005  H1008   1.111   .     S
O1009  N1119   1.344   1_455 S
O1009  C1138   1.402   1_455 S
C1010  H1011   1.099   .     S
C1010  O1073   1.402   .     S
C1010  H1076   1.114   .     S
C1010  C1077   1.522   .     S
H1012  C1138   1.114   1_455 S
C1013  H1014   1.110   .     S
C1013  H1015   1.108   .     S
C1013  H1016   1.111   .     S
C1013  C1138   1.522   1_455 S
C1017  H1018   1.110   .     S
C1017  H1019   1.110   .     S
C1017  H1020   1.109   .     S
C1021  H1024   1.111   .     S
C1021  H1023   1.110   .     S
H1022  C637    1.106   1_565 S
C1025  O1057   1.289   .     A
C1025  O1058   1.292   .     A
C1025  C1035   1.435   .     S
C1026  C1027   1.415   .     A
C1026  C452    1.425   1_556 S
C1026  C468    1.414   1_556 S
C1027  C1031   1.403   .     A
C1027  C1034   1.412   .     A
C1028  C1032   1.420   .     A
C1028  C1029   1.422   .     A
C1029  C1040   1.401   .     A
C1030  C1031   1.389   .     A
C1030  H1049   1.084   .     S
C1030  C453    1.397   1_556 S
C1031  H1054   1.079   .     S
C1032  C1081   1.514   .     S
C1032  C1041   1.407   .     A
C1033  C1041   1.398   .     A
C1033  C1040   1.391   .     A
C1033  H1047   1.083   .     S
C1034  C1036   1.473   .     S
C1034  C1042   1.403   .     A
C1035  C653    1.355   1_565 S
C1035  C701    1.521   1_565 S
C1036  O1060   1.303   .     A
C1036  O1059   1.299   .     A
C1037  C1038   1.433   .     S
C1038  O1061   1.294   .     A
C1038  O1062   1.286   .     A
C1039  O1063   1.295   .     A
C1039  O1064   1.302   .     A
C1039  C1041   1.463   .     S
C1040  H1050   1.084   .     S
C1042  C1043   1.392   .     A
C1042  H1051   1.083   .     S
C1043  C468    1.394   1_556 S
C1044  H1052   1.080   .     S
Cu1045 O1059   1.930   .     S
Cu1045 O1063   1.913   .     S
Cu1045 N1056   2.025   .     S
Cu1045 O1057   1.967   .     S
Cu1045 O1061   1.962   .     S
Cu1045 Cu1046  2.695   .     S
Cu1046 O1060   1.913   .     S
Cu1046 O1064   1.930   .     S
Cu1046 O1062   1.967   .     S
Cu1046 O1058   1.962   .     S
Cu1046 N1055   2.025   .     S
H1048  N1056   1.029   .     S
H1053  C1107   1.083   .     S
N1055  N1120   1.280   .     S
N1055  O1137   1.344   .     S
O1065  C1066   1.412   .     S
O1065  C653    1.389   1_565 S
C1066  H1067   1.114   .     S
C1066  C1069   1.521   .     S
C1066  H684    1.110   1_565 S
C1069  H1071   1.111   .     S
C1069  H1070   1.111   .     S
C1069  H1072   1.111   .     S
C1074  H1075   1.099   .     S
C1074  O1137   1.402   .     S
C1074  H1140   1.114   .     S
C1074  C1141   1.522   .     S
C1077  H1078   1.110   .     S
C1077  H1079   1.108   .     S
C1077  H1080   1.111   .     S
C1081  H1082   1.110   .     S
C1081  H1083   1.110   .     S
C1081  H1084   1.109   .     S
C1085  H1088   1.111   .     S
C1085  H1087   1.110   .     S
H1086  C701    1.106   1_565 S
C1089  O1121   1.289   .     A
C1089  O1122   1.292   .     A
C1089  C1099   1.435   .     S
C1090  C1091   1.415   .     A
C1090  C516    1.425   1_556 S
C1090  C532    1.414   1_556 S
C1091  C1095   1.403   .     A
C1091  C1098   1.412   .     A
C1092  C1096   1.420   .     A
C1092  C1093   1.422   .     A
C1093  C1104   1.401   .     A
C1094  C1095   1.389   .     A
C1094  H1113   1.084   .     S
C1094  C517    1.397   1_556 S
C1095  H1118   1.079   .     S
C1096  C1145   1.514   .     S
C1096  C1105   1.407   .     A
C1097  C1105   1.398   .     A
C1097  C1104   1.391   .     A
C1097  H1111   1.083   .     S
C1098  C1100   1.473   .     S
C1098  C1106   1.403   .     A
C1099  C717    1.355   1_565 S
C1099  C765    1.521   1_565 S
C1100  O1124   1.303   .     A
C1100  O1123   1.299   .     A
C1101  C1102   1.433   .     S
C1102  O1125   1.294   .     A
C1102  O1126   1.286   .     A
C1103  O1127   1.295   .     A
C1103  O1128   1.302   .     A
C1103  C1105   1.463   .     S
C1104  H1114   1.084   .     S
C1106  C1107   1.392   .     A
C1106  H1115   1.083   .     S
C1107  C532    1.394   1_556 S
C1108  H1116   1.080   .     S
Cu1109 O1123   1.930   .     S
Cu1109 O1127   1.913   .     S
Cu1109 N1120   2.025   .     S
Cu1109 O1121   1.967   .     S
Cu1109 O1125   1.962   .     S
Cu1109 Cu1110  2.695   .     S
Cu1110 O1124   1.913   .     S
Cu1110 O1128   1.930   .     S
Cu1110 O1126   1.967   .     S
Cu1110 O1122   1.962   .     S
Cu1110 N1119   2.025   .     S
H1112  N1120   1.029   .     S
H1117  C979    1.083   1_655 S
N1119  N992    1.280   1_655 S
N1119  O1009   1.344   1_655 S
O1129  C1130   1.412   .     S
O1129  C717    1.389   1_565 S
C1130  H1131   1.114   .     S
C1130  C1133   1.521   .     S
C1130  H748    1.110   1_565 S
C1133  H1135   1.111   .     S
C1133  H1134   1.111   .     S
C1133  H1136   1.111   .     S
C1138  H1139   1.099   .     S
C1138  O1009   1.402   1_655 S
C1138  H1012   1.114   1_655 S
C1138  C1013   1.522   1_655 S
C1141  H1142   1.110   .     S
C1141  H1143   1.108   .     S
C1141  H1144   1.111   .     S
C1145  H1146   1.110   .     S
C1145  H1147   1.110   .     S
C1145  H1148   1.109   .     S
C1149  H1152   1.111   .     S
C1149  H1151   1.110   .     S
H1150  C765    1.106   1_565 S
