data_str_m2_o1_o17_pcu_sym.118
_audit_creation_date              2020-01-03
_audit_creation_method            'Materials Studio'
_symmetry_space_group_name_H-M    'P1'
_symmetry_Int_Tables_number       1
_symmetry_cell_setting            triclinic
loop_
_symmetry_equiv_pos_as_xyz
  x,y,z
_cell_length_a                    32.7753
_cell_length_b                    29.0241
_cell_length_c                    30.0360
_cell_angle_alpha                 89.3605
_cell_angle_beta                  95.6709
_cell_angle_gamma                 88.1278
loop_
_atom_site_label
_atom_site_type_symbol
_atom_site_fract_x
_atom_site_fract_y
_atom_site_fract_z
_atom_site_U_iso_or_equiv
_atom_site_adp_type
_atom_site_occupancy
O1     O     0.10655   0.20625   0.25000   0.00000  Uiso   1.00
O2     O     0.22679   0.12709   0.25001   0.00000  Uiso   1.00
O3     O     0.22679   0.20625   0.25001   0.00000  Uiso   1.00
O4     O     0.10655   0.12709   0.25000   0.00000  Uiso   1.00
C5     C     0.08771   0.16743   0.25298   0.00000  Uiso   1.00
C6     C     0.24562   0.16591   0.24702   0.00000  Uiso   1.00
O7     O     0.16666   0.20627   0.18513   0.00000  Uiso   1.00
O8     O     0.16668   0.12707   0.31487   0.00000  Uiso   1.00
O9     O     0.16668   0.20627   0.31487   0.00000  Uiso   1.00
O10    O     0.16666   0.12707   0.18513   0.00000  Uiso   1.00
C11    C     0.16528   0.16684   0.16463   0.00000  Uiso   1.00
C12    C     0.16805   0.16650   0.33537   0.00000  Uiso   1.00
Cu13   Cu    0.16667   0.21355   0.25000   0.00000  Uiso   1.00
Cu14   Cu    0.16667   0.11978   0.25000   0.00000  Uiso   1.00
C15    C     0.20725   0.16362   0.41121   0.00000  Uiso   1.00
C16    C     0.12606   0.16977   0.08880   0.00000  Uiso   1.00
C17    C     0.16980   0.16663   0.38376   0.00000  Uiso   1.00
C18    C     0.16352   0.16673   0.11624   0.00000  Uiso   1.00
C19    C     0.13275   0.17212   0.40169   0.00000  Uiso   1.00
C20    C     0.20057   0.16130   0.09830   0.00000  Uiso   1.00
C21    C     0.13086   0.17196   0.44784   0.00000  Uiso   1.00
C22    C     0.20245   0.16151   0.05216   0.00000  Uiso   1.00
C23    C     0.16767   0.16761   0.47660   0.00000  Uiso   1.00
C24    C     0.16563   0.16586   0.02340   0.00000  Uiso   1.00
C25    C     0.20644   0.16696   0.45859   0.00000  Uiso   1.00
C26    C     0.12686   0.16651   0.04141   0.00000  Uiso   1.00
C27    C     0.09260   0.17445   0.46543   0.00000  Uiso   1.00
C28    C     0.24071   0.15910   0.03455   0.00000  Uiso   1.00
C29    C     0.09065   0.16490   0.01117   0.00000  Uiso   1.00
C30    C     0.24265   0.16864   0.48882   0.00000  Uiso   1.00
H31    H     0.10512   0.17420   0.37866   0.00000  Uiso   1.00
H32    H     0.22820   0.15925   0.12133   0.00000  Uiso   1.00
C33    C     0.02374   0.12767   0.26608   0.00000  Uiso   1.00
C34    C     0.30959   0.20566   0.23392   0.00000  Uiso   1.00
C35    C     0.31474   0.12434   0.25597   0.00000  Uiso   1.00
C36    C     0.01860   0.20900   0.24403   0.00000  Uiso   1.00
C37    C     0.29033   0.16455   0.24391   0.00000  Uiso   1.00
C38    C     0.04300   0.16878   0.25609   0.00000  Uiso   1.00
C39    C     0.14169   0.02597   0.21864   0.00000  Uiso   1.00
C40    C     0.19164   0.30737   0.28136   0.00000  Uiso   1.00
C41    C     0.19072   0.02349   0.28206   0.00000  Uiso   1.00
C42    C     0.14261   0.30984   0.21794   0.00000  Uiso   1.00
N43    N     0.16667   0.28402   0.25000   0.00000  Uiso   1.00
N44    N     0.16667   0.04931   0.25000   0.00000  Uiso   1.00
C45    C     0.24646   0.15219   0.38983   0.00000  Uiso   1.00
H46    H     0.26420   0.12383   0.40875   0.00000  Uiso   1.00
H47    H     0.24085   0.13968   0.35530   0.00000  Uiso   1.00
H48    H     0.26494   0.18315   0.38702   0.00000  Uiso   1.00
C49    C     0.08686   0.18118   0.11022   0.00000  Uiso   1.00
H50    H     0.06923   0.20971   0.09149   0.00000  Uiso   1.00
H51    H     0.06827   0.15029   0.11279   0.00000  Uiso   1.00
H52    H     0.09245   0.19337   0.14484   0.00000  Uiso   1.00
C53    C     0.05374   0.18784   0.43578   0.00000  Uiso   1.00
H54    H     0.05910   0.21765   0.41385   0.00000  Uiso   1.00
H55    H     0.04325   0.15822   0.41507   0.00000  Uiso   1.00
H56    H     0.02903   0.19994   0.45582   0.00000  Uiso   1.00
C57    C     0.27961   0.14581   0.06420   0.00000  Uiso   1.00
H58    H     0.27430   0.11606   0.08622   0.00000  Uiso   1.00
H59    H     0.30429   0.13367   0.04415   0.00000  Uiso   1.00
H60    H     0.29010   0.17550   0.08481   0.00000  Uiso   1.00
C61    C     0.05196   0.14393   0.02459   0.00000  Uiso   1.00
H62    H     0.03441   0.12766   0.49577   0.00000  Uiso   1.00
H63    H     0.05956   0.11506   0.04877   0.00000  Uiso   1.00
H64    H     0.03184   0.17072   0.03789   0.00000  Uiso   1.00
C65    C     0.28130   0.18967   0.47537   0.00000  Uiso   1.00
H66    H     0.29877   0.20612   0.00417   0.00000  Uiso   1.00
H67    H     0.30152   0.16286   0.46222   0.00000  Uiso   1.00
H68    H     0.27366   0.21842   0.45104   0.00000  Uiso   1.00
I69    I     0.05610   0.07388   0.30675   0.00000  Uiso   1.00
I70    I     0.27723   0.25945   0.19325   0.00000  Uiso   1.00
I71    I     0.29223   0.05606   0.24810   0.00000  Uiso   1.00
I72    I     0.04111   0.27727   0.25191   0.00000  Uiso   1.00
C73    C     0.11124   0.05125   0.18474   0.00000  Uiso   1.00
H74    H     0.10938   0.08851   0.18627   0.00000  Uiso   1.00
H75    H     0.11832   0.04295   0.15026   0.00000  Uiso   1.00
H76    H     0.07968   0.04094   0.18979   0.00000  Uiso   1.00
C77    C     0.22209   0.28208   0.31526   0.00000  Uiso   1.00
H78    H     0.22396   0.24482   0.31373   0.00000  Uiso   1.00
H79    H     0.25365   0.29240   0.31021   0.00000  Uiso   1.00
H80    H     0.21501   0.29038   0.34974   0.00000  Uiso   1.00
C81    C     0.21412   0.04716   0.32089   0.00000  Uiso   1.00
H82    H     0.22528   0.08019   0.31079   0.00000  Uiso   1.00
H83    H     0.19430   0.05152   0.34854   0.00000  Uiso   1.00
H84    H     0.24277   0.02879   0.33451   0.00000  Uiso   1.00
C85    C     0.11921   0.28617   0.17911   0.00000  Uiso   1.00
H86    H     0.10807   0.25312   0.18919   0.00000  Uiso   1.00
H87    H     0.09055   0.30453   0.16551   0.00000  Uiso   1.00
H88    H     0.13902   0.28184   0.15144   0.00000  Uiso   1.00
O89    O     0.43988   0.20625   0.25000   0.00000  Uiso   1.00
O90    O     0.56012   0.12709   0.25001   0.00000  Uiso   1.00
O91    O     0.56012   0.20625   0.25001   0.00000  Uiso   1.00
O92    O     0.43988   0.12709   0.25000   0.00000  Uiso   1.00
C93    C     0.42105   0.16743   0.25298   0.00000  Uiso   1.00
C94    C     0.57895   0.16591   0.24702   0.00000  Uiso   1.00
O95    O     0.49999   0.20627   0.18513   0.00000  Uiso   1.00
O96    O     0.50001   0.12707   0.31487   0.00000  Uiso   1.00
O97    O     0.50001   0.20627   0.31487   0.00000  Uiso   1.00
O98    O     0.49999   0.12707   0.18513   0.00000  Uiso   1.00
C99    C     0.49862   0.16684   0.16463   0.00000  Uiso   1.00
C100   C     0.50139   0.16650   0.33537   0.00000  Uiso   1.00
Cu101  Cu    0.50000   0.21355   0.25000   0.00000  Uiso   1.00
Cu102  Cu    0.50000   0.11978   0.25000   0.00000  Uiso   1.00
C103   C     0.54058   0.16362   0.41121   0.00000  Uiso   1.00
C104   C     0.45939   0.16977   0.08880   0.00000  Uiso   1.00
C105   C     0.50313   0.16663   0.38376   0.00000  Uiso   1.00
C106   C     0.49685   0.16673   0.11624   0.00000  Uiso   1.00
C107   C     0.46608   0.17212   0.40169   0.00000  Uiso   1.00
C108   C     0.53390   0.16130   0.09830   0.00000  Uiso   1.00
C109   C     0.46420   0.17196   0.44784   0.00000  Uiso   1.00
C110   C     0.53578   0.16151   0.05216   0.00000  Uiso   1.00
C111   C     0.50100   0.16761   0.47660   0.00000  Uiso   1.00
C112   C     0.49897   0.16586   0.02340   0.00000  Uiso   1.00
C113   C     0.53978   0.16696   0.45859   0.00000  Uiso   1.00
C114   C     0.46019   0.16651   0.04141   0.00000  Uiso   1.00
C115   C     0.42593   0.17445   0.46543   0.00000  Uiso   1.00
C116   C     0.57405   0.15910   0.03455   0.00000  Uiso   1.00
C117   C     0.42398   0.16490   0.01117   0.00000  Uiso   1.00
C118   C     0.57598   0.16864   0.48882   0.00000  Uiso   1.00
H119   H     0.43845   0.17420   0.37866   0.00000  Uiso   1.00
H120   H     0.56154   0.15925   0.12133   0.00000  Uiso   1.00
C121   C     0.35708   0.12767   0.26608   0.00000  Uiso   1.00
C122   C     0.64292   0.20566   0.23392   0.00000  Uiso   1.00
C123   C     0.64807   0.12434   0.25597   0.00000  Uiso   1.00
C124   C     0.35193   0.20900   0.24403   0.00000  Uiso   1.00
C125   C     0.62367   0.16455   0.24391   0.00000  Uiso   1.00
C126   C     0.37633   0.16878   0.25609   0.00000  Uiso   1.00
C127   C     0.47503   0.02597   0.21864   0.00000  Uiso   1.00
C128   C     0.52497   0.30737   0.28136   0.00000  Uiso   1.00
C129   C     0.52406   0.02349   0.28206   0.00000  Uiso   1.00
C130   C     0.47594   0.30984   0.21794   0.00000  Uiso   1.00
N131   N     0.50000   0.28402   0.25000   0.00000  Uiso   1.00
N132   N     0.50000   0.04931   0.25000   0.00000  Uiso   1.00
C133   C     0.57979   0.15219   0.38983   0.00000  Uiso   1.00
H134   H     0.59754   0.12383   0.40875   0.00000  Uiso   1.00
H135   H     0.57419   0.13968   0.35530   0.00000  Uiso   1.00
H136   H     0.59827   0.18315   0.38702   0.00000  Uiso   1.00
C137   C     0.42020   0.18118   0.11022   0.00000  Uiso   1.00
H138   H     0.40257   0.20971   0.09149   0.00000  Uiso   1.00
H139   H     0.40161   0.15029   0.11279   0.00000  Uiso   1.00
H140   H     0.42578   0.19337   0.14484   0.00000  Uiso   1.00
C141   C     0.38707   0.18784   0.43578   0.00000  Uiso   1.00
H142   H     0.39244   0.21765   0.41385   0.00000  Uiso   1.00
H143   H     0.37659   0.15822   0.41507   0.00000  Uiso   1.00
H144   H     0.36237   0.19994   0.45582   0.00000  Uiso   1.00
C145   C     0.61294   0.14581   0.06420   0.00000  Uiso   1.00
H146   H     0.60763   0.11606   0.08622   0.00000  Uiso   1.00
H147   H     0.63762   0.13367   0.04415   0.00000  Uiso   1.00
H148   H     0.62343   0.17550   0.08481   0.00000  Uiso   1.00
C149   C     0.38529   0.14393   0.02459   0.00000  Uiso   1.00
H150   H     0.36774   0.12766   0.49577   0.00000  Uiso   1.00
H151   H     0.39290   0.11506   0.04877   0.00000  Uiso   1.00
H152   H     0.36517   0.17072   0.03789   0.00000  Uiso   1.00
C153   C     0.61464   0.18967   0.47537   0.00000  Uiso   1.00
H154   H     0.63210   0.20612   0.00417   0.00000  Uiso   1.00
H155   H     0.63485   0.16286   0.46222   0.00000  Uiso   1.00
H156   H     0.60699   0.21842   0.45104   0.00000  Uiso   1.00
I157   I     0.38943   0.07388   0.30675   0.00000  Uiso   1.00
I158   I     0.61057   0.25945   0.19325   0.00000  Uiso   1.00
I159   I     0.62556   0.05606   0.24810   0.00000  Uiso   1.00
I160   I     0.37444   0.27727   0.25191   0.00000  Uiso   1.00
C161   C     0.44458   0.05125   0.18474   0.00000  Uiso   1.00
H162   H     0.44271   0.08851   0.18627   0.00000  Uiso   1.00
H163   H     0.45166   0.04295   0.15026   0.00000  Uiso   1.00
H164   H     0.41302   0.04094   0.18979   0.00000  Uiso   1.00
C165   C     0.55542   0.28208   0.31526   0.00000  Uiso   1.00
H166   H     0.55729   0.24482   0.31373   0.00000  Uiso   1.00
H167   H     0.58698   0.29240   0.31021   0.00000  Uiso   1.00
H168   H     0.54834   0.29038   0.34974   0.00000  Uiso   1.00
C169   C     0.54745   0.04716   0.32089   0.00000  Uiso   1.00
H170   H     0.55861   0.08019   0.31079   0.00000  Uiso   1.00
H171   H     0.52763   0.05152   0.34854   0.00000  Uiso   1.00
H172   H     0.57610   0.02879   0.33451   0.00000  Uiso   1.00
C173   C     0.45254   0.28617   0.17911   0.00000  Uiso   1.00
H174   H     0.44140   0.25312   0.18919   0.00000  Uiso   1.00
H175   H     0.42388   0.30453   0.16551   0.00000  Uiso   1.00
H176   H     0.47235   0.28184   0.15144   0.00000  Uiso   1.00
O177   O     0.77321   0.20625   0.25000   0.00000  Uiso   1.00
O178   O     0.89345   0.12709   0.25001   0.00000  Uiso   1.00
O179   O     0.89345   0.20625   0.25001   0.00000  Uiso   1.00
O180   O     0.77321   0.12709   0.25000   0.00000  Uiso   1.00
C181   C     0.75438   0.16743   0.25298   0.00000  Uiso   1.00
C182   C     0.91229   0.16591   0.24702   0.00000  Uiso   1.00
O183   O     0.83332   0.20627   0.18513   0.00000  Uiso   1.00
O184   O     0.83334   0.12707   0.31487   0.00000  Uiso   1.00
O185   O     0.83334   0.20627   0.31487   0.00000  Uiso   1.00
O186   O     0.83332   0.12707   0.18513   0.00000  Uiso   1.00
C187   C     0.83195   0.16684   0.16463   0.00000  Uiso   1.00
C188   C     0.83472   0.16650   0.33537   0.00000  Uiso   1.00
Cu189  Cu    0.83333   0.21355   0.25000   0.00000  Uiso   1.00
Cu190  Cu    0.83333   0.11978   0.25000   0.00000  Uiso   1.00
C191   C     0.87391   0.16362   0.41121   0.00000  Uiso   1.00
C192   C     0.79273   0.16977   0.08880   0.00000  Uiso   1.00
C193   C     0.83647   0.16663   0.38376   0.00000  Uiso   1.00
C194   C     0.83018   0.16673   0.11624   0.00000  Uiso   1.00
C195   C     0.79941   0.17212   0.40169   0.00000  Uiso   1.00
C196   C     0.86724   0.16130   0.09830   0.00000  Uiso   1.00
C197   C     0.79753   0.17196   0.44784   0.00000  Uiso   1.00
C198   C     0.86911   0.16151   0.05216   0.00000  Uiso   1.00
C199   C     0.83434   0.16761   0.47660   0.00000  Uiso   1.00
C200   C     0.83230   0.16586   0.02340   0.00000  Uiso   1.00
C201   C     0.87311   0.16696   0.45859   0.00000  Uiso   1.00
C202   C     0.79352   0.16651   0.04141   0.00000  Uiso   1.00
C203   C     0.75927   0.17445   0.46543   0.00000  Uiso   1.00
C204   C     0.90738   0.15910   0.03455   0.00000  Uiso   1.00
C205   C     0.75731   0.16490   0.01117   0.00000  Uiso   1.00
C206   C     0.90932   0.16864   0.48882   0.00000  Uiso   1.00
H207   H     0.77178   0.17420   0.37866   0.00000  Uiso   1.00
H208   H     0.89487   0.15925   0.12133   0.00000  Uiso   1.00
C209   C     0.69041   0.12767   0.26608   0.00000  Uiso   1.00
C210   C     0.97626   0.20566   0.23392   0.00000  Uiso   1.00
C211   C     0.98140   0.12434   0.25597   0.00000  Uiso   1.00
C212   C     0.68526   0.20900   0.24403   0.00000  Uiso   1.00
C213   C     0.95700   0.16455   0.24391   0.00000  Uiso   1.00
C214   C     0.70967   0.16878   0.25609   0.00000  Uiso   1.00
C215   C     0.80836   0.02597   0.21864   0.00000  Uiso   1.00
C216   C     0.85831   0.30737   0.28136   0.00000  Uiso   1.00
C217   C     0.85739   0.02349   0.28206   0.00000  Uiso   1.00
C218   C     0.80927   0.30984   0.21794   0.00000  Uiso   1.00
N219   N     0.83333   0.28402   0.25000   0.00000  Uiso   1.00
N220   N     0.83333   0.04931   0.25000   0.00000  Uiso   1.00
C221   C     0.91312   0.15219   0.38983   0.00000  Uiso   1.00
H222   H     0.93087   0.12383   0.40875   0.00000  Uiso   1.00
H223   H     0.90752   0.13968   0.35530   0.00000  Uiso   1.00
H224   H     0.93160   0.18315   0.38702   0.00000  Uiso   1.00
C225   C     0.75353   0.18118   0.11022   0.00000  Uiso   1.00
H226   H     0.73590   0.20971   0.09149   0.00000  Uiso   1.00
H227   H     0.73494   0.15029   0.11279   0.00000  Uiso   1.00
H228   H     0.75911   0.19337   0.14484   0.00000  Uiso   1.00
C229   C     0.72041   0.18784   0.43578   0.00000  Uiso   1.00
H230   H     0.72577   0.21765   0.41385   0.00000  Uiso   1.00
H231   H     0.70992   0.15822   0.41507   0.00000  Uiso   1.00
H232   H     0.69570   0.19994   0.45582   0.00000  Uiso   1.00
C233   C     0.94627   0.14581   0.06420   0.00000  Uiso   1.00
H234   H     0.94097   0.11606   0.08622   0.00000  Uiso   1.00
H235   H     0.97095   0.13367   0.04415   0.00000  Uiso   1.00
H236   H     0.95676   0.17550   0.08481   0.00000  Uiso   1.00
C237   C     0.71862   0.14393   0.02459   0.00000  Uiso   1.00
H238   H     0.70107   0.12766   0.49577   0.00000  Uiso   1.00
H239   H     0.72623   0.11506   0.04877   0.00000  Uiso   1.00
H240   H     0.69851   0.17072   0.03789   0.00000  Uiso   1.00
C241   C     0.94797   0.18967   0.47537   0.00000  Uiso   1.00
H242   H     0.96543   0.20612   0.00417   0.00000  Uiso   1.00
H243   H     0.96819   0.16286   0.46222   0.00000  Uiso   1.00
H244   H     0.94032   0.21842   0.45104   0.00000  Uiso   1.00
I245   I     0.72277   0.07388   0.30675   0.00000  Uiso   1.00
I246   I     0.94390   0.25945   0.19325   0.00000  Uiso   1.00
I247   I     0.95889   0.05606   0.24810   0.00000  Uiso   1.00
I248   I     0.70777   0.27727   0.25191   0.00000  Uiso   1.00
C249   C     0.77791   0.05125   0.18474   0.00000  Uiso   1.00
H250   H     0.77605   0.08851   0.18627   0.00000  Uiso   1.00
H251   H     0.78499   0.04295   0.15026   0.00000  Uiso   1.00
H252   H     0.74635   0.04094   0.18979   0.00000  Uiso   1.00
C253   C     0.88875   0.28208   0.31526   0.00000  Uiso   1.00
H254   H     0.89062   0.24482   0.31373   0.00000  Uiso   1.00
H255   H     0.92032   0.29240   0.31021   0.00000  Uiso   1.00
H256   H     0.88167   0.29038   0.34974   0.00000  Uiso   1.00
C257   C     0.88079   0.04716   0.32089   0.00000  Uiso   1.00
H258   H     0.89194   0.08019   0.31079   0.00000  Uiso   1.00
H259   H     0.86096   0.05152   0.34854   0.00000  Uiso   1.00
H260   H     0.90943   0.02879   0.33451   0.00000  Uiso   1.00
C261   C     0.78587   0.28617   0.17911   0.00000  Uiso   1.00
H262   H     0.77473   0.25312   0.18919   0.00000  Uiso   1.00
H263   H     0.75722   0.30453   0.16551   0.00000  Uiso   1.00
H264   H     0.80569   0.28184   0.15144   0.00000  Uiso   1.00
O265   O     0.10655   0.53958   0.25000   0.00000  Uiso   1.00
O266   O     0.22679   0.46042   0.25001   0.00000  Uiso   1.00
O267   O     0.22679   0.53958   0.25001   0.00000  Uiso   1.00
O268   O     0.10655   0.46042   0.25000   0.00000  Uiso   1.00
C269   C     0.08771   0.50076   0.25298   0.00000  Uiso   1.00
C270   C     0.24562   0.49924   0.24702   0.00000  Uiso   1.00
O271   O     0.16666   0.53960   0.18513   0.00000  Uiso   1.00
O272   O     0.16668   0.46040   0.31487   0.00000  Uiso   1.00
O273   O     0.16668   0.53960   0.31487   0.00000  Uiso   1.00
O274   O     0.16666   0.46040   0.18513   0.00000  Uiso   1.00
C275   C     0.16528   0.50017   0.16463   0.00000  Uiso   1.00
C276   C     0.16805   0.49983   0.33537   0.00000  Uiso   1.00
Cu277  Cu    0.16667   0.54689   0.25000   0.00000  Uiso   1.00
Cu278  Cu    0.16667   0.45311   0.25000   0.00000  Uiso   1.00
C279   C     0.20725   0.49695   0.41121   0.00000  Uiso   1.00
C280   C     0.12606   0.50311   0.08880   0.00000  Uiso   1.00
C281   C     0.16980   0.49996   0.38376   0.00000  Uiso   1.00
C282   C     0.16352   0.50006   0.11624   0.00000  Uiso   1.00
C283   C     0.13275   0.50545   0.40169   0.00000  Uiso   1.00
C284   C     0.20057   0.49464   0.09830   0.00000  Uiso   1.00
C285   C     0.13086   0.50530   0.44784   0.00000  Uiso   1.00
C286   C     0.20245   0.49485   0.05216   0.00000  Uiso   1.00
C287   C     0.16767   0.50094   0.47660   0.00000  Uiso   1.00
C288   C     0.16563   0.49920   0.02340   0.00000  Uiso   1.00
C289   C     0.20644   0.50029   0.45859   0.00000  Uiso   1.00
C290   C     0.12686   0.49984   0.04141   0.00000  Uiso   1.00
C291   C     0.09260   0.50778   0.46543   0.00000  Uiso   1.00
C292   C     0.24071   0.49243   0.03455   0.00000  Uiso   1.00
C293   C     0.09065   0.49823   0.01117   0.00000  Uiso   1.00
C294   C     0.24265   0.50197   0.48882   0.00000  Uiso   1.00
H295   H     0.10512   0.50753   0.37866   0.00000  Uiso   1.00
H296   H     0.22820   0.49258   0.12133   0.00000  Uiso   1.00
C297   C     0.02374   0.46100   0.26608   0.00000  Uiso   1.00
C298   C     0.30959   0.53900   0.23392   0.00000  Uiso   1.00
C299   C     0.31474   0.45767   0.25597   0.00000  Uiso   1.00
C300   C     0.01860   0.54233   0.24403   0.00000  Uiso   1.00
C301   C     0.29033   0.49788   0.24391   0.00000  Uiso   1.00
C302   C     0.04300   0.50211   0.25609   0.00000  Uiso   1.00
C303   C     0.14169   0.35930   0.21864   0.00000  Uiso   1.00
C304   C     0.19164   0.64070   0.28136   0.00000  Uiso   1.00
C305   C     0.19072   0.35682   0.28206   0.00000  Uiso   1.00
C306   C     0.14261   0.64318   0.21794   0.00000  Uiso   1.00
N307   N     0.16667   0.61736   0.25000   0.00000  Uiso   1.00
N308   N     0.16667   0.38264   0.25000   0.00000  Uiso   1.00
C309   C     0.24646   0.48552   0.38983   0.00000  Uiso   1.00
H310   H     0.26420   0.45716   0.40875   0.00000  Uiso   1.00
H311   H     0.24085   0.47301   0.35530   0.00000  Uiso   1.00
H312   H     0.26494   0.51649   0.38702   0.00000  Uiso   1.00
C313   C     0.08686   0.51451   0.11022   0.00000  Uiso   1.00
H314   H     0.06923   0.54305   0.09149   0.00000  Uiso   1.00
H315   H     0.06827   0.48362   0.11279   0.00000  Uiso   1.00
H316   H     0.09245   0.52670   0.14484   0.00000  Uiso   1.00
C317   C     0.05374   0.52117   0.43578   0.00000  Uiso   1.00
H318   H     0.05910   0.55098   0.41385   0.00000  Uiso   1.00
H319   H     0.04325   0.49155   0.41507   0.00000  Uiso   1.00
H320   H     0.02903   0.53327   0.45582   0.00000  Uiso   1.00
C321   C     0.27961   0.47914   0.06420   0.00000  Uiso   1.00
H322   H     0.27430   0.44939   0.08622   0.00000  Uiso   1.00
H323   H     0.30429   0.46700   0.04415   0.00000  Uiso   1.00
H324   H     0.29010   0.50883   0.08481   0.00000  Uiso   1.00
C325   C     0.05196   0.47727   0.02459   0.00000  Uiso   1.00
H326   H     0.03441   0.46099   0.49577   0.00000  Uiso   1.00
H327   H     0.05956   0.44839   0.04877   0.00000  Uiso   1.00
H328   H     0.03184   0.50406   0.03789   0.00000  Uiso   1.00
C329   C     0.28130   0.52300   0.47537   0.00000  Uiso   1.00
H330   H     0.29877   0.53946   0.00417   0.00000  Uiso   1.00
H331   H     0.30152   0.49620   0.46222   0.00000  Uiso   1.00
H332   H     0.27366   0.55175   0.45104   0.00000  Uiso   1.00
I333   I     0.05610   0.40721   0.30675   0.00000  Uiso   1.00
I334   I     0.27723   0.59278   0.19325   0.00000  Uiso   1.00
I335   I     0.29223   0.38940   0.24810   0.00000  Uiso   1.00
I336   I     0.04111   0.61060   0.25191   0.00000  Uiso   1.00
C337   C     0.11124   0.38458   0.18474   0.00000  Uiso   1.00
H338   H     0.10938   0.42184   0.18627   0.00000  Uiso   1.00
H339   H     0.11832   0.37628   0.15026   0.00000  Uiso   1.00
H340   H     0.07968   0.37427   0.18979   0.00000  Uiso   1.00
C341   C     0.22209   0.61542   0.31526   0.00000  Uiso   1.00
H342   H     0.22396   0.57816   0.31373   0.00000  Uiso   1.00
H343   H     0.25365   0.62573   0.31021   0.00000  Uiso   1.00
H344   H     0.21501   0.62371   0.34974   0.00000  Uiso   1.00
C345   C     0.21412   0.38049   0.32089   0.00000  Uiso   1.00
H346   H     0.22528   0.41352   0.31079   0.00000  Uiso   1.00
H347   H     0.19430   0.38486   0.34854   0.00000  Uiso   1.00
H348   H     0.24277   0.36212   0.33451   0.00000  Uiso   1.00
C349   C     0.11921   0.61950   0.17911   0.00000  Uiso   1.00
H350   H     0.10807   0.58646   0.18919   0.00000  Uiso   1.00
H351   H     0.09055   0.63787   0.16551   0.00000  Uiso   1.00
H352   H     0.13902   0.61517   0.15144   0.00000  Uiso   1.00
O353   O     0.43988   0.53958   0.25000   0.00000  Uiso   1.00
O354   O     0.56012   0.46042   0.25001   0.00000  Uiso   1.00
O355   O     0.56012   0.53958   0.25001   0.00000  Uiso   1.00
O356   O     0.43988   0.46042   0.25000   0.00000  Uiso   1.00
C357   C     0.42105   0.50076   0.25298   0.00000  Uiso   1.00
C358   C     0.57895   0.49924   0.24702   0.00000  Uiso   1.00
O359   O     0.49999   0.53960   0.18513   0.00000  Uiso   1.00
O360   O     0.50001   0.46040   0.31487   0.00000  Uiso   1.00
O361   O     0.50001   0.53960   0.31487   0.00000  Uiso   1.00
O362   O     0.49999   0.46040   0.18513   0.00000  Uiso   1.00
C363   C     0.49862   0.50017   0.16463   0.00000  Uiso   1.00
C364   C     0.50139   0.49983   0.33537   0.00000  Uiso   1.00
Cu365  Cu    0.50000   0.54689   0.25000   0.00000  Uiso   1.00
Cu366  Cu    0.50000   0.45311   0.25000   0.00000  Uiso   1.00
C367   C     0.54058   0.49695   0.41121   0.00000  Uiso   1.00
C368   C     0.45939   0.50311   0.08880   0.00000  Uiso   1.00
C369   C     0.50313   0.49996   0.38376   0.00000  Uiso   1.00
C370   C     0.49685   0.50006   0.11624   0.00000  Uiso   1.00
C371   C     0.46608   0.50545   0.40169   0.00000  Uiso   1.00
C372   C     0.53390   0.49464   0.09830   0.00000  Uiso   1.00
C373   C     0.46420   0.50530   0.44784   0.00000  Uiso   1.00
C374   C     0.53578   0.49485   0.05216   0.00000  Uiso   1.00
C375   C     0.50100   0.50094   0.47660   0.00000  Uiso   1.00
C376   C     0.49897   0.49920   0.02340   0.00000  Uiso   1.00
C377   C     0.53978   0.50029   0.45859   0.00000  Uiso   1.00
C378   C     0.46019   0.49984   0.04141   0.00000  Uiso   1.00
C379   C     0.42593   0.50778   0.46543   0.00000  Uiso   1.00
C380   C     0.57405   0.49243   0.03455   0.00000  Uiso   1.00
C381   C     0.42398   0.49823   0.01117   0.00000  Uiso   1.00
C382   C     0.57598   0.50197   0.48882   0.00000  Uiso   1.00
H383   H     0.43845   0.50753   0.37866   0.00000  Uiso   1.00
H384   H     0.56154   0.49258   0.12133   0.00000  Uiso   1.00
C385   C     0.35708   0.46100   0.26608   0.00000  Uiso   1.00
C386   C     0.64292   0.53900   0.23392   0.00000  Uiso   1.00
C387   C     0.64807   0.45767   0.25597   0.00000  Uiso   1.00
C388   C     0.35193   0.54233   0.24403   0.00000  Uiso   1.00
C389   C     0.62367   0.49788   0.24391   0.00000  Uiso   1.00
C390   C     0.37633   0.50211   0.25609   0.00000  Uiso   1.00
C391   C     0.47503   0.35930   0.21864   0.00000  Uiso   1.00
C392   C     0.52497   0.64070   0.28136   0.00000  Uiso   1.00
C393   C     0.52406   0.35682   0.28206   0.00000  Uiso   1.00
C394   C     0.47594   0.64318   0.21794   0.00000  Uiso   1.00
N395   N     0.50000   0.61736   0.25000   0.00000  Uiso   1.00
N396   N     0.50000   0.38264   0.25000   0.00000  Uiso   1.00
C397   C     0.57979   0.48552   0.38983   0.00000  Uiso   1.00
H398   H     0.59754   0.45716   0.40875   0.00000  Uiso   1.00
H399   H     0.57419   0.47301   0.35530   0.00000  Uiso   1.00
H400   H     0.59827   0.51649   0.38702   0.00000  Uiso   1.00
C401   C     0.42020   0.51451   0.11022   0.00000  Uiso   1.00
H402   H     0.40257   0.54305   0.09149   0.00000  Uiso   1.00
H403   H     0.40161   0.48362   0.11279   0.00000  Uiso   1.00
H404   H     0.42578   0.52670   0.14484   0.00000  Uiso   1.00
C405   C     0.38707   0.52117   0.43578   0.00000  Uiso   1.00
H406   H     0.39244   0.55098   0.41385   0.00000  Uiso   1.00
H407   H     0.37659   0.49155   0.41507   0.00000  Uiso   1.00
H408   H     0.36237   0.53327   0.45582   0.00000  Uiso   1.00
C409   C     0.61294   0.47914   0.06420   0.00000  Uiso   1.00
H410   H     0.60763   0.44939   0.08622   0.00000  Uiso   1.00
H411   H     0.63762   0.46700   0.04415   0.00000  Uiso   1.00
H412   H     0.62343   0.50883   0.08481   0.00000  Uiso   1.00
C413   C     0.38529   0.47727   0.02459   0.00000  Uiso   1.00
H414   H     0.36774   0.46099   0.49577   0.00000  Uiso   1.00
H415   H     0.39290   0.44839   0.04877   0.00000  Uiso   1.00
H416   H     0.36517   0.50406   0.03789   0.00000  Uiso   1.00
C417   C     0.61464   0.52300   0.47537   0.00000  Uiso   1.00
H418   H     0.63210   0.53946   0.00417   0.00000  Uiso   1.00
H419   H     0.63485   0.49620   0.46222   0.00000  Uiso   1.00
H420   H     0.60699   0.55175   0.45104   0.00000  Uiso   1.00
I421   I     0.38943   0.40721   0.30675   0.00000  Uiso   1.00
I422   I     0.61057   0.59278   0.19325   0.00000  Uiso   1.00
I423   I     0.62556   0.38940   0.24810   0.00000  Uiso   1.00
I424   I     0.37444   0.61060   0.25191   0.00000  Uiso   1.00
C425   C     0.44458   0.38458   0.18474   0.00000  Uiso   1.00
H426   H     0.44271   0.42184   0.18627   0.00000  Uiso   1.00
H427   H     0.45166   0.37628   0.15026   0.00000  Uiso   1.00
H428   H     0.41302   0.37427   0.18979   0.00000  Uiso   1.00
C429   C     0.55542   0.61542   0.31526   0.00000  Uiso   1.00
H430   H     0.55729   0.57816   0.31373   0.00000  Uiso   1.00
H431   H     0.58698   0.62573   0.31021   0.00000  Uiso   1.00
H432   H     0.54834   0.62371   0.34974   0.00000  Uiso   1.00
C433   C     0.54745   0.38049   0.32089   0.00000  Uiso   1.00
H434   H     0.55861   0.41352   0.31079   0.00000  Uiso   1.00
H435   H     0.52763   0.38486   0.34854   0.00000  Uiso   1.00
H436   H     0.57610   0.36212   0.33451   0.00000  Uiso   1.00
C437   C     0.45254   0.61950   0.17911   0.00000  Uiso   1.00
H438   H     0.44140   0.58646   0.18919   0.00000  Uiso   1.00
H439   H     0.42388   0.63787   0.16551   0.00000  Uiso   1.00
H440   H     0.47235   0.61517   0.15144   0.00000  Uiso   1.00
O441   O     0.77321   0.53958   0.25000   0.00000  Uiso   1.00
O442   O     0.89345   0.46042   0.25001   0.00000  Uiso   1.00
O443   O     0.89345   0.53958   0.25001   0.00000  Uiso   1.00
O444   O     0.77321   0.46042   0.25000   0.00000  Uiso   1.00
C445   C     0.75438   0.50076   0.25298   0.00000  Uiso   1.00
C446   C     0.91229   0.49924   0.24702   0.00000  Uiso   1.00
O447   O     0.83332   0.53960   0.18513   0.00000  Uiso   1.00
O448   O     0.83334   0.46040   0.31487   0.00000  Uiso   1.00
O449   O     0.83334   0.53960   0.31487   0.00000  Uiso   1.00
O450   O     0.83332   0.46040   0.18513   0.00000  Uiso   1.00
C451   C     0.83195   0.50017   0.16463   0.00000  Uiso   1.00
C452   C     0.83472   0.49983   0.33537   0.00000  Uiso   1.00
Cu453  Cu    0.83333   0.54689   0.25000   0.00000  Uiso   1.00
Cu454  Cu    0.83333   0.45311   0.25000   0.00000  Uiso   1.00
C455   C     0.87391   0.49695   0.41121   0.00000  Uiso   1.00
C456   C     0.79273   0.50311   0.08880   0.00000  Uiso   1.00
C457   C     0.83647   0.49996   0.38376   0.00000  Uiso   1.00
C458   C     0.83018   0.50006   0.11624   0.00000  Uiso   1.00
C459   C     0.79941   0.50545   0.40169   0.00000  Uiso   1.00
C460   C     0.86724   0.49464   0.09830   0.00000  Uiso   1.00
C461   C     0.79753   0.50530   0.44784   0.00000  Uiso   1.00
C462   C     0.86911   0.49485   0.05216   0.00000  Uiso   1.00
C463   C     0.83434   0.50094   0.47660   0.00000  Uiso   1.00
C464   C     0.83230   0.49920   0.02340   0.00000  Uiso   1.00
C465   C     0.87311   0.50029   0.45859   0.00000  Uiso   1.00
C466   C     0.79352   0.49984   0.04141   0.00000  Uiso   1.00
C467   C     0.75927   0.50778   0.46543   0.00000  Uiso   1.00
C468   C     0.90738   0.49243   0.03455   0.00000  Uiso   1.00
C469   C     0.75731   0.49823   0.01117   0.00000  Uiso   1.00
C470   C     0.90932   0.50197   0.48882   0.00000  Uiso   1.00
H471   H     0.77178   0.50753   0.37866   0.00000  Uiso   1.00
H472   H     0.89487   0.49258   0.12133   0.00000  Uiso   1.00
C473   C     0.69041   0.46100   0.26608   0.00000  Uiso   1.00
C474   C     0.97626   0.53900   0.23392   0.00000  Uiso   1.00
C475   C     0.98140   0.45767   0.25597   0.00000  Uiso   1.00
C476   C     0.68526   0.54233   0.24403   0.00000  Uiso   1.00
C477   C     0.95700   0.49788   0.24391   0.00000  Uiso   1.00
C478   C     0.70967   0.50211   0.25609   0.00000  Uiso   1.00
C479   C     0.80836   0.35930   0.21864   0.00000  Uiso   1.00
C480   C     0.85831   0.64070   0.28136   0.00000  Uiso   1.00
C481   C     0.85739   0.35682   0.28206   0.00000  Uiso   1.00
C482   C     0.80927   0.64318   0.21794   0.00000  Uiso   1.00
N483   N     0.83333   0.61736   0.25000   0.00000  Uiso   1.00
N484   N     0.83333   0.38264   0.25000   0.00000  Uiso   1.00
C485   C     0.91312   0.48552   0.38983   0.00000  Uiso   1.00
H486   H     0.93087   0.45716   0.40875   0.00000  Uiso   1.00
H487   H     0.90752   0.47301   0.35530   0.00000  Uiso   1.00
H488   H     0.93160   0.51649   0.38702   0.00000  Uiso   1.00
C489   C     0.75353   0.51451   0.11022   0.00000  Uiso   1.00
H490   H     0.73590   0.54305   0.09149   0.00000  Uiso   1.00
H491   H     0.73494   0.48362   0.11279   0.00000  Uiso   1.00
H492   H     0.75911   0.52670   0.14484   0.00000  Uiso   1.00
C493   C     0.72041   0.52117   0.43578   0.00000  Uiso   1.00
H494   H     0.72577   0.55098   0.41385   0.00000  Uiso   1.00
H495   H     0.70992   0.49155   0.41507   0.00000  Uiso   1.00
H496   H     0.69570   0.53327   0.45582   0.00000  Uiso   1.00
C497   C     0.94627   0.47914   0.06420   0.00000  Uiso   1.00
H498   H     0.94097   0.44939   0.08622   0.00000  Uiso   1.00
H499   H     0.97095   0.46700   0.04415   0.00000  Uiso   1.00
H500   H     0.95676   0.50883   0.08481   0.00000  Uiso   1.00
C501   C     0.71862   0.47727   0.02459   0.00000  Uiso   1.00
H502   H     0.70107   0.46099   0.49577   0.00000  Uiso   1.00
H503   H     0.72623   0.44839   0.04877   0.00000  Uiso   1.00
H504   H     0.69851   0.50406   0.03789   0.00000  Uiso   1.00
C505   C     0.94797   0.52300   0.47537   0.00000  Uiso   1.00
H506   H     0.96543   0.53946   0.00417   0.00000  Uiso   1.00
H507   H     0.96819   0.49620   0.46222   0.00000  Uiso   1.00
H508   H     0.94032   0.55175   0.45104   0.00000  Uiso   1.00
I509   I     0.72277   0.40721   0.30675   0.00000  Uiso   1.00
I510   I     0.94390   0.59278   0.19325   0.00000  Uiso   1.00
I511   I     0.95889   0.38940   0.24810   0.00000  Uiso   1.00
I512   I     0.70777   0.61060   0.25191   0.00000  Uiso   1.00
C513   C     0.77791   0.38458   0.18474   0.00000  Uiso   1.00
H514   H     0.77605   0.42184   0.18627   0.00000  Uiso   1.00
H515   H     0.78499   0.37628   0.15026   0.00000  Uiso   1.00
H516   H     0.74635   0.37427   0.18979   0.00000  Uiso   1.00
C517   C     0.88875   0.61542   0.31526   0.00000  Uiso   1.00
H518   H     0.89062   0.57816   0.31373   0.00000  Uiso   1.00
H519   H     0.92032   0.62573   0.31021   0.00000  Uiso   1.00
H520   H     0.88167   0.62371   0.34974   0.00000  Uiso   1.00
C521   C     0.88079   0.38049   0.32089   0.00000  Uiso   1.00
H522   H     0.89194   0.41352   0.31079   0.00000  Uiso   1.00
H523   H     0.86096   0.38486   0.34854   0.00000  Uiso   1.00
H524   H     0.90943   0.36212   0.33451   0.00000  Uiso   1.00
C525   C     0.78587   0.61950   0.17911   0.00000  Uiso   1.00
H526   H     0.77473   0.58646   0.18919   0.00000  Uiso   1.00
H527   H     0.75722   0.63787   0.16551   0.00000  Uiso   1.00
H528   H     0.80569   0.61517   0.15144   0.00000  Uiso   1.00
O529   O     0.10655   0.87291   0.25000   0.00000  Uiso   1.00
O530   O     0.22679   0.79375   0.25001   0.00000  Uiso   1.00
O531   O     0.22679   0.87291   0.25001   0.00000  Uiso   1.00
O532   O     0.10655   0.79375   0.25000   0.00000  Uiso   1.00
C533   C     0.08771   0.83409   0.25298   0.00000  Uiso   1.00
C534   C     0.24562   0.83257   0.24702   0.00000  Uiso   1.00
O535   O     0.16666   0.87293   0.18513   0.00000  Uiso   1.00
O536   O     0.16668   0.79373   0.31487   0.00000  Uiso   1.00
O537   O     0.16668   0.87293   0.31487   0.00000  Uiso   1.00
O538   O     0.16666   0.79373   0.18513   0.00000  Uiso   1.00
C539   C     0.16528   0.83350   0.16463   0.00000  Uiso   1.00
C540   C     0.16805   0.83317   0.33537   0.00000  Uiso   1.00
Cu541  Cu    0.16667   0.88022   0.25000   0.00000  Uiso   1.00
Cu542  Cu    0.16667   0.78645   0.25000   0.00000  Uiso   1.00
C543   C     0.20725   0.83028   0.41121   0.00000  Uiso   1.00
C544   C     0.12606   0.83644   0.08880   0.00000  Uiso   1.00
C545   C     0.16980   0.83329   0.38376   0.00000  Uiso   1.00
C546   C     0.16352   0.83339   0.11624   0.00000  Uiso   1.00
C547   C     0.13275   0.83879   0.40169   0.00000  Uiso   1.00
C548   C     0.20057   0.82797   0.09830   0.00000  Uiso   1.00
C549   C     0.13086   0.83863   0.44784   0.00000  Uiso   1.00
C550   C     0.20245   0.82818   0.05216   0.00000  Uiso   1.00
C551   C     0.16767   0.83427   0.47660   0.00000  Uiso   1.00
C552   C     0.16563   0.83253   0.02340   0.00000  Uiso   1.00
C553   C     0.20644   0.83362   0.45859   0.00000  Uiso   1.00
C554   C     0.12686   0.83318   0.04141   0.00000  Uiso   1.00
C555   C     0.09260   0.84111   0.46543   0.00000  Uiso   1.00
C556   C     0.24071   0.82577   0.03455   0.00000  Uiso   1.00
C557   C     0.09065   0.83157   0.01117   0.00000  Uiso   1.00
C558   C     0.24265   0.83530   0.48882   0.00000  Uiso   1.00
H559   H     0.10512   0.84086   0.37866   0.00000  Uiso   1.00
H560   H     0.22820   0.82592   0.12133   0.00000  Uiso   1.00
C561   C     0.02374   0.79433   0.26608   0.00000  Uiso   1.00
C562   C     0.30959   0.87233   0.23392   0.00000  Uiso   1.00
C563   C     0.31474   0.79100   0.25597   0.00000  Uiso   1.00
C564   C     0.01860   0.87566   0.24403   0.00000  Uiso   1.00
C565   C     0.29033   0.83122   0.24391   0.00000  Uiso   1.00
C566   C     0.04300   0.83545   0.25609   0.00000  Uiso   1.00
C567   C     0.14169   0.69263   0.21864   0.00000  Uiso   1.00
C568   C     0.19164   0.97403   0.28136   0.00000  Uiso   1.00
C569   C     0.19072   0.69015   0.28206   0.00000  Uiso   1.00
C570   C     0.14261   0.97651   0.21794   0.00000  Uiso   1.00
N571   N     0.16667   0.95069   0.25000   0.00000  Uiso   1.00
N572   N     0.16667   0.71598   0.25000   0.00000  Uiso   1.00
C573   C     0.24646   0.81885   0.38983   0.00000  Uiso   1.00
H574   H     0.26420   0.79050   0.40875   0.00000  Uiso   1.00
H575   H     0.24085   0.80634   0.35530   0.00000  Uiso   1.00
H576   H     0.26494   0.84982   0.38702   0.00000  Uiso   1.00
C577   C     0.08686   0.84784   0.11022   0.00000  Uiso   1.00
H578   H     0.06923   0.87638   0.09149   0.00000  Uiso   1.00
H579   H     0.06827   0.81696   0.11279   0.00000  Uiso   1.00
H580   H     0.09245   0.86004   0.14484   0.00000  Uiso   1.00
C581   C     0.05374   0.85451   0.43578   0.00000  Uiso   1.00
H582   H     0.05910   0.88431   0.41385   0.00000  Uiso   1.00
H583   H     0.04325   0.82488   0.41507   0.00000  Uiso   1.00
H584   H     0.02903   0.86661   0.45582   0.00000  Uiso   1.00
C585   C     0.27961   0.81248   0.06420   0.00000  Uiso   1.00
H586   H     0.27430   0.78272   0.08622   0.00000  Uiso   1.00
H587   H     0.30429   0.80034   0.04415   0.00000  Uiso   1.00
H588   H     0.29010   0.84217   0.08481   0.00000  Uiso   1.00
C589   C     0.05196   0.81060   0.02459   0.00000  Uiso   1.00
H590   H     0.03441   0.79432   0.49577   0.00000  Uiso   1.00
H591   H     0.05956   0.78172   0.04877   0.00000  Uiso   1.00
H592   H     0.03184   0.83739   0.03789   0.00000  Uiso   1.00
C593   C     0.28130   0.85633   0.47537   0.00000  Uiso   1.00
H594   H     0.29877   0.87279   0.00417   0.00000  Uiso   1.00
H595   H     0.30152   0.82953   0.46222   0.00000  Uiso   1.00
H596   H     0.27366   0.88509   0.45104   0.00000  Uiso   1.00
I597   I     0.05610   0.74055   0.30675   0.00000  Uiso   1.00
I598   I     0.27723   0.92612   0.19325   0.00000  Uiso   1.00
I599   I     0.29223   0.72273   0.24810   0.00000  Uiso   1.00
I600   I     0.04111   0.94393   0.25191   0.00000  Uiso   1.00
C601   C     0.11124   0.71792   0.18474   0.00000  Uiso   1.00
H602   H     0.10938   0.75517   0.18627   0.00000  Uiso   1.00
H603   H     0.11832   0.70961   0.15026   0.00000  Uiso   1.00
H604   H     0.07968   0.70760   0.18979   0.00000  Uiso   1.00
C605   C     0.22209   0.94875   0.31526   0.00000  Uiso   1.00
H606   H     0.22396   0.91149   0.31373   0.00000  Uiso   1.00
H607   H     0.25365   0.95906   0.31021   0.00000  Uiso   1.00
H608   H     0.21501   0.95705   0.34974   0.00000  Uiso   1.00
C609   C     0.21412   0.71383   0.32089   0.00000  Uiso   1.00
H610   H     0.22528   0.74685   0.31079   0.00000  Uiso   1.00
H611   H     0.19430   0.71819   0.34854   0.00000  Uiso   1.00
H612   H     0.24277   0.69546   0.33451   0.00000  Uiso   1.00
C613   C     0.11921   0.95284   0.17911   0.00000  Uiso   1.00
H614   H     0.10807   0.91979   0.18919   0.00000  Uiso   1.00
H615   H     0.09055   0.97120   0.16551   0.00000  Uiso   1.00
H616   H     0.13902   0.94850   0.15144   0.00000  Uiso   1.00
O617   O     0.43988   0.87291   0.25000   0.00000  Uiso   1.00
O618   O     0.56012   0.79375   0.25001   0.00000  Uiso   1.00
O619   O     0.56012   0.87291   0.25001   0.00000  Uiso   1.00
O620   O     0.43988   0.79375   0.25000   0.00000  Uiso   1.00
C621   C     0.42105   0.83409   0.25298   0.00000  Uiso   1.00
C622   C     0.57895   0.83257   0.24702   0.00000  Uiso   1.00
O623   O     0.49999   0.87293   0.18513   0.00000  Uiso   1.00
O624   O     0.50001   0.79373   0.31487   0.00000  Uiso   1.00
O625   O     0.50001   0.87293   0.31487   0.00000  Uiso   1.00
O626   O     0.49999   0.79373   0.18513   0.00000  Uiso   1.00
C627   C     0.49862   0.83350   0.16463   0.00000  Uiso   1.00
C628   C     0.50139   0.83317   0.33537   0.00000  Uiso   1.00
Cu629  Cu    0.50000   0.88022   0.25000   0.00000  Uiso   1.00
Cu630  Cu    0.50000   0.78645   0.25000   0.00000  Uiso   1.00
C631   C     0.54058   0.83028   0.41121   0.00000  Uiso   1.00
C632   C     0.45939   0.83644   0.08880   0.00000  Uiso   1.00
C633   C     0.50313   0.83329   0.38376   0.00000  Uiso   1.00
C634   C     0.49685   0.83339   0.11624   0.00000  Uiso   1.00
C635   C     0.46608   0.83879   0.40169   0.00000  Uiso   1.00
C636   C     0.53390   0.82797   0.09830   0.00000  Uiso   1.00
C637   C     0.46420   0.83863   0.44784   0.00000  Uiso   1.00
C638   C     0.53578   0.82818   0.05216   0.00000  Uiso   1.00
C639   C     0.50100   0.83427   0.47660   0.00000  Uiso   1.00
C640   C     0.49897   0.83253   0.02340   0.00000  Uiso   1.00
C641   C     0.53978   0.83362   0.45859   0.00000  Uiso   1.00
C642   C     0.46019   0.83318   0.04141   0.00000  Uiso   1.00
C643   C     0.42593   0.84111   0.46543   0.00000  Uiso   1.00
C644   C     0.57405   0.82577   0.03455   0.00000  Uiso   1.00
C645   C     0.42398   0.83157   0.01117   0.00000  Uiso   1.00
C646   C     0.57598   0.83530   0.48882   0.00000  Uiso   1.00
H647   H     0.43845   0.84086   0.37866   0.00000  Uiso   1.00
H648   H     0.56154   0.82592   0.12133   0.00000  Uiso   1.00
C649   C     0.35708   0.79433   0.26608   0.00000  Uiso   1.00
C650   C     0.64292   0.87233   0.23392   0.00000  Uiso   1.00
C651   C     0.64807   0.79100   0.25597   0.00000  Uiso   1.00
C652   C     0.35193   0.87566   0.24403   0.00000  Uiso   1.00
C653   C     0.62367   0.83122   0.24391   0.00000  Uiso   1.00
C654   C     0.37633   0.83545   0.25609   0.00000  Uiso   1.00
C655   C     0.47503   0.69263   0.21864   0.00000  Uiso   1.00
C656   C     0.52497   0.97403   0.28136   0.00000  Uiso   1.00
C657   C     0.52406   0.69015   0.28206   0.00000  Uiso   1.00
C658   C     0.47594   0.97651   0.21794   0.00000  Uiso   1.00
N659   N     0.50000   0.95069   0.25000   0.00000  Uiso   1.00
N660   N     0.50000   0.71598   0.25000   0.00000  Uiso   1.00
C661   C     0.57979   0.81885   0.38983   0.00000  Uiso   1.00
H662   H     0.59754   0.79050   0.40875   0.00000  Uiso   1.00
H663   H     0.57419   0.80634   0.35530   0.00000  Uiso   1.00
H664   H     0.59827   0.84982   0.38702   0.00000  Uiso   1.00
C665   C     0.42020   0.84784   0.11022   0.00000  Uiso   1.00
H666   H     0.40257   0.87638   0.09149   0.00000  Uiso   1.00
H667   H     0.40161   0.81696   0.11279   0.00000  Uiso   1.00
H668   H     0.42578   0.86004   0.14484   0.00000  Uiso   1.00
C669   C     0.38707   0.85451   0.43578   0.00000  Uiso   1.00
H670   H     0.39244   0.88431   0.41385   0.00000  Uiso   1.00
H671   H     0.37659   0.82488   0.41507   0.00000  Uiso   1.00
H672   H     0.36237   0.86661   0.45582   0.00000  Uiso   1.00
C673   C     0.61294   0.81248   0.06420   0.00000  Uiso   1.00
H674   H     0.60763   0.78272   0.08622   0.00000  Uiso   1.00
H675   H     0.63762   0.80034   0.04415   0.00000  Uiso   1.00
H676   H     0.62343   0.84217   0.08481   0.00000  Uiso   1.00
C677   C     0.38529   0.81060   0.02459   0.00000  Uiso   1.00
H678   H     0.36774   0.79432   0.49577   0.00000  Uiso   1.00
H679   H     0.39290   0.78172   0.04877   0.00000  Uiso   1.00
H680   H     0.36517   0.83739   0.03789   0.00000  Uiso   1.00
C681   C     0.61464   0.85633   0.47537   0.00000  Uiso   1.00
H682   H     0.63210   0.87279   0.00417   0.00000  Uiso   1.00
H683   H     0.63485   0.82953   0.46222   0.00000  Uiso   1.00
H684   H     0.60699   0.88509   0.45104   0.00000  Uiso   1.00
I685   I     0.38943   0.74055   0.30675   0.00000  Uiso   1.00
I686   I     0.61057   0.92612   0.19325   0.00000  Uiso   1.00
I687   I     0.62556   0.72273   0.24810   0.00000  Uiso   1.00
I688   I     0.37444   0.94393   0.25191   0.00000  Uiso   1.00
C689   C     0.44458   0.71792   0.18474   0.00000  Uiso   1.00
H690   H     0.44271   0.75517   0.18627   0.00000  Uiso   1.00
H691   H     0.45166   0.70961   0.15026   0.00000  Uiso   1.00
H692   H     0.41302   0.70760   0.18979   0.00000  Uiso   1.00
C693   C     0.55542   0.94875   0.31526   0.00000  Uiso   1.00
H694   H     0.55729   0.91149   0.31373   0.00000  Uiso   1.00
H695   H     0.58698   0.95906   0.31021   0.00000  Uiso   1.00
H696   H     0.54834   0.95705   0.34974   0.00000  Uiso   1.00
C697   C     0.54745   0.71383   0.32089   0.00000  Uiso   1.00
H698   H     0.55861   0.74685   0.31079   0.00000  Uiso   1.00
H699   H     0.52763   0.71819   0.34854   0.00000  Uiso   1.00
H700   H     0.57610   0.69546   0.33451   0.00000  Uiso   1.00
C701   C     0.45254   0.95284   0.17911   0.00000  Uiso   1.00
H702   H     0.44140   0.91979   0.18919   0.00000  Uiso   1.00
H703   H     0.42388   0.97120   0.16551   0.00000  Uiso   1.00
H704   H     0.47235   0.94850   0.15144   0.00000  Uiso   1.00
O705   O     0.77321   0.87291   0.25000   0.00000  Uiso   1.00
O706   O     0.89345   0.79375   0.25001   0.00000  Uiso   1.00
O707   O     0.89345   0.87291   0.25001   0.00000  Uiso   1.00
O708   O     0.77321   0.79375   0.25000   0.00000  Uiso   1.00
C709   C     0.75438   0.83409   0.25298   0.00000  Uiso   1.00
C710   C     0.91229   0.83257   0.24702   0.00000  Uiso   1.00
O711   O     0.83332   0.87293   0.18513   0.00000  Uiso   1.00
O712   O     0.83334   0.79373   0.31487   0.00000  Uiso   1.00
O713   O     0.83334   0.87293   0.31487   0.00000  Uiso   1.00
O714   O     0.83332   0.79373   0.18513   0.00000  Uiso   1.00
C715   C     0.83195   0.83350   0.16463   0.00000  Uiso   1.00
C716   C     0.83472   0.83317   0.33537   0.00000  Uiso   1.00
Cu717  Cu    0.83333   0.88022   0.25000   0.00000  Uiso   1.00
Cu718  Cu    0.83333   0.78645   0.25000   0.00000  Uiso   1.00
C719   C     0.87391   0.83028   0.41121   0.00000  Uiso   1.00
C720   C     0.79273   0.83644   0.08880   0.00000  Uiso   1.00
C721   C     0.83647   0.83329   0.38376   0.00000  Uiso   1.00
C722   C     0.83018   0.83339   0.11624   0.00000  Uiso   1.00
C723   C     0.79941   0.83879   0.40169   0.00000  Uiso   1.00
C724   C     0.86724   0.82797   0.09830   0.00000  Uiso   1.00
C725   C     0.79753   0.83863   0.44784   0.00000  Uiso   1.00
C726   C     0.86911   0.82818   0.05216   0.00000  Uiso   1.00
C727   C     0.83434   0.83427   0.47660   0.00000  Uiso   1.00
C728   C     0.83230   0.83253   0.02340   0.00000  Uiso   1.00
C729   C     0.87311   0.83362   0.45859   0.00000  Uiso   1.00
C730   C     0.79352   0.83318   0.04141   0.00000  Uiso   1.00
C731   C     0.75927   0.84111   0.46543   0.00000  Uiso   1.00
C732   C     0.90738   0.82577   0.03455   0.00000  Uiso   1.00
C733   C     0.75731   0.83157   0.01117   0.00000  Uiso   1.00
C734   C     0.90932   0.83530   0.48882   0.00000  Uiso   1.00
H735   H     0.77178   0.84086   0.37866   0.00000  Uiso   1.00
H736   H     0.89487   0.82592   0.12133   0.00000  Uiso   1.00
C737   C     0.69041   0.79433   0.26608   0.00000  Uiso   1.00
C738   C     0.97626   0.87233   0.23392   0.00000  Uiso   1.00
C739   C     0.98140   0.79100   0.25597   0.00000  Uiso   1.00
C740   C     0.68526   0.87566   0.24403   0.00000  Uiso   1.00
C741   C     0.95700   0.83122   0.24391   0.00000  Uiso   1.00
C742   C     0.70967   0.83545   0.25609   0.00000  Uiso   1.00
C743   C     0.80836   0.69263   0.21864   0.00000  Uiso   1.00
C744   C     0.85831   0.97403   0.28136   0.00000  Uiso   1.00
C745   C     0.85739   0.69015   0.28206   0.00000  Uiso   1.00
C746   C     0.80927   0.97651   0.21794   0.00000  Uiso   1.00
N747   N     0.83333   0.95069   0.25000   0.00000  Uiso   1.00
N748   N     0.83333   0.71598   0.25000   0.00000  Uiso   1.00
C749   C     0.91312   0.81885   0.38983   0.00000  Uiso   1.00
H750   H     0.93087   0.79050   0.40875   0.00000  Uiso   1.00
H751   H     0.90752   0.80634   0.35530   0.00000  Uiso   1.00
H752   H     0.93160   0.84982   0.38702   0.00000  Uiso   1.00
C753   C     0.75353   0.84784   0.11022   0.00000  Uiso   1.00
H754   H     0.73590   0.87638   0.09149   0.00000  Uiso   1.00
H755   H     0.73494   0.81696   0.11279   0.00000  Uiso   1.00
H756   H     0.75911   0.86004   0.14484   0.00000  Uiso   1.00
C757   C     0.72041   0.85451   0.43578   0.00000  Uiso   1.00
H758   H     0.72577   0.88431   0.41385   0.00000  Uiso   1.00
H759   H     0.70992   0.82488   0.41507   0.00000  Uiso   1.00
H760   H     0.69570   0.86661   0.45582   0.00000  Uiso   1.00
C761   C     0.94627   0.81248   0.06420   0.00000  Uiso   1.00
H762   H     0.94097   0.78272   0.08622   0.00000  Uiso   1.00
H763   H     0.97095   0.80034   0.04415   0.00000  Uiso   1.00
H764   H     0.95676   0.84217   0.08481   0.00000  Uiso   1.00
C765   C     0.71862   0.81060   0.02459   0.00000  Uiso   1.00
H766   H     0.70107   0.79432   0.49577   0.00000  Uiso   1.00
H767   H     0.72623   0.78172   0.04877   0.00000  Uiso   1.00
H768   H     0.69851   0.83739   0.03789   0.00000  Uiso   1.00
C769   C     0.94797   0.85633   0.47537   0.00000  Uiso   1.00
H770   H     0.96543   0.87279   0.00417   0.00000  Uiso   1.00
H771   H     0.96819   0.82953   0.46222   0.00000  Uiso   1.00
H772   H     0.94032   0.88509   0.45104   0.00000  Uiso   1.00
I773   I     0.72277   0.74055   0.30675   0.00000  Uiso   1.00
I774   I     0.94390   0.92612   0.19325   0.00000  Uiso   1.00
I775   I     0.95889   0.72273   0.24810   0.00000  Uiso   1.00
I776   I     0.70777   0.94393   0.25191   0.00000  Uiso   1.00
C777   C     0.77791   0.71792   0.18474   0.00000  Uiso   1.00
H778   H     0.77605   0.75517   0.18627   0.00000  Uiso   1.00
H779   H     0.78499   0.70961   0.15026   0.00000  Uiso   1.00
H780   H     0.74635   0.70760   0.18979   0.00000  Uiso   1.00
C781   C     0.88875   0.94875   0.31526   0.00000  Uiso   1.00
H782   H     0.89062   0.91149   0.31373   0.00000  Uiso   1.00
H783   H     0.92032   0.95906   0.31021   0.00000  Uiso   1.00
H784   H     0.88167   0.95705   0.34974   0.00000  Uiso   1.00
C785   C     0.88079   0.71383   0.32089   0.00000  Uiso   1.00
H786   H     0.89194   0.74685   0.31079   0.00000  Uiso   1.00
H787   H     0.86096   0.71819   0.34854   0.00000  Uiso   1.00
H788   H     0.90943   0.69546   0.33451   0.00000  Uiso   1.00
C789   C     0.78587   0.95284   0.17911   0.00000  Uiso   1.00
H790   H     0.77473   0.91979   0.18919   0.00000  Uiso   1.00
H791   H     0.75722   0.97120   0.16551   0.00000  Uiso   1.00
H792   H     0.80569   0.94850   0.15144   0.00000  Uiso   1.00
O793   O     0.10655   0.20625   0.75000   0.00000  Uiso   1.00
O794   O     0.22679   0.12709   0.75001   0.00000  Uiso   1.00
O795   O     0.22679   0.20625   0.75001   0.00000  Uiso   1.00
O796   O     0.10655   0.12709   0.75000   0.00000  Uiso   1.00
C797   C     0.08771   0.16743   0.75298   0.00000  Uiso   1.00
C798   C     0.24562   0.16591   0.74702   0.00000  Uiso   1.00
O799   O     0.16666   0.20627   0.68513   0.00000  Uiso   1.00
O800   O     0.16668   0.12707   0.81487   0.00000  Uiso   1.00
O801   O     0.16668   0.20627   0.81487   0.00000  Uiso   1.00
O802   O     0.16666   0.12707   0.68513   0.00000  Uiso   1.00
C803   C     0.16528   0.16684   0.66463   0.00000  Uiso   1.00
C804   C     0.16805   0.16650   0.83537   0.00000  Uiso   1.00
Cu805  Cu    0.16667   0.21355   0.75000   0.00000  Uiso   1.00
Cu806  Cu    0.16667   0.11978   0.75000   0.00000  Uiso   1.00
C807   C     0.20725   0.16362   0.91121   0.00000  Uiso   1.00
C808   C     0.12606   0.16977   0.58880   0.00000  Uiso   1.00
C809   C     0.16980   0.16663   0.88376   0.00000  Uiso   1.00
C810   C     0.16352   0.16673   0.61624   0.00000  Uiso   1.00
C811   C     0.13275   0.17212   0.90169   0.00000  Uiso   1.00
C812   C     0.20057   0.16130   0.59830   0.00000  Uiso   1.00
C813   C     0.13086   0.17196   0.94784   0.00000  Uiso   1.00
C814   C     0.20245   0.16151   0.55216   0.00000  Uiso   1.00
C815   C     0.16767   0.16761   0.97660   0.00000  Uiso   1.00
C816   C     0.16563   0.16586   0.52340   0.00000  Uiso   1.00
C817   C     0.20644   0.16696   0.95859   0.00000  Uiso   1.00
C818   C     0.12686   0.16651   0.54141   0.00000  Uiso   1.00
C819   C     0.09260   0.17445   0.96543   0.00000  Uiso   1.00
C820   C     0.24071   0.15910   0.53455   0.00000  Uiso   1.00
C821   C     0.09065   0.16490   0.51117   0.00000  Uiso   1.00
C822   C     0.24265   0.16864   0.98882   0.00000  Uiso   1.00
H823   H     0.10512   0.17420   0.87866   0.00000  Uiso   1.00
H824   H     0.22820   0.15925   0.62133   0.00000  Uiso   1.00
C825   C     0.02374   0.12767   0.76608   0.00000  Uiso   1.00
C826   C     0.30959   0.20566   0.73392   0.00000  Uiso   1.00
C827   C     0.31474   0.12434   0.75597   0.00000  Uiso   1.00
C828   C     0.01860   0.20900   0.74403   0.00000  Uiso   1.00
C829   C     0.29033   0.16455   0.74391   0.00000  Uiso   1.00
C830   C     0.04300   0.16878   0.75609   0.00000  Uiso   1.00
C831   C     0.14169   0.02597   0.71864   0.00000  Uiso   1.00
C832   C     0.19164   0.30737   0.78136   0.00000  Uiso   1.00
C833   C     0.19072   0.02349   0.78206   0.00000  Uiso   1.00
C834   C     0.14261   0.30984   0.71794   0.00000  Uiso   1.00
N835   N     0.16667   0.28402   0.75000   0.00000  Uiso   1.00
N836   N     0.16667   0.04931   0.75000   0.00000  Uiso   1.00
C837   C     0.24646   0.15219   0.88983   0.00000  Uiso   1.00
H838   H     0.26420   0.12383   0.90875   0.00000  Uiso   1.00
H839   H     0.24085   0.13968   0.85530   0.00000  Uiso   1.00
H840   H     0.26494   0.18315   0.88702   0.00000  Uiso   1.00
C841   C     0.08686   0.18118   0.61022   0.00000  Uiso   1.00
H842   H     0.06923   0.20971   0.59149   0.00000  Uiso   1.00
H843   H     0.06827   0.15029   0.61279   0.00000  Uiso   1.00
H844   H     0.09245   0.19337   0.64484   0.00000  Uiso   1.00
C845   C     0.05374   0.18784   0.93578   0.00000  Uiso   1.00
H846   H     0.05910   0.21765   0.91385   0.00000  Uiso   1.00
H847   H     0.04325   0.15822   0.91507   0.00000  Uiso   1.00
H848   H     0.02903   0.19994   0.95582   0.00000  Uiso   1.00
C849   C     0.27961   0.14581   0.56420   0.00000  Uiso   1.00
H850   H     0.27430   0.11606   0.58622   0.00000  Uiso   1.00
H851   H     0.30429   0.13367   0.54415   0.00000  Uiso   1.00
H852   H     0.29010   0.17550   0.58481   0.00000  Uiso   1.00
C853   C     0.05196   0.14393   0.52459   0.00000  Uiso   1.00
H854   H     0.03441   0.12766   0.99577   0.00000  Uiso   1.00
H855   H     0.05956   0.11506   0.54877   0.00000  Uiso   1.00
H856   H     0.03184   0.17072   0.53789   0.00000  Uiso   1.00
C857   C     0.28130   0.18967   0.97537   0.00000  Uiso   1.00
H858   H     0.29877   0.20612   0.50417   0.00000  Uiso   1.00
H859   H     0.30152   0.16286   0.96222   0.00000  Uiso   1.00
H860   H     0.27366   0.21842   0.95104   0.00000  Uiso   1.00
I861   I     0.05610   0.07388   0.80675   0.00000  Uiso   1.00
I862   I     0.27723   0.25945   0.69325   0.00000  Uiso   1.00
I863   I     0.29223   0.05606   0.74810   0.00000  Uiso   1.00
I864   I     0.04111   0.27727   0.75191   0.00000  Uiso   1.00
C865   C     0.11124   0.05125   0.68474   0.00000  Uiso   1.00
H866   H     0.10938   0.08851   0.68627   0.00000  Uiso   1.00
H867   H     0.11832   0.04295   0.65026   0.00000  Uiso   1.00
H868   H     0.07968   0.04094   0.68979   0.00000  Uiso   1.00
C869   C     0.22209   0.28208   0.81526   0.00000  Uiso   1.00
H870   H     0.22396   0.24482   0.81373   0.00000  Uiso   1.00
H871   H     0.25365   0.29240   0.81021   0.00000  Uiso   1.00
H872   H     0.21501   0.29038   0.84974   0.00000  Uiso   1.00
C873   C     0.21412   0.04716   0.82089   0.00000  Uiso   1.00
H874   H     0.22528   0.08019   0.81079   0.00000  Uiso   1.00
H875   H     0.19430   0.05152   0.84854   0.00000  Uiso   1.00
H876   H     0.24277   0.02879   0.83451   0.00000  Uiso   1.00
C877   C     0.11921   0.28617   0.67911   0.00000  Uiso   1.00
H878   H     0.10807   0.25312   0.68919   0.00000  Uiso   1.00
H879   H     0.09055   0.30453   0.66551   0.00000  Uiso   1.00
H880   H     0.13902   0.28184   0.65144   0.00000  Uiso   1.00
O881   O     0.43988   0.20625   0.75000   0.00000  Uiso   1.00
O882   O     0.56012   0.12709   0.75001   0.00000  Uiso   1.00
O883   O     0.56012   0.20625   0.75001   0.00000  Uiso   1.00
O884   O     0.43988   0.12709   0.75000   0.00000  Uiso   1.00
C885   C     0.42105   0.16743   0.75298   0.00000  Uiso   1.00
C886   C     0.57895   0.16591   0.74702   0.00000  Uiso   1.00
O887   O     0.49999   0.20627   0.68513   0.00000  Uiso   1.00
O888   O     0.50001   0.12707   0.81487   0.00000  Uiso   1.00
O889   O     0.50001   0.20627   0.81487   0.00000  Uiso   1.00
O890   O     0.49999   0.12707   0.68513   0.00000  Uiso   1.00
C891   C     0.49862   0.16684   0.66463   0.00000  Uiso   1.00
C892   C     0.50139   0.16650   0.83537   0.00000  Uiso   1.00
Cu893  Cu    0.50000   0.21355   0.75000   0.00000  Uiso   1.00
Cu894  Cu    0.50000   0.11978   0.75000   0.00000  Uiso   1.00
C895   C     0.54058   0.16362   0.91121   0.00000  Uiso   1.00
C896   C     0.45939   0.16977   0.58880   0.00000  Uiso   1.00
C897   C     0.50313   0.16663   0.88376   0.00000  Uiso   1.00
C898   C     0.49685   0.16673   0.61624   0.00000  Uiso   1.00
C899   C     0.46608   0.17212   0.90169   0.00000  Uiso   1.00
C900   C     0.53390   0.16130   0.59830   0.00000  Uiso   1.00
C901   C     0.46420   0.17196   0.94784   0.00000  Uiso   1.00
C902   C     0.53578   0.16151   0.55216   0.00000  Uiso   1.00
C903   C     0.50100   0.16761   0.97660   0.00000  Uiso   1.00
C904   C     0.49897   0.16586   0.52340   0.00000  Uiso   1.00
C905   C     0.53978   0.16696   0.95859   0.00000  Uiso   1.00
C906   C     0.46019   0.16651   0.54141   0.00000  Uiso   1.00
C907   C     0.42593   0.17445   0.96543   0.00000  Uiso   1.00
C908   C     0.57405   0.15910   0.53455   0.00000  Uiso   1.00
C909   C     0.42398   0.16490   0.51117   0.00000  Uiso   1.00
C910   C     0.57598   0.16864   0.98882   0.00000  Uiso   1.00
H911   H     0.43845   0.17420   0.87866   0.00000  Uiso   1.00
H912   H     0.56154   0.15925   0.62133   0.00000  Uiso   1.00
C913   C     0.35708   0.12767   0.76608   0.00000  Uiso   1.00
C914   C     0.64292   0.20566   0.73392   0.00000  Uiso   1.00
C915   C     0.64807   0.12434   0.75597   0.00000  Uiso   1.00
C916   C     0.35193   0.20900   0.74403   0.00000  Uiso   1.00
C917   C     0.62367   0.16455   0.74391   0.00000  Uiso   1.00
C918   C     0.37633   0.16878   0.75609   0.00000  Uiso   1.00
C919   C     0.47503   0.02597   0.71864   0.00000  Uiso   1.00
C920   C     0.52497   0.30737   0.78136   0.00000  Uiso   1.00
C921   C     0.52406   0.02349   0.78206   0.00000  Uiso   1.00
C922   C     0.47594   0.30984   0.71794   0.00000  Uiso   1.00
N923   N     0.50000   0.28402   0.75000   0.00000  Uiso   1.00
N924   N     0.50000   0.04931   0.75000   0.00000  Uiso   1.00
C925   C     0.57979   0.15219   0.88983   0.00000  Uiso   1.00
H926   H     0.59754   0.12383   0.90875   0.00000  Uiso   1.00
H927   H     0.57419   0.13968   0.85530   0.00000  Uiso   1.00
H928   H     0.59827   0.18315   0.88702   0.00000  Uiso   1.00
C929   C     0.42020   0.18118   0.61022   0.00000  Uiso   1.00
H930   H     0.40257   0.20971   0.59149   0.00000  Uiso   1.00
H931   H     0.40161   0.15029   0.61279   0.00000  Uiso   1.00
H932   H     0.42578   0.19337   0.64484   0.00000  Uiso   1.00
C933   C     0.38707   0.18784   0.93578   0.00000  Uiso   1.00
H934   H     0.39244   0.21765   0.91385   0.00000  Uiso   1.00
H935   H     0.37659   0.15822   0.91507   0.00000  Uiso   1.00
H936   H     0.36237   0.19994   0.95582   0.00000  Uiso   1.00
C937   C     0.61294   0.14581   0.56420   0.00000  Uiso   1.00
H938   H     0.60763   0.11606   0.58622   0.00000  Uiso   1.00
H939   H     0.63762   0.13367   0.54415   0.00000  Uiso   1.00
H940   H     0.62343   0.17550   0.58481   0.00000  Uiso   1.00
C941   C     0.38529   0.14393   0.52459   0.00000  Uiso   1.00
H942   H     0.36774   0.12766   0.99577   0.00000  Uiso   1.00
H943   H     0.39290   0.11506   0.54877   0.00000  Uiso   1.00
H944   H     0.36517   0.17072   0.53789   0.00000  Uiso   1.00
C945   C     0.61464   0.18967   0.97537   0.00000  Uiso   1.00
H946   H     0.63210   0.20612   0.50417   0.00000  Uiso   1.00
H947   H     0.63485   0.16286   0.96222   0.00000  Uiso   1.00
H948   H     0.60699   0.21842   0.95104   0.00000  Uiso   1.00
I949   I     0.38943   0.07388   0.80675   0.00000  Uiso   1.00
I950   I     0.61057   0.25945   0.69325   0.00000  Uiso   1.00
I951   I     0.62556   0.05606   0.74810   0.00000  Uiso   1.00
I952   I     0.37444   0.27727   0.75191   0.00000  Uiso   1.00
C953   C     0.44458   0.05125   0.68474   0.00000  Uiso   1.00
H954   H     0.44271   0.08851   0.68627   0.00000  Uiso   1.00
H955   H     0.45166   0.04295   0.65026   0.00000  Uiso   1.00
H956   H     0.41302   0.04094   0.68979   0.00000  Uiso   1.00
C957   C     0.55542   0.28208   0.81526   0.00000  Uiso   1.00
H958   H     0.55729   0.24482   0.81373   0.00000  Uiso   1.00
H959   H     0.58698   0.29240   0.81021   0.00000  Uiso   1.00
H960   H     0.54834   0.29038   0.84974   0.00000  Uiso   1.00
C961   C     0.54745   0.04716   0.82089   0.00000  Uiso   1.00
H962   H     0.55861   0.08019   0.81079   0.00000  Uiso   1.00
H963   H     0.52763   0.05152   0.84854   0.00000  Uiso   1.00
H964   H     0.57610   0.02879   0.83451   0.00000  Uiso   1.00
C965   C     0.45254   0.28617   0.67911   0.00000  Uiso   1.00
H966   H     0.44140   0.25312   0.68919   0.00000  Uiso   1.00
H967   H     0.42388   0.30453   0.66551   0.00000  Uiso   1.00
H968   H     0.47235   0.28184   0.65144   0.00000  Uiso   1.00
O969   O     0.77321   0.20625   0.75000   0.00000  Uiso   1.00
O970   O     0.89345   0.12709   0.75001   0.00000  Uiso   1.00
O971   O     0.89345   0.20625   0.75001   0.00000  Uiso   1.00
O972   O     0.77321   0.12709   0.75000   0.00000  Uiso   1.00
C973   C     0.75438   0.16743   0.75298   0.00000  Uiso   1.00
C974   C     0.91229   0.16591   0.74702   0.00000  Uiso   1.00
O975   O     0.83332   0.20627   0.68513   0.00000  Uiso   1.00
O976   O     0.83334   0.12707   0.81487   0.00000  Uiso   1.00
O977   O     0.83334   0.20627   0.81487   0.00000  Uiso   1.00
O978   O     0.83332   0.12707   0.68513   0.00000  Uiso   1.00
C979   C     0.83195   0.16684   0.66463   0.00000  Uiso   1.00
C980   C     0.83472   0.16650   0.83537   0.00000  Uiso   1.00
Cu981  Cu    0.83333   0.21355   0.75000   0.00000  Uiso   1.00
Cu982  Cu    0.83333   0.11978   0.75000   0.00000  Uiso   1.00
C983   C     0.87391   0.16362   0.91121   0.00000  Uiso   1.00
C984   C     0.79273   0.16977   0.58880   0.00000  Uiso   1.00
C985   C     0.83647   0.16663   0.88376   0.00000  Uiso   1.00
C986   C     0.83018   0.16673   0.61624   0.00000  Uiso   1.00
C987   C     0.79941   0.17212   0.90169   0.00000  Uiso   1.00
C988   C     0.86724   0.16130   0.59830   0.00000  Uiso   1.00
C989   C     0.79753   0.17196   0.94784   0.00000  Uiso   1.00
C990   C     0.86911   0.16151   0.55216   0.00000  Uiso   1.00
C991   C     0.83434   0.16761   0.97660   0.00000  Uiso   1.00
C992   C     0.83230   0.16586   0.52340   0.00000  Uiso   1.00
C993   C     0.87311   0.16696   0.95859   0.00000  Uiso   1.00
C994   C     0.79352   0.16651   0.54141   0.00000  Uiso   1.00
C995   C     0.75927   0.17445   0.96543   0.00000  Uiso   1.00
C996   C     0.90738   0.15910   0.53455   0.00000  Uiso   1.00
C997   C     0.75731   0.16490   0.51117   0.00000  Uiso   1.00
C998   C     0.90932   0.16864   0.98882   0.00000  Uiso   1.00
H999   H     0.77178   0.17420   0.87866   0.00000  Uiso   1.00
H1000  H     0.89487   0.15925   0.62133   0.00000  Uiso   1.00
C1001  C     0.69041   0.12767   0.76608   0.00000  Uiso   1.00
C1002  C     0.97626   0.20566   0.73392   0.00000  Uiso   1.00
C1003  C     0.98140   0.12434   0.75597   0.00000  Uiso   1.00
C1004  C     0.68526   0.20900   0.74403   0.00000  Uiso   1.00
C1005  C     0.95700   0.16455   0.74391   0.00000  Uiso   1.00
C1006  C     0.70967   0.16878   0.75609   0.00000  Uiso   1.00
C1007  C     0.80836   0.02597   0.71864   0.00000  Uiso   1.00
C1008  C     0.85831   0.30737   0.78136   0.00000  Uiso   1.00
C1009  C     0.85739   0.02349   0.78206   0.00000  Uiso   1.00
C1010  C     0.80927   0.30984   0.71794   0.00000  Uiso   1.00
N1011  N     0.83333   0.28402   0.75000   0.00000  Uiso   1.00
N1012  N     0.83333   0.04931   0.75000   0.00000  Uiso   1.00
C1013  C     0.91312   0.15219   0.88983   0.00000  Uiso   1.00
H1014  H     0.93087   0.12383   0.90875   0.00000  Uiso   1.00
H1015  H     0.90752   0.13968   0.85530   0.00000  Uiso   1.00
H1016  H     0.93160   0.18315   0.88702   0.00000  Uiso   1.00
C1017  C     0.75353   0.18118   0.61022   0.00000  Uiso   1.00
H1018  H     0.73590   0.20971   0.59149   0.00000  Uiso   1.00
H1019  H     0.73494   0.15029   0.61279   0.00000  Uiso   1.00
H1020  H     0.75911   0.19337   0.64484   0.00000  Uiso   1.00
C1021  C     0.72041   0.18784   0.93578   0.00000  Uiso   1.00
H1022  H     0.72577   0.21765   0.91385   0.00000  Uiso   1.00
H1023  H     0.70992   0.15822   0.91507   0.00000  Uiso   1.00
H1024  H     0.69570   0.19994   0.95582   0.00000  Uiso   1.00
C1025  C     0.94627   0.14581   0.56420   0.00000  Uiso   1.00
H1026  H     0.94097   0.11606   0.58622   0.00000  Uiso   1.00
H1027  H     0.97095   0.13367   0.54415   0.00000  Uiso   1.00
H1028  H     0.95676   0.17550   0.58481   0.00000  Uiso   1.00
C1029  C     0.71862   0.14393   0.52459   0.00000  Uiso   1.00
H1030  H     0.70107   0.12766   0.99577   0.00000  Uiso   1.00
H1031  H     0.72623   0.11506   0.54877   0.00000  Uiso   1.00
H1032  H     0.69851   0.17072   0.53789   0.00000  Uiso   1.00
C1033  C     0.94797   0.18967   0.97537   0.00000  Uiso   1.00
H1034  H     0.96543   0.20612   0.50417   0.00000  Uiso   1.00
H1035  H     0.96819   0.16286   0.96222   0.00000  Uiso   1.00
H1036  H     0.94032   0.21842   0.95104   0.00000  Uiso   1.00
I1037  I     0.72277   0.07388   0.80675   0.00000  Uiso   1.00
I1038  I     0.94390   0.25945   0.69325   0.00000  Uiso   1.00
I1039  I     0.95889   0.05606   0.74810   0.00000  Uiso   1.00
I1040  I     0.70777   0.27727   0.75191   0.00000  Uiso   1.00
C1041  C     0.77791   0.05125   0.68474   0.00000  Uiso   1.00
H1042  H     0.77605   0.08851   0.68627   0.00000  Uiso   1.00
H1043  H     0.78499   0.04295   0.65026   0.00000  Uiso   1.00
H1044  H     0.74635   0.04094   0.68979   0.00000  Uiso   1.00
C1045  C     0.88875   0.28208   0.81526   0.00000  Uiso   1.00
H1046  H     0.89062   0.24482   0.81373   0.00000  Uiso   1.00
H1047  H     0.92032   0.29240   0.81021   0.00000  Uiso   1.00
H1048  H     0.88167   0.29038   0.84974   0.00000  Uiso   1.00
C1049  C     0.88079   0.04716   0.82089   0.00000  Uiso   1.00
H1050  H     0.89194   0.08019   0.81079   0.00000  Uiso   1.00
H1051  H     0.86096   0.05152   0.84854   0.00000  Uiso   1.00
H1052  H     0.90943   0.02879   0.83451   0.00000  Uiso   1.00
C1053  C     0.78587   0.28617   0.67911   0.00000  Uiso   1.00
H1054  H     0.77473   0.25312   0.68919   0.00000  Uiso   1.00
H1055  H     0.75722   0.30453   0.66551   0.00000  Uiso   1.00
H1056  H     0.80569   0.28184   0.65144   0.00000  Uiso   1.00
O1057  O     0.10655   0.53958   0.75000   0.00000  Uiso   1.00
O1058  O     0.22679   0.46042   0.75001   0.00000  Uiso   1.00
O1059  O     0.22679   0.53958   0.75001   0.00000  Uiso   1.00
O1060  O     0.10655   0.46042   0.75000   0.00000  Uiso   1.00
C1061  C     0.08771   0.50076   0.75298   0.00000  Uiso   1.00
C1062  C     0.24562   0.49924   0.74702   0.00000  Uiso   1.00
O1063  O     0.16666   0.53960   0.68513   0.00000  Uiso   1.00
O1064  O     0.16668   0.46040   0.81487   0.00000  Uiso   1.00
O1065  O     0.16668   0.53960   0.81487   0.00000  Uiso   1.00
O1066  O     0.16666   0.46040   0.68513   0.00000  Uiso   1.00
C1067  C     0.16528   0.50017   0.66463   0.00000  Uiso   1.00
C1068  C     0.16805   0.49983   0.83537   0.00000  Uiso   1.00
Cu1069 Cu    0.16667   0.54689   0.75000   0.00000  Uiso   1.00
Cu1070 Cu    0.16667   0.45311   0.75000   0.00000  Uiso   1.00
C1071  C     0.20725   0.49695   0.91121   0.00000  Uiso   1.00
C1072  C     0.12606   0.50311   0.58880   0.00000  Uiso   1.00
C1073  C     0.16980   0.49996   0.88376   0.00000  Uiso   1.00
C1074  C     0.16352   0.50006   0.61624   0.00000  Uiso   1.00
C1075  C     0.13275   0.50545   0.90169   0.00000  Uiso   1.00
C1076  C     0.20057   0.49464   0.59830   0.00000  Uiso   1.00
C1077  C     0.13086   0.50530   0.94784   0.00000  Uiso   1.00
C1078  C     0.20245   0.49485   0.55216   0.00000  Uiso   1.00
C1079  C     0.16767   0.50094   0.97660   0.00000  Uiso   1.00
C1080  C     0.16563   0.49920   0.52340   0.00000  Uiso   1.00
C1081  C     0.20644   0.50029   0.95859   0.00000  Uiso   1.00
C1082  C     0.12686   0.49984   0.54141   0.00000  Uiso   1.00
C1083  C     0.09260   0.50778   0.96543   0.00000  Uiso   1.00
C1084  C     0.24071   0.49243   0.53455   0.00000  Uiso   1.00
C1085  C     0.09065   0.49823   0.51117   0.00000  Uiso   1.00
C1086  C     0.24265   0.50197   0.98882   0.00000  Uiso   1.00
H1087  H     0.10512   0.50753   0.87866   0.00000  Uiso   1.00
H1088  H     0.22820   0.49258   0.62133   0.00000  Uiso   1.00
C1089  C     0.02374   0.46100   0.76608   0.00000  Uiso   1.00
C1090  C     0.30959   0.53900   0.73392   0.00000  Uiso   1.00
C1091  C     0.31474   0.45767   0.75597   0.00000  Uiso   1.00
C1092  C     0.01860   0.54233   0.74403   0.00000  Uiso   1.00
C1093  C     0.29033   0.49788   0.74391   0.00000  Uiso   1.00
C1094  C     0.04300   0.50211   0.75609   0.00000  Uiso   1.00
C1095  C     0.14169   0.35930   0.71864   0.00000  Uiso   1.00
C1096  C     0.19164   0.64070   0.78136   0.00000  Uiso   1.00
C1097  C     0.19072   0.35682   0.78206   0.00000  Uiso   1.00
C1098  C     0.14261   0.64318   0.71794   0.00000  Uiso   1.00
N1099  N     0.16667   0.61736   0.75000   0.00000  Uiso   1.00
N1100  N     0.16667   0.38264   0.75000   0.00000  Uiso   1.00
C1101  C     0.24646   0.48552   0.88983   0.00000  Uiso   1.00
H1102  H     0.26420   0.45716   0.90875   0.00000  Uiso   1.00
H1103  H     0.24085   0.47301   0.85530   0.00000  Uiso   1.00
H1104  H     0.26494   0.51649   0.88702   0.00000  Uiso   1.00
C1105  C     0.08686   0.51451   0.61022   0.00000  Uiso   1.00
H1106  H     0.06923   0.54305   0.59149   0.00000  Uiso   1.00
H1107  H     0.06827   0.48362   0.61279   0.00000  Uiso   1.00
H1108  H     0.09245   0.52670   0.64484   0.00000  Uiso   1.00
C1109  C     0.05374   0.52117   0.93578   0.00000  Uiso   1.00
H1110  H     0.05910   0.55098   0.91385   0.00000  Uiso   1.00
H1111  H     0.04325   0.49155   0.91507   0.00000  Uiso   1.00
H1112  H     0.02903   0.53327   0.95582   0.00000  Uiso   1.00
C1113  C     0.27961   0.47914   0.56420   0.00000  Uiso   1.00
H1114  H     0.27430   0.44939   0.58622   0.00000  Uiso   1.00
H1115  H     0.30429   0.46700   0.54415   0.00000  Uiso   1.00
H1116  H     0.29010   0.50883   0.58481   0.00000  Uiso   1.00
C1117  C     0.05196   0.47727   0.52459   0.00000  Uiso   1.00
H1118  H     0.03441   0.46099   0.99577   0.00000  Uiso   1.00
H1119  H     0.05956   0.44839   0.54877   0.00000  Uiso   1.00
H1120  H     0.03184   0.50406   0.53789   0.00000  Uiso   1.00
C1121  C     0.28130   0.52300   0.97537   0.00000  Uiso   1.00
H1122  H     0.29877   0.53946   0.50417   0.00000  Uiso   1.00
H1123  H     0.30152   0.49620   0.96222   0.00000  Uiso   1.00
H1124  H     0.27366   0.55175   0.95104   0.00000  Uiso   1.00
I1125  I     0.05610   0.40721   0.80675   0.00000  Uiso   1.00
I1126  I     0.27723   0.59278   0.69325   0.00000  Uiso   1.00
I1127  I     0.29223   0.38940   0.74810   0.00000  Uiso   1.00
I1128  I     0.04111   0.61060   0.75191   0.00000  Uiso   1.00
C1129  C     0.11124   0.38458   0.68474   0.00000  Uiso   1.00
H1130  H     0.10938   0.42184   0.68627   0.00000  Uiso   1.00
H1131  H     0.11832   0.37628   0.65026   0.00000  Uiso   1.00
H1132  H     0.07968   0.37427   0.68979   0.00000  Uiso   1.00
C1133  C     0.22209   0.61542   0.81526   0.00000  Uiso   1.00
H1134  H     0.22396   0.57816   0.81373   0.00000  Uiso   1.00
H1135  H     0.25365   0.62573   0.81021   0.00000  Uiso   1.00
H1136  H     0.21501   0.62371   0.84974   0.00000  Uiso   1.00
C1137  C     0.21412   0.38049   0.82089   0.00000  Uiso   1.00
H1138  H     0.22528   0.41352   0.81079   0.00000  Uiso   1.00
H1139  H     0.19430   0.38486   0.84854   0.00000  Uiso   1.00
H1140  H     0.24277   0.36212   0.83451   0.00000  Uiso   1.00
C1141  C     0.11921   0.61950   0.67911   0.00000  Uiso   1.00
H1142  H     0.10807   0.58646   0.68919   0.00000  Uiso   1.00
H1143  H     0.09055   0.63787   0.66551   0.00000  Uiso   1.00
H1144  H     0.13902   0.61517   0.65144   0.00000  Uiso   1.00
O1145  O     0.43988   0.53958   0.75000   0.00000  Uiso   1.00
O1146  O     0.56012   0.46042   0.75001   0.00000  Uiso   1.00
O1147  O     0.56012   0.53958   0.75001   0.00000  Uiso   1.00
O1148  O     0.43988   0.46042   0.75000   0.00000  Uiso   1.00
C1149  C     0.42105   0.50076   0.75298   0.00000  Uiso   1.00
C1150  C     0.57895   0.49924   0.74702   0.00000  Uiso   1.00
O1151  O     0.49999   0.53960   0.68513   0.00000  Uiso   1.00
O1152  O     0.50001   0.46040   0.81487   0.00000  Uiso   1.00
O1153  O     0.50001   0.53960   0.81487   0.00000  Uiso   1.00
O1154  O     0.49999   0.46040   0.68513   0.00000  Uiso   1.00
C1155  C     0.49862   0.50017   0.66463   0.00000  Uiso   1.00
C1156  C     0.50139   0.49983   0.83537   0.00000  Uiso   1.00
Cu1157 Cu    0.50000   0.54689   0.75000   0.00000  Uiso   1.00
Cu1158 Cu    0.50000   0.45311   0.75000   0.00000  Uiso   1.00
C1159  C     0.54058   0.49695   0.91121   0.00000  Uiso   1.00
C1160  C     0.45939   0.50311   0.58880   0.00000  Uiso   1.00
C1161  C     0.50313   0.49996   0.88376   0.00000  Uiso   1.00
C1162  C     0.49685   0.50006   0.61624   0.00000  Uiso   1.00
C1163  C     0.46608   0.50545   0.90169   0.00000  Uiso   1.00
C1164  C     0.53390   0.49464   0.59830   0.00000  Uiso   1.00
C1165  C     0.46420   0.50530   0.94784   0.00000  Uiso   1.00
C1166  C     0.53578   0.49485   0.55216   0.00000  Uiso   1.00
C1167  C     0.50100   0.50094   0.97660   0.00000  Uiso   1.00
C1168  C     0.49897   0.49920   0.52340   0.00000  Uiso   1.00
C1169  C     0.53978   0.50029   0.95859   0.00000  Uiso   1.00
C1170  C     0.46019   0.49984   0.54141   0.00000  Uiso   1.00
C1171  C     0.42593   0.50778   0.96543   0.00000  Uiso   1.00
C1172  C     0.57405   0.49243   0.53455   0.00000  Uiso   1.00
C1173  C     0.42398   0.49823   0.51117   0.00000  Uiso   1.00
C1174  C     0.57598   0.50197   0.98882   0.00000  Uiso   1.00
H1175  H     0.43845   0.50753   0.87866   0.00000  Uiso   1.00
H1176  H     0.56154   0.49258   0.62133   0.00000  Uiso   1.00
C1177  C     0.35708   0.46100   0.76608   0.00000  Uiso   1.00
C1178  C     0.64292   0.53900   0.73392   0.00000  Uiso   1.00
C1179  C     0.64807   0.45767   0.75597   0.00000  Uiso   1.00
C1180  C     0.35193   0.54233   0.74403   0.00000  Uiso   1.00
C1181  C     0.62367   0.49788   0.74391   0.00000  Uiso   1.00
C1182  C     0.37633   0.50211   0.75609   0.00000  Uiso   1.00
C1183  C     0.47503   0.35930   0.71864   0.00000  Uiso   1.00
C1184  C     0.52497   0.64070   0.78136   0.00000  Uiso   1.00
C1185  C     0.52406   0.35682   0.78206   0.00000  Uiso   1.00
C1186  C     0.47594   0.64318   0.71794   0.00000  Uiso   1.00
N1187  N     0.50000   0.61736   0.75000   0.00000  Uiso   1.00
N1188  N     0.50000   0.38264   0.75000   0.00000  Uiso   1.00
C1189  C     0.57979   0.48552   0.88983   0.00000  Uiso   1.00
H1190  H     0.59754   0.45716   0.90875   0.00000  Uiso   1.00
H1191  H     0.57419   0.47301   0.85530   0.00000  Uiso   1.00
H1192  H     0.59827   0.51649   0.88702   0.00000  Uiso   1.00
C1193  C     0.42020   0.51451   0.61022   0.00000  Uiso   1.00
H1194  H     0.40257   0.54305   0.59149   0.00000  Uiso   1.00
H1195  H     0.40161   0.48362   0.61279   0.00000  Uiso   1.00
H1196  H     0.42578   0.52670   0.64484   0.00000  Uiso   1.00
C1197  C     0.38707   0.52117   0.93578   0.00000  Uiso   1.00
H1198  H     0.39244   0.55098   0.91385   0.00000  Uiso   1.00
H1199  H     0.37659   0.49155   0.91507   0.00000  Uiso   1.00
H1200  H     0.36237   0.53327   0.95582   0.00000  Uiso   1.00
C1201  C     0.61294   0.47914   0.56420   0.00000  Uiso   1.00
H1202  H     0.60763   0.44939   0.58622   0.00000  Uiso   1.00
H1203  H     0.63762   0.46700   0.54415   0.00000  Uiso   1.00
H1204  H     0.62343   0.50883   0.58481   0.00000  Uiso   1.00
C1205  C     0.38529   0.47727   0.52459   0.00000  Uiso   1.00
H1206  H     0.36774   0.46099   0.99577   0.00000  Uiso   1.00
H1207  H     0.39290   0.44839   0.54877   0.00000  Uiso   1.00
H1208  H     0.36517   0.50406   0.53789   0.00000  Uiso   1.00
C1209  C     0.61464   0.52300   0.97537   0.00000  Uiso   1.00
H1210  H     0.63210   0.53946   0.50417   0.00000  Uiso   1.00
H1211  H     0.63485   0.49620   0.96222   0.00000  Uiso   1.00
H1212  H     0.60699   0.55175   0.95104   0.00000  Uiso   1.00
I1213  I     0.38943   0.40721   0.80675   0.00000  Uiso   1.00
I1214  I     0.61057   0.59278   0.69325   0.00000  Uiso   1.00
I1215  I     0.62556   0.38940   0.74810   0.00000  Uiso   1.00
I1216  I     0.37444   0.61060   0.75191   0.00000  Uiso   1.00
C1217  C     0.44458   0.38458   0.68474   0.00000  Uiso   1.00
H1218  H     0.44271   0.42184   0.68627   0.00000  Uiso   1.00
H1219  H     0.45166   0.37628   0.65026   0.00000  Uiso   1.00
H1220  H     0.41302   0.37427   0.68979   0.00000  Uiso   1.00
C1221  C     0.55542   0.61542   0.81526   0.00000  Uiso   1.00
H1222  H     0.55729   0.57816   0.81373   0.00000  Uiso   1.00
H1223  H     0.58698   0.62573   0.81021   0.00000  Uiso   1.00
H1224  H     0.54834   0.62371   0.84974   0.00000  Uiso   1.00
C1225  C     0.54745   0.38049   0.82089   0.00000  Uiso   1.00
H1226  H     0.55861   0.41352   0.81079   0.00000  Uiso   1.00
H1227  H     0.52763   0.38486   0.84854   0.00000  Uiso   1.00
H1228  H     0.57610   0.36212   0.83451   0.00000  Uiso   1.00
C1229  C     0.45254   0.61950   0.67911   0.00000  Uiso   1.00
H1230  H     0.44140   0.58646   0.68919   0.00000  Uiso   1.00
H1231  H     0.42388   0.63787   0.66551   0.00000  Uiso   1.00
H1232  H     0.47235   0.61517   0.65144   0.00000  Uiso   1.00
O1233  O     0.77321   0.53958   0.75000   0.00000  Uiso   1.00
O1234  O     0.89345   0.46042   0.75001   0.00000  Uiso   1.00
O1235  O     0.89345   0.53958   0.75001   0.00000  Uiso   1.00
O1236  O     0.77321   0.46042   0.75000   0.00000  Uiso   1.00
C1237  C     0.75438   0.50076   0.75298   0.00000  Uiso   1.00
C1238  C     0.91229   0.49924   0.74702   0.00000  Uiso   1.00
O1239  O     0.83332   0.53960   0.68513   0.00000  Uiso   1.00
O1240  O     0.83334   0.46040   0.81487   0.00000  Uiso   1.00
O1241  O     0.83334   0.53960   0.81487   0.00000  Uiso   1.00
O1242  O     0.83332   0.46040   0.68513   0.00000  Uiso   1.00
C1243  C     0.83195   0.50017   0.66463   0.00000  Uiso   1.00
C1244  C     0.83472   0.49983   0.83537   0.00000  Uiso   1.00
Cu1245 Cu    0.83333   0.54689   0.75000   0.00000  Uiso   1.00
Cu1246 Cu    0.83333   0.45311   0.75000   0.00000  Uiso   1.00
C1247  C     0.87391   0.49695   0.91121   0.00000  Uiso   1.00
C1248  C     0.79273   0.50311   0.58880   0.00000  Uiso   1.00
C1249  C     0.83647   0.49996   0.88376   0.00000  Uiso   1.00
C1250  C     0.83018   0.50006   0.61624   0.00000  Uiso   1.00
C1251  C     0.79941   0.50545   0.90169   0.00000  Uiso   1.00
C1252  C     0.86724   0.49464   0.59830   0.00000  Uiso   1.00
C1253  C     0.79753   0.50530   0.94784   0.00000  Uiso   1.00
C1254  C     0.86911   0.49485   0.55216   0.00000  Uiso   1.00
C1255  C     0.83434   0.50094   0.97660   0.00000  Uiso   1.00
C1256  C     0.83230   0.49920   0.52340   0.00000  Uiso   1.00
C1257  C     0.87311   0.50029   0.95859   0.00000  Uiso   1.00
C1258  C     0.79352   0.49984   0.54141   0.00000  Uiso   1.00
C1259  C     0.75927   0.50778   0.96543   0.00000  Uiso   1.00
C1260  C     0.90738   0.49243   0.53455   0.00000  Uiso   1.00
C1261  C     0.75731   0.49823   0.51117   0.00000  Uiso   1.00
C1262  C     0.90932   0.50197   0.98882   0.00000  Uiso   1.00
H1263  H     0.77178   0.50753   0.87866   0.00000  Uiso   1.00
H1264  H     0.89487   0.49258   0.62133   0.00000  Uiso   1.00
C1265  C     0.69041   0.46100   0.76608   0.00000  Uiso   1.00
C1266  C     0.97626   0.53900   0.73392   0.00000  Uiso   1.00
C1267  C     0.98140   0.45767   0.75597   0.00000  Uiso   1.00
C1268  C     0.68526   0.54233   0.74403   0.00000  Uiso   1.00
C1269  C     0.95700   0.49788   0.74391   0.00000  Uiso   1.00
C1270  C     0.70967   0.50211   0.75609   0.00000  Uiso   1.00
C1271  C     0.80836   0.35930   0.71864   0.00000  Uiso   1.00
C1272  C     0.85831   0.64070   0.78136   0.00000  Uiso   1.00
C1273  C     0.85739   0.35682   0.78206   0.00000  Uiso   1.00
C1274  C     0.80927   0.64318   0.71794   0.00000  Uiso   1.00
N1275  N     0.83333   0.61736   0.75000   0.00000  Uiso   1.00
N1276  N     0.83333   0.38264   0.75000   0.00000  Uiso   1.00
C1277  C     0.91312   0.48552   0.88983   0.00000  Uiso   1.00
H1278  H     0.93087   0.45716   0.90875   0.00000  Uiso   1.00
H1279  H     0.90752   0.47301   0.85530   0.00000  Uiso   1.00
H1280  H     0.93160   0.51649   0.88702   0.00000  Uiso   1.00
C1281  C     0.75353   0.51451   0.61022   0.00000  Uiso   1.00
H1282  H     0.73590   0.54305   0.59149   0.00000  Uiso   1.00
H1283  H     0.73494   0.48362   0.61279   0.00000  Uiso   1.00
H1284  H     0.75911   0.52670   0.64484   0.00000  Uiso   1.00
C1285  C     0.72041   0.52117   0.93578   0.00000  Uiso   1.00
H1286  H     0.72577   0.55098   0.91385   0.00000  Uiso   1.00
H1287  H     0.70992   0.49155   0.91507   0.00000  Uiso   1.00
H1288  H     0.69570   0.53327   0.95582   0.00000  Uiso   1.00
C1289  C     0.94627   0.47914   0.56420   0.00000  Uiso   1.00
H1290  H     0.94097   0.44939   0.58622   0.00000  Uiso   1.00
H1291  H     0.97095   0.46700   0.54415   0.00000  Uiso   1.00
H1292  H     0.95676   0.50883   0.58481   0.00000  Uiso   1.00
C1293  C     0.71862   0.47727   0.52459   0.00000  Uiso   1.00
H1294  H     0.70107   0.46099   0.99577   0.00000  Uiso   1.00
H1295  H     0.72623   0.44839   0.54877   0.00000  Uiso   1.00
H1296  H     0.69851   0.50406   0.53789   0.00000  Uiso   1.00
C1297  C     0.94797   0.52300   0.97537   0.00000  Uiso   1.00
H1298  H     0.96543   0.53946   0.50417   0.00000  Uiso   1.00
H1299  H     0.96819   0.49620   0.96222   0.00000  Uiso   1.00
H1300  H     0.94032   0.55175   0.95104   0.00000  Uiso   1.00
I1301  I     0.72277   0.40721   0.80675   0.00000  Uiso   1.00
I1302  I     0.94390   0.59278   0.69325   0.00000  Uiso   1.00
I1303  I     0.95889   0.38940   0.74810   0.00000  Uiso   1.00
I1304  I     0.70777   0.61060   0.75191   0.00000  Uiso   1.00
C1305  C     0.77791   0.38458   0.68474   0.00000  Uiso   1.00
H1306  H     0.77605   0.42184   0.68627   0.00000  Uiso   1.00
H1307  H     0.78499   0.37628   0.65026   0.00000  Uiso   1.00
H1308  H     0.74635   0.37427   0.68979   0.00000  Uiso   1.00
C1309  C     0.88875   0.61542   0.81526   0.00000  Uiso   1.00
H1310  H     0.89062   0.57816   0.81373   0.00000  Uiso   1.00
H1311  H     0.92032   0.62573   0.81021   0.00000  Uiso   1.00
H1312  H     0.88167   0.62371   0.84974   0.00000  Uiso   1.00
C1313  C     0.88079   0.38049   0.82089   0.00000  Uiso   1.00
H1314  H     0.89194   0.41352   0.81079   0.00000  Uiso   1.00
H1315  H     0.86096   0.38486   0.84854   0.00000  Uiso   1.00
H1316  H     0.90943   0.36212   0.83451   0.00000  Uiso   1.00
C1317  C     0.78587   0.61950   0.67911   0.00000  Uiso   1.00
H1318  H     0.77473   0.58646   0.68919   0.00000  Uiso   1.00
H1319  H     0.75722   0.63787   0.66551   0.00000  Uiso   1.00
H1320  H     0.80569   0.61517   0.65144   0.00000  Uiso   1.00
O1321  O     0.10655   0.87291   0.75000   0.00000  Uiso   1.00
O1322  O     0.22679   0.79375   0.75001   0.00000  Uiso   1.00
O1323  O     0.22679   0.87291   0.75001   0.00000  Uiso   1.00
O1324  O     0.10655   0.79375   0.75000   0.00000  Uiso   1.00
C1325  C     0.08771   0.83409   0.75298   0.00000  Uiso   1.00
C1326  C     0.24562   0.83257   0.74702   0.00000  Uiso   1.00
O1327  O     0.16666   0.87293   0.68513   0.00000  Uiso   1.00
O1328  O     0.16668   0.79373   0.81487   0.00000  Uiso   1.00
O1329  O     0.16668   0.87293   0.81487   0.00000  Uiso   1.00
O1330  O     0.16666   0.79373   0.68513   0.00000  Uiso   1.00
C1331  C     0.16528   0.83350   0.66463   0.00000  Uiso   1.00
C1332  C     0.16805   0.83317   0.83537   0.00000  Uiso   1.00
Cu1333 Cu    0.16667   0.88022   0.75000   0.00000  Uiso   1.00
Cu1334 Cu    0.16667   0.78645   0.75000   0.00000  Uiso   1.00
C1335  C     0.20725   0.83028   0.91121   0.00000  Uiso   1.00
C1336  C     0.12606   0.83644   0.58880   0.00000  Uiso   1.00
C1337  C     0.16980   0.83329   0.88376   0.00000  Uiso   1.00
C1338  C     0.16352   0.83339   0.61624   0.00000  Uiso   1.00
C1339  C     0.13275   0.83879   0.90169   0.00000  Uiso   1.00
C1340  C     0.20057   0.82797   0.59830   0.00000  Uiso   1.00
C1341  C     0.13086   0.83863   0.94784   0.00000  Uiso   1.00
C1342  C     0.20245   0.82818   0.55216   0.00000  Uiso   1.00
C1343  C     0.16767   0.83427   0.97660   0.00000  Uiso   1.00
C1344  C     0.16563   0.83253   0.52340   0.00000  Uiso   1.00
C1345  C     0.20644   0.83362   0.95859   0.00000  Uiso   1.00
C1346  C     0.12686   0.83318   0.54141   0.00000  Uiso   1.00
C1347  C     0.09260   0.84111   0.96543   0.00000  Uiso   1.00
C1348  C     0.24071   0.82577   0.53455   0.00000  Uiso   1.00
C1349  C     0.09065   0.83157   0.51117   0.00000  Uiso   1.00
C1350  C     0.24265   0.83530   0.98882   0.00000  Uiso   1.00
H1351  H     0.10512   0.84086   0.87866   0.00000  Uiso   1.00
H1352  H     0.22820   0.82592   0.62133   0.00000  Uiso   1.00
C1353  C     0.02374   0.79433   0.76608   0.00000  Uiso   1.00
C1354  C     0.30959   0.87233   0.73392   0.00000  Uiso   1.00
C1355  C     0.31474   0.79100   0.75597   0.00000  Uiso   1.00
C1356  C     0.01860   0.87566   0.74403   0.00000  Uiso   1.00
C1357  C     0.29033   0.83122   0.74391   0.00000  Uiso   1.00
C1358  C     0.04300   0.83545   0.75609   0.00000  Uiso   1.00
C1359  C     0.14169   0.69263   0.71864   0.00000  Uiso   1.00
C1360  C     0.19164   0.97403   0.78136   0.00000  Uiso   1.00
C1361  C     0.19072   0.69015   0.78206   0.00000  Uiso   1.00
C1362  C     0.14261   0.97651   0.71794   0.00000  Uiso   1.00
N1363  N     0.16667   0.95069   0.75000   0.00000  Uiso   1.00
N1364  N     0.16667   0.71598   0.75000   0.00000  Uiso   1.00
C1365  C     0.24646   0.81885   0.88983   0.00000  Uiso   1.00
H1366  H     0.26420   0.79050   0.90875   0.00000  Uiso   1.00
H1367  H     0.24085   0.80634   0.85530   0.00000  Uiso   1.00
H1368  H     0.26494   0.84982   0.88702   0.00000  Uiso   1.00
C1369  C     0.08686   0.84784   0.61022   0.00000  Uiso   1.00
H1370  H     0.06923   0.87638   0.59149   0.00000  Uiso   1.00
H1371  H     0.06827   0.81696   0.61279   0.00000  Uiso   1.00
H1372  H     0.09245   0.86004   0.64484   0.00000  Uiso   1.00
C1373  C     0.05374   0.85451   0.93578   0.00000  Uiso   1.00
H1374  H     0.05910   0.88431   0.91385   0.00000  Uiso   1.00
H1375  H     0.04325   0.82488   0.91507   0.00000  Uiso   1.00
H1376  H     0.02903   0.86661   0.95582   0.00000  Uiso   1.00
C1377  C     0.27961   0.81248   0.56420   0.00000  Uiso   1.00
H1378  H     0.27430   0.78272   0.58622   0.00000  Uiso   1.00
H1379  H     0.30429   0.80034   0.54415   0.00000  Uiso   1.00
H1380  H     0.29010   0.84217   0.58481   0.00000  Uiso   1.00
C1381  C     0.05196   0.81060   0.52459   0.00000  Uiso   1.00
H1382  H     0.03441   0.79432   0.99577   0.00000  Uiso   1.00
H1383  H     0.05956   0.78172   0.54877   0.00000  Uiso   1.00
H1384  H     0.03184   0.83739   0.53789   0.00000  Uiso   1.00
C1385  C     0.28130   0.85633   0.97537   0.00000  Uiso   1.00
H1386  H     0.29877   0.87279   0.50417   0.00000  Uiso   1.00
H1387  H     0.30152   0.82953   0.96222   0.00000  Uiso   1.00
H1388  H     0.27366   0.88509   0.95104   0.00000  Uiso   1.00
I1389  I     0.05610   0.74055   0.80675   0.00000  Uiso   1.00
I1390  I     0.27723   0.92612   0.69325   0.00000  Uiso   1.00
I1391  I     0.29223   0.72273   0.74810   0.00000  Uiso   1.00
I1392  I     0.04111   0.94393   0.75191   0.00000  Uiso   1.00
C1393  C     0.11124   0.71792   0.68474   0.00000  Uiso   1.00
H1394  H     0.10938   0.75517   0.68627   0.00000  Uiso   1.00
H1395  H     0.11832   0.70961   0.65026   0.00000  Uiso   1.00
H1396  H     0.07968   0.70760   0.68979   0.00000  Uiso   1.00
C1397  C     0.22209   0.94875   0.81526   0.00000  Uiso   1.00
H1398  H     0.22396   0.91149   0.81373   0.00000  Uiso   1.00
H1399  H     0.25365   0.95906   0.81021   0.00000  Uiso   1.00
H1400  H     0.21501   0.95705   0.84974   0.00000  Uiso   1.00
C1401  C     0.21412   0.71383   0.82089   0.00000  Uiso   1.00
H1402  H     0.22528   0.74685   0.81079   0.00000  Uiso   1.00
H1403  H     0.19430   0.71819   0.84854   0.00000  Uiso   1.00
H1404  H     0.24277   0.69546   0.83451   0.00000  Uiso   1.00
C1405  C     0.11921   0.95284   0.67911   0.00000  Uiso   1.00
H1406  H     0.10807   0.91979   0.68919   0.00000  Uiso   1.00
H1407  H     0.09055   0.97120   0.66551   0.00000  Uiso   1.00
H1408  H     0.13902   0.94850   0.65144   0.00000  Uiso   1.00
O1409  O     0.43988   0.87291   0.75000   0.00000  Uiso   1.00
O1410  O     0.56012   0.79375   0.75001   0.00000  Uiso   1.00
O1411  O     0.56012   0.87291   0.75001   0.00000  Uiso   1.00
O1412  O     0.43988   0.79375   0.75000   0.00000  Uiso   1.00
C1413  C     0.42105   0.83409   0.75298   0.00000  Uiso   1.00
C1414  C     0.57895   0.83257   0.74702   0.00000  Uiso   1.00
O1415  O     0.49999   0.87293   0.68513   0.00000  Uiso   1.00
O1416  O     0.50001   0.79373   0.81487   0.00000  Uiso   1.00
O1417  O     0.50001   0.87293   0.81487   0.00000  Uiso   1.00
O1418  O     0.49999   0.79373   0.68513   0.00000  Uiso   1.00
C1419  C     0.49862   0.83350   0.66463   0.00000  Uiso   1.00
C1420  C     0.50139   0.83317   0.83537   0.00000  Uiso   1.00
Cu1421 Cu    0.50000   0.88022   0.75000   0.00000  Uiso   1.00
Cu1422 Cu    0.50000   0.78645   0.75000   0.00000  Uiso   1.00
C1423  C     0.54058   0.83028   0.91121   0.00000  Uiso   1.00
C1424  C     0.45939   0.83644   0.58880   0.00000  Uiso   1.00
C1425  C     0.50313   0.83329   0.88376   0.00000  Uiso   1.00
C1426  C     0.49685   0.83339   0.61624   0.00000  Uiso   1.00
C1427  C     0.46608   0.83879   0.90169   0.00000  Uiso   1.00
C1428  C     0.53390   0.82797   0.59830   0.00000  Uiso   1.00
C1429  C     0.46420   0.83863   0.94784   0.00000  Uiso   1.00
C1430  C     0.53578   0.82818   0.55216   0.00000  Uiso   1.00
C1431  C     0.50100   0.83427   0.97660   0.00000  Uiso   1.00
C1432  C     0.49897   0.83253   0.52340   0.00000  Uiso   1.00
C1433  C     0.53978   0.83362   0.95859   0.00000  Uiso   1.00
C1434  C     0.46019   0.83318   0.54141   0.00000  Uiso   1.00
C1435  C     0.42593   0.84111   0.96543   0.00000  Uiso   1.00
C1436  C     0.57405   0.82577   0.53455   0.00000  Uiso   1.00
C1437  C     0.42398   0.83157   0.51117   0.00000  Uiso   1.00
C1438  C     0.57598   0.83530   0.98882   0.00000  Uiso   1.00
H1439  H     0.43845   0.84086   0.87866   0.00000  Uiso   1.00
H1440  H     0.56154   0.82592   0.62133   0.00000  Uiso   1.00
C1441  C     0.35708   0.79433   0.76608   0.00000  Uiso   1.00
C1442  C     0.64292   0.87233   0.73392   0.00000  Uiso   1.00
C1443  C     0.64807   0.79100   0.75597   0.00000  Uiso   1.00
C1444  C     0.35193   0.87566   0.74403   0.00000  Uiso   1.00
C1445  C     0.62367   0.83122   0.74391   0.00000  Uiso   1.00
C1446  C     0.37633   0.83545   0.75609   0.00000  Uiso   1.00
C1447  C     0.47503   0.69263   0.71864   0.00000  Uiso   1.00
C1448  C     0.52497   0.97403   0.78136   0.00000  Uiso   1.00
C1449  C     0.52406   0.69015   0.78206   0.00000  Uiso   1.00
C1450  C     0.47594   0.97651   0.71794   0.00000  Uiso   1.00
N1451  N     0.50000   0.95069   0.75000   0.00000  Uiso   1.00
N1452  N     0.50000   0.71598   0.75000   0.00000  Uiso   1.00
C1453  C     0.57979   0.81885   0.88983   0.00000  Uiso   1.00
H1454  H     0.59754   0.79050   0.90875   0.00000  Uiso   1.00
H1455  H     0.57419   0.80634   0.85530   0.00000  Uiso   1.00
H1456  H     0.59827   0.84982   0.88702   0.00000  Uiso   1.00
C1457  C     0.42020   0.84784   0.61022   0.00000  Uiso   1.00
H1458  H     0.40257   0.87638   0.59149   0.00000  Uiso   1.00
H1459  H     0.40161   0.81696   0.61279   0.00000  Uiso   1.00
H1460  H     0.42578   0.86004   0.64484   0.00000  Uiso   1.00
C1461  C     0.38707   0.85451   0.93578   0.00000  Uiso   1.00
H1462  H     0.39244   0.88431   0.91385   0.00000  Uiso   1.00
H1463  H     0.37659   0.82488   0.91507   0.00000  Uiso   1.00
H1464  H     0.36237   0.86661   0.95582   0.00000  Uiso   1.00
C1465  C     0.61294   0.81248   0.56420   0.00000  Uiso   1.00
H1466  H     0.60763   0.78272   0.58622   0.00000  Uiso   1.00
H1467  H     0.63762   0.80034   0.54415   0.00000  Uiso   1.00
H1468  H     0.62343   0.84217   0.58481   0.00000  Uiso   1.00
C1469  C     0.38529   0.81060   0.52459   0.00000  Uiso   1.00
H1470  H     0.36774   0.79432   0.99577   0.00000  Uiso   1.00
H1471  H     0.39290   0.78172   0.54877   0.00000  Uiso   1.00
H1472  H     0.36517   0.83739   0.53789   0.00000  Uiso   1.00
C1473  C     0.61464   0.85633   0.97537   0.00000  Uiso   1.00
H1474  H     0.63210   0.87279   0.50417   0.00000  Uiso   1.00
H1475  H     0.63485   0.82953   0.96222   0.00000  Uiso   1.00
H1476  H     0.60699   0.88509   0.95104   0.00000  Uiso   1.00
I1477  I     0.38943   0.74055   0.80675   0.00000  Uiso   1.00
I1478  I     0.61057   0.92612   0.69325   0.00000  Uiso   1.00
I1479  I     0.62556   0.72273   0.74810   0.00000  Uiso   1.00
I1480  I     0.37444   0.94393   0.75191   0.00000  Uiso   1.00
C1481  C     0.44458   0.71792   0.68474   0.00000  Uiso   1.00
H1482  H     0.44271   0.75517   0.68627   0.00000  Uiso   1.00
H1483  H     0.45166   0.70961   0.65026   0.00000  Uiso   1.00
H1484  H     0.41302   0.70760   0.68979   0.00000  Uiso   1.00
C1485  C     0.55542   0.94875   0.81526   0.00000  Uiso   1.00
H1486  H     0.55729   0.91149   0.81373   0.00000  Uiso   1.00
H1487  H     0.58698   0.95906   0.81021   0.00000  Uiso   1.00
H1488  H     0.54834   0.95705   0.84974   0.00000  Uiso   1.00
C1489  C     0.54745   0.71383   0.82089   0.00000  Uiso   1.00
H1490  H     0.55861   0.74685   0.81079   0.00000  Uiso   1.00
H1491  H     0.52763   0.71819   0.84854   0.00000  Uiso   1.00
H1492  H     0.57610   0.69546   0.83451   0.00000  Uiso   1.00
C1493  C     0.45254   0.95284   0.67911   0.00000  Uiso   1.00
H1494  H     0.44140   0.91979   0.68919   0.00000  Uiso   1.00
H1495  H     0.42388   0.97120   0.66551   0.00000  Uiso   1.00
H1496  H     0.47235   0.94850   0.65144   0.00000  Uiso   1.00
O1497  O     0.77321   0.87291   0.75000   0.00000  Uiso   1.00
O1498  O     0.89345   0.79375   0.75001   0.00000  Uiso   1.00
O1499  O     0.89345   0.87291   0.75001   0.00000  Uiso   1.00
O1500  O     0.77321   0.79375   0.75000   0.00000  Uiso   1.00
C1501  C     0.75438   0.83409   0.75298   0.00000  Uiso   1.00
C1502  C     0.91229   0.83257   0.74702   0.00000  Uiso   1.00
O1503  O     0.83332   0.87293   0.68513   0.00000  Uiso   1.00
O1504  O     0.83334   0.79373   0.81487   0.00000  Uiso   1.00
O1505  O     0.83334   0.87293   0.81487   0.00000  Uiso   1.00
O1506  O     0.83332   0.79373   0.68513   0.00000  Uiso   1.00
C1507  C     0.83195   0.83350   0.66463   0.00000  Uiso   1.00
C1508  C     0.83472   0.83317   0.83537   0.00000  Uiso   1.00
Cu1509 Cu    0.83333   0.88022   0.75000   0.00000  Uiso   1.00
Cu1510 Cu    0.83333   0.78645   0.75000   0.00000  Uiso   1.00
C1511  C     0.87391   0.83028   0.91121   0.00000  Uiso   1.00
C1512  C     0.79273   0.83644   0.58880   0.00000  Uiso   1.00
C1513  C     0.83647   0.83329   0.88376   0.00000  Uiso   1.00
C1514  C     0.83018   0.83339   0.61624   0.00000  Uiso   1.00
C1515  C     0.79941   0.83879   0.90169   0.00000  Uiso   1.00
C1516  C     0.86724   0.82797   0.59830   0.00000  Uiso   1.00
C1517  C     0.79753   0.83863   0.94784   0.00000  Uiso   1.00
C1518  C     0.86911   0.82818   0.55216   0.00000  Uiso   1.00
C1519  C     0.83434   0.83427   0.97660   0.00000  Uiso   1.00
C1520  C     0.83230   0.83253   0.52340   0.00000  Uiso   1.00
C1521  C     0.87311   0.83362   0.95859   0.00000  Uiso   1.00
C1522  C     0.79352   0.83318   0.54141   0.00000  Uiso   1.00
C1523  C     0.75927   0.84111   0.96543   0.00000  Uiso   1.00
C1524  C     0.90738   0.82577   0.53455   0.00000  Uiso   1.00
C1525  C     0.75731   0.83157   0.51117   0.00000  Uiso   1.00
C1526  C     0.90932   0.83530   0.98882   0.00000  Uiso   1.00
H1527  H     0.77178   0.84086   0.87866   0.00000  Uiso   1.00
H1528  H     0.89487   0.82592   0.62133   0.00000  Uiso   1.00
C1529  C     0.69041   0.79433   0.76608   0.00000  Uiso   1.00
C1530  C     0.97626   0.87233   0.73392   0.00000  Uiso   1.00
C1531  C     0.98140   0.79100   0.75597   0.00000  Uiso   1.00
C1532  C     0.68526   0.87566   0.74403   0.00000  Uiso   1.00
C1533  C     0.95700   0.83122   0.74391   0.00000  Uiso   1.00
C1534  C     0.70967   0.83545   0.75609   0.00000  Uiso   1.00
C1535  C     0.80836   0.69263   0.71864   0.00000  Uiso   1.00
C1536  C     0.85831   0.97403   0.78136   0.00000  Uiso   1.00
C1537  C     0.85739   0.69015   0.78206   0.00000  Uiso   1.00
C1538  C     0.80927   0.97651   0.71794   0.00000  Uiso   1.00
N1539  N     0.83333   0.95069   0.75000   0.00000  Uiso   1.00
N1540  N     0.83333   0.71598   0.75000   0.00000  Uiso   1.00
C1541  C     0.91312   0.81885   0.88983   0.00000  Uiso   1.00
H1542  H     0.93087   0.79050   0.90875   0.00000  Uiso   1.00
H1543  H     0.90752   0.80634   0.85530   0.00000  Uiso   1.00
H1544  H     0.93160   0.84982   0.88702   0.00000  Uiso   1.00
C1545  C     0.75353   0.84784   0.61022   0.00000  Uiso   1.00
H1546  H     0.73590   0.87638   0.59149   0.00000  Uiso   1.00
H1547  H     0.73494   0.81696   0.61279   0.00000  Uiso   1.00
H1548  H     0.75911   0.86004   0.64484   0.00000  Uiso   1.00
C1549  C     0.72041   0.85451   0.93578   0.00000  Uiso   1.00
H1550  H     0.72577   0.88431   0.91385   0.00000  Uiso   1.00
H1551  H     0.70992   0.82488   0.91507   0.00000  Uiso   1.00
H1552  H     0.69570   0.86661   0.95582   0.00000  Uiso   1.00
C1553  C     0.94627   0.81248   0.56420   0.00000  Uiso   1.00
H1554  H     0.94097   0.78272   0.58622   0.00000  Uiso   1.00
H1555  H     0.97095   0.80034   0.54415   0.00000  Uiso   1.00
H1556  H     0.95676   0.84217   0.58481   0.00000  Uiso   1.00
C1557  C     0.71862   0.81060   0.52459   0.00000  Uiso   1.00
H1558  H     0.70107   0.79432   0.99577   0.00000  Uiso   1.00
H1559  H     0.72623   0.78172   0.54877   0.00000  Uiso   1.00
H1560  H     0.69851   0.83739   0.53789   0.00000  Uiso   1.00
C1561  C     0.94797   0.85633   0.97537   0.00000  Uiso   1.00
H1562  H     0.96543   0.87279   0.50417   0.00000  Uiso   1.00
H1563  H     0.96819   0.82953   0.96222   0.00000  Uiso   1.00
H1564  H     0.94032   0.88509   0.95104   0.00000  Uiso   1.00
I1565  I     0.72277   0.74055   0.80675   0.00000  Uiso   1.00
I1566  I     0.94390   0.92612   0.69325   0.00000  Uiso   1.00
I1567  I     0.95889   0.72273   0.74810   0.00000  Uiso   1.00
I1568  I     0.70777   0.94393   0.75191   0.00000  Uiso   1.00
C1569  C     0.77791   0.71792   0.68474   0.00000  Uiso   1.00
H1570  H     0.77605   0.75517   0.68627   0.00000  Uiso   1.00
H1571  H     0.78499   0.70961   0.65026   0.00000  Uiso   1.00
H1572  H     0.74635   0.70760   0.68979   0.00000  Uiso   1.00
C1573  C     0.88875   0.94875   0.81526   0.00000  Uiso   1.00
H1574  H     0.89062   0.91149   0.81373   0.00000  Uiso   1.00
H1575  H     0.92032   0.95906   0.81021   0.00000  Uiso   1.00
H1576  H     0.88167   0.95705   0.84974   0.00000  Uiso   1.00
C1577  C     0.88079   0.71383   0.82089   0.00000  Uiso   1.00
H1578  H     0.89194   0.74685   0.81079   0.00000  Uiso   1.00
H1579  H     0.86096   0.71819   0.84854   0.00000  Uiso   1.00
H1580  H     0.90943   0.69546   0.83451   0.00000  Uiso   1.00
C1581  C     0.78587   0.95284   0.67911   0.00000  Uiso   1.00
H1582  H     0.77473   0.91979   0.68919   0.00000  Uiso   1.00
H1583  H     0.75722   0.97120   0.66551   0.00000  Uiso   1.00
H1584  H     0.80569   0.94850   0.65144   0.00000  Uiso   1.00
loop_
_geom_bond_atom_site_label_1
_geom_bond_atom_site_label_2
_geom_bond_distance
_geom_bond_site_symmetry_2
_ccdc_geom_bond_type
O1     C5      1.309   .     A
O1     Cu13    1.989   .     S
O2     C6      1.309   .     A
O2     Cu14    1.989   .     S
O3     C6      1.314   .     A
O3     Cu13    1.975   .     S
O4     C5      1.314   .     A
O4     Cu14    1.975   .     S
C5     C38     1.477   .     S
C6     C37     1.477   .     S
O7     C11     1.305   .     A
O7     Cu13    1.962   .     S
O8     C12     1.306   .     A
O8     Cu14    1.962   .     S
O9     Cu13    1.958   .     S
O9     C12     1.299   .     A
O10    Cu14    1.958   .     S
O10    C11     1.299   .     A
C11    C18     1.449   .     S
C12    C17     1.449   .     S
Cu13   Cu14    2.722   .     S
Cu13   N43     2.045   .     S
Cu14   N44     2.045   .     S
C15    C45     1.521   .     S
C15    C17     1.409   .     A
C15    C25     1.430   .     A
C16    C26     1.430   .     A
C16    C49     1.521   .     S
C16    C18     1.409   .     A
C17    C19     1.382   .     A
C18    C20     1.381   .     A
C19    H31     1.084   .     S
C19    C21     1.394   .     A
C20    C22     1.393   .     A
C20    H32     1.084   .     S
C21    C27     1.408   .     A
C21    C23     1.414   .     A
C22    C28     1.408   .     A
C22    C24     1.414   .     A
C23    C25     1.429   .     A
C23    C816    1.414   .     S
C24    C26     1.429   .     A
C24    C815    1.414   1_554 S
C25    C30     1.424   .     A
C26    C29     1.424   .     A
C27    C53     1.517   .     S
C27    C821    1.406   .     S
C28    C57     1.517   .     S
C28    C822    1.406   1_554 S
C29    C61     1.512   .     S
C29    C819    1.406   1_554 S
C30    C65     1.512   .     S
C30    C820    1.406   .     S
C33    I69     2.156   .     S
C33    C38     1.411   .     A
C33    C211    1.398   1_455 S
C34    C37     1.411   .     A
C34    I70     2.156   .     S
C34    C124    1.398   .     S
C35    I71     2.144   .     S
C35    C37     1.416   .     A
C35    C121    1.398   .     S
C36    C38     1.416   .     A
C36    I72     2.144   .     S
C36    C210    1.398   1_455 S
C39    N44     1.383   .     A
C39    C73     1.519   .     S
C39    C570    1.435   1_545 S
C40    N43     1.383   .     A
C40    C77     1.519   .     S
C40    C305    1.435   .     S
C41    C81     1.515   .     S
C41    N44     1.381   .     A
C41    C568    1.435   1_545 S
C42    C85     1.515   .     S
C42    N43     1.381   .     A
C42    C303    1.435   .     S
C45    H47     1.103   .     S
C45    H48     1.107   .     S
C45    H46     1.110   .     S
C49    H51     1.106   .     S
C49    H52     1.102   .     S
C49    H50     1.109   .     S
C53    H55     1.111   .     S
C53    H54     1.111   .     S
C53    H56     1.106   .     S
C57    H60     1.111   .     S
C57    H58     1.111   .     S
C57    H59     1.106   .     S
C61    H63     1.109   .     S
C61    H64     1.107   .     S
C61    H854    1.110   1_554 S
H62    C853    1.110   .     S
C65    H67     1.107   .     S
C65    H68     1.109   .     S
C65    H858    1.110   .     S
H66    C857    1.110   1_554 S
C73    H74     1.083   .     S
C73    H75     1.111   .     S
C73    H76     1.110   .     S
C77    H78     1.083   .     S
C77    H80     1.111   .     S
C77    H79     1.110   .     S
C81    H82     1.088   .     S
C81    H83     1.110   .     S
C81    H84     1.104   .     S
C85    H86     1.088   .     S
C85    H87     1.104   .     S
C85    H88     1.110   .     S
O89    C93     1.309   .     A
O89    Cu101   1.989   .     S
O90    C94     1.309   .     A
O90    Cu102   1.989   .     S
O91    C94     1.314   .     A
O91    Cu101   1.975   .     S
O92    C93     1.314   .     A
O92    Cu102   1.975   .     S
C93    C126    1.477   .     S
C94    C125    1.477   .     S
O95    C99     1.305   .     A
O95    Cu101   1.962   .     S
O96    C100    1.306   .     A
O96    Cu102   1.962   .     S
O97    Cu101   1.958   .     S
O97    C100    1.299   .     A
O98    Cu102   1.958   .     S
O98    C99     1.299   .     A
C99    C106    1.449   .     S
C100   C105    1.449   .     S
Cu101  Cu102   2.722   .     S
Cu101  N131    2.045   .     S
Cu102  N132    2.045   .     S
C103   C133    1.521   .     S
C103   C105    1.409   .     A
C103   C113    1.430   .     A
C104   C114    1.430   .     A
C104   C137    1.521   .     S
C104   C106    1.409   .     A
C105   C107    1.382   .     A
C106   C108    1.381   .     A
C107   H119    1.084   .     S
C107   C109    1.394   .     A
C108   C110    1.393   .     A
C108   H120    1.084   .     S
C109   C115    1.408   .     A
C109   C111    1.414   .     A
C110   C116    1.408   .     A
C110   C112    1.414   .     A
C111   C113    1.429   .     A
C111   C904    1.414   .     S
C112   C114    1.429   .     A
C112   C903    1.414   1_554 S
C113   C118    1.424   .     A
C114   C117    1.424   .     A
C115   C141    1.517   .     S
C115   C909    1.406   .     S
C116   C145    1.517   .     S
C116   C910    1.406   1_554 S
C117   C149    1.512   .     S
C117   C907    1.406   1_554 S
C118   C153    1.512   .     S
C118   C908    1.406   .     S
C121   I157    2.156   .     S
C121   C126    1.411   .     A
C122   C125    1.411   .     A
C122   I158    2.156   .     S
C122   C212    1.398   .     S
C123   I159    2.144   .     S
C123   C125    1.416   .     A
C123   C209    1.398   .     S
C124   C126    1.416   .     A
C124   I160    2.144   .     S
C127   N132    1.383   .     A
C127   C161    1.519   .     S
C127   C658    1.435   1_545 S
C128   N131    1.383   .     A
C128   C165    1.519   .     S
C128   C393    1.435   .     S
C129   C169    1.515   .     S
C129   N132    1.381   .     A
C129   C656    1.435   1_545 S
C130   C173    1.515   .     S
C130   N131    1.381   .     A
C130   C391    1.435   .     S
C133   H135    1.103   .     S
C133   H136    1.107   .     S
C133   H134    1.110   .     S
C137   H139    1.106   .     S
C137   H140    1.102   .     S
C137   H138    1.109   .     S
C141   H143    1.111   .     S
C141   H142    1.111   .     S
C141   H144    1.106   .     S
C145   H148    1.111   .     S
C145   H146    1.111   .     S
C145   H147    1.106   .     S
C149   H151    1.109   .     S
C149   H152    1.107   .     S
C149   H942    1.110   1_554 S
H150   C941    1.110   .     S
C153   H155    1.107   .     S
C153   H156    1.109   .     S
C153   H946    1.110   .     S
H154   C945    1.110   1_554 S
C161   H162    1.083   .     S
C161   H163    1.111   .     S
C161   H164    1.110   .     S
C165   H166    1.083   .     S
C165   H168    1.111   .     S
C165   H167    1.110   .     S
C169   H170    1.088   .     S
C169   H171    1.110   .     S
C169   H172    1.104   .     S
C173   H174    1.088   .     S
C173   H175    1.104   .     S
C173   H176    1.110   .     S
O177   C181    1.309   .     A
O177   Cu189   1.989   .     S
O178   C182    1.309   .     A
O178   Cu190   1.989   .     S
O179   C182    1.314   .     A
O179   Cu189   1.975   .     S
O180   C181    1.314   .     A
O180   Cu190   1.975   .     S
C181   C214    1.477   .     S
C182   C213    1.477   .     S
O183   C187    1.305   .     A
O183   Cu189   1.962   .     S
O184   C188    1.306   .     A
O184   Cu190   1.962   .     S
O185   Cu189   1.958   .     S
O185   C188    1.299   .     A
O186   Cu190   1.958   .     S
O186   C187    1.299   .     A
C187   C194    1.449   .     S
C188   C193    1.449   .     S
Cu189  Cu190   2.722   .     S
Cu189  N219    2.045   .     S
Cu190  N220    2.045   .     S
C191   C221    1.521   .     S
C191   C193    1.409   .     A
C191   C201    1.430   .     A
C192   C202    1.430   .     A
C192   C225    1.521   .     S
C192   C194    1.409   .     A
C193   C195    1.382   .     A
C194   C196    1.381   .     A
C195   H207    1.084   .     S
C195   C197    1.394   .     A
C196   C198    1.393   .     A
C196   H208    1.084   .     S
C197   C203    1.408   .     A
C197   C199    1.414   .     A
C198   C204    1.408   .     A
C198   C200    1.414   .     A
C199   C201    1.429   .     A
C199   C992    1.414   .     S
C200   C202    1.429   .     A
C200   C991    1.414   1_554 S
C201   C206    1.424   .     A
C202   C205    1.424   .     A
C203   C229    1.517   .     S
C203   C997    1.406   .     S
C204   C233    1.517   .     S
C204   C998    1.406   1_554 S
C205   C237    1.512   .     S
C205   C995    1.406   1_554 S
C206   C241    1.512   .     S
C206   C996    1.406   .     S
C209   I245    2.156   .     S
C209   C214    1.411   .     A
C210   C213    1.411   .     A
C210   I246    2.156   .     S
C210   C36     1.398   1_655 S
C211   I247    2.144   .     S
C211   C213    1.416   .     A
C211   C33     1.398   1_655 S
C212   C214    1.416   .     A
C212   I248    2.144   .     S
C215   N220    1.383   .     A
C215   C249    1.519   .     S
C215   C746    1.435   1_545 S
C216   N219    1.383   .     A
C216   C253    1.519   .     S
C216   C481    1.435   .     S
C217   C257    1.515   .     S
C217   N220    1.381   .     A
C217   C744    1.435   1_545 S
C218   C261    1.515   .     S
C218   N219    1.381   .     A
C218   C479    1.435   .     S
C221   H223    1.103   .     S
C221   H224    1.107   .     S
C221   H222    1.110   .     S
C225   H227    1.106   .     S
C225   H228    1.102   .     S
C225   H226    1.109   .     S
C229   H231    1.111   .     S
C229   H230    1.111   .     S
C229   H232    1.106   .     S
C233   H236    1.111   .     S
C233   H234    1.111   .     S
C233   H235    1.106   .     S
C237   H239    1.109   .     S
C237   H240    1.107   .     S
C237   H1030   1.110   1_554 S
H238   C1029   1.110   .     S
C241   H243    1.107   .     S
C241   H244    1.109   .     S
C241   H1034   1.110   .     S
H242   C1033   1.110   1_554 S
C249   H250    1.083   .     S
C249   H251    1.111   .     S
C249   H252    1.110   .     S
C253   H254    1.083   .     S
C253   H256    1.111   .     S
C253   H255    1.110   .     S
C257   H258    1.088   .     S
C257   H259    1.110   .     S
C257   H260    1.104   .     S
C261   H262    1.088   .     S
C261   H263    1.104   .     S
C261   H264    1.110   .     S
O265   C269    1.309   .     A
O265   Cu277   1.989   .     S
O266   C270    1.309   .     A
O266   Cu278   1.989   .     S
O267   C270    1.314   .     A
O267   Cu277   1.975   .     S
O268   C269    1.314   .     A
O268   Cu278   1.975   .     S
C269   C302    1.477   .     S
C270   C301    1.477   .     S
O271   C275    1.305   .     A
O271   Cu277   1.962   .     S
O272   C276    1.306   .     A
O272   Cu278   1.962   .     S
O273   Cu277   1.958   .     S
O273   C276    1.299   .     A
O274   Cu278   1.958   .     S
O274   C275    1.299   .     A
C275   C282    1.449   .     S
C276   C281    1.449   .     S
Cu277  Cu278   2.722   .     S
Cu277  N307    2.045   .     S
Cu278  N308    2.045   .     S
C279   C309    1.521   .     S
C279   C281    1.409   .     A
C279   C289    1.430   .     A
C280   C290    1.430   .     A
C280   C313    1.521   .     S
C280   C282    1.409   .     A
C281   C283    1.382   .     A
C282   C284    1.381   .     A
C283   H295    1.084   .     S
C283   C285    1.394   .     A
C284   C286    1.393   .     A
C284   H296    1.084   .     S
C285   C291    1.408   .     A
C285   C287    1.414   .     A
C286   C292    1.408   .     A
C286   C288    1.414   .     A
C287   C289    1.429   .     A
C287   C1080   1.414   .     S
C288   C290    1.429   .     A
C288   C1079   1.414   1_554 S
C289   C294    1.424   .     A
C290   C293    1.424   .     A
C291   C317    1.517   .     S
C291   C1085   1.406   .     S
C292   C321    1.517   .     S
C292   C1086   1.406   1_554 S
C293   C325    1.512   .     S
C293   C1083   1.406   1_554 S
C294   C329    1.512   .     S
C294   C1084   1.406   .     S
C297   I333    2.156   .     S
C297   C302    1.411   .     A
C297   C475    1.398   1_455 S
C298   C301    1.411   .     A
C298   I334    2.156   .     S
C298   C388    1.398   .     S
C299   I335    2.144   .     S
C299   C301    1.416   .     A
C299   C385    1.398   .     S
C300   C302    1.416   .     A
C300   I336    2.144   .     S
C300   C474    1.398   1_455 S
C303   N308    1.383   .     A
C303   C337    1.519   .     S
C304   N307    1.383   .     A
C304   C341    1.519   .     S
C304   C569    1.435   .     S
C305   C345    1.515   .     S
C305   N308    1.381   .     A
C306   C349    1.515   .     S
C306   N307    1.381   .     A
C306   C567    1.435   .     S
C309   H311    1.103   .     S
C309   H312    1.107   .     S
C309   H310    1.110   .     S
C313   H315    1.106   .     S
C313   H316    1.102   .     S
C313   H314    1.109   .     S
C317   H319    1.111   .     S
C317   H318    1.111   .     S
C317   H320    1.106   .     S
C321   H324    1.111   .     S
C321   H322    1.111   .     S
C321   H323    1.106   .     S
C325   H327    1.109   .     S
C325   H328    1.107   .     S
C325   H1118   1.110   1_554 S
H326   C1117   1.110   .     S
C329   H331    1.107   .     S
C329   H332    1.109   .     S
C329   H1122   1.110   .     S
H330   C1121   1.110   1_554 S
C337   H338    1.083   .     S
C337   H339    1.111   .     S
C337   H340    1.110   .     S
C341   H342    1.083   .     S
C341   H344    1.111   .     S
C341   H343    1.110   .     S
C345   H346    1.088   .     S
C345   H347    1.110   .     S
C345   H348    1.104   .     S
C349   H350    1.088   .     S
C349   H351    1.104   .     S
C349   H352    1.110   .     S
O353   C357    1.309   .     A
O353   Cu365   1.989   .     S
O354   C358    1.309   .     A
O354   Cu366   1.989   .     S
O355   C358    1.314   .     A
O355   Cu365   1.975   .     S
O356   C357    1.314   .     A
O356   Cu366   1.975   .     S
C357   C390    1.477   .     S
C358   C389    1.477   .     S
O359   C363    1.305   .     A
O359   Cu365   1.962   .     S
O360   C364    1.306   .     A
O360   Cu366   1.962   .     S
O361   Cu365   1.958   .     S
O361   C364    1.299   .     A
O362   Cu366   1.958   .     S
O362   C363    1.299   .     A
C363   C370    1.449   .     S
C364   C369    1.449   .     S
Cu365  Cu366   2.722   .     S
Cu365  N395    2.045   .     S
Cu366  N396    2.045   .     S
C367   C397    1.521   .     S
C367   C369    1.409   .     A
C367   C377    1.430   .     A
C368   C378    1.430   .     A
C368   C401    1.521   .     S
C368   C370    1.409   .     A
C369   C371    1.382   .     A
C370   C372    1.381   .     A
C371   H383    1.084   .     S
C371   C373    1.394   .     A
C372   C374    1.393   .     A
C372   H384    1.084   .     S
C373   C379    1.408   .     A
C373   C375    1.414   .     A
C374   C380    1.408   .     A
C374   C376    1.414   .     A
C375   C377    1.429   .     A
C375   C1168   1.414   .     S
C376   C378    1.429   .     A
C376   C1167   1.414   1_554 S
C377   C382    1.424   .     A
C378   C381    1.424   .     A
C379   C405    1.517   .     S
C379   C1173   1.406   .     S
C380   C409    1.517   .     S
C380   C1174   1.406   1_554 S
C381   C413    1.512   .     S
C381   C1171   1.406   1_554 S
C382   C417    1.512   .     S
C382   C1172   1.406   .     S
C385   I421    2.156   .     S
C385   C390    1.411   .     A
C386   C389    1.411   .     A
C386   I422    2.156   .     S
C386   C476    1.398   .     S
C387   I423    2.144   .     S
C387   C389    1.416   .     A
C387   C473    1.398   .     S
C388   C390    1.416   .     A
C388   I424    2.144   .     S
C391   N396    1.383   .     A
C391   C425    1.519   .     S
C392   N395    1.383   .     A
C392   C429    1.519   .     S
C392   C657    1.435   .     S
C393   C433    1.515   .     S
C393   N396    1.381   .     A
C394   C437    1.515   .     S
C394   N395    1.381   .     A
C394   C655    1.435   .     S
C397   H399    1.103   .     S
C397   H400    1.107   .     S
C397   H398    1.110   .     S
C401   H403    1.106   .     S
C401   H404    1.102   .     S
C401   H402    1.109   .     S
C405   H407    1.111   .     S
C405   H406    1.111   .     S
C405   H408    1.106   .     S
C409   H412    1.111   .     S
C409   H410    1.111   .     S
C409   H411    1.106   .     S
C413   H415    1.109   .     S
C413   H416    1.107   .     S
C413   H1206   1.110   1_554 S
H414   C1205   1.110   .     S
C417   H419    1.107   .     S
C417   H420    1.109   .     S
C417   H1210   1.110   .     S
H418   C1209   1.110   1_554 S
C425   H426    1.083   .     S
C425   H427    1.111   .     S
C425   H428    1.110   .     S
C429   H430    1.083   .     S
C429   H432    1.111   .     S
C429   H431    1.110   .     S
C433   H434    1.088   .     S
C433   H435    1.110   .     S
C433   H436    1.104   .     S
C437   H438    1.088   .     S
C437   H439    1.104   .     S
C437   H440    1.110   .     S
O441   C445    1.309   .     A
O441   Cu453   1.989   .     S
O442   C446    1.309   .     A
O442   Cu454   1.989   .     S
O443   C446    1.314   .     A
O443   Cu453   1.975   .     S
O444   C445    1.314   .     A
O444   Cu454   1.975   .     S
C445   C478    1.477   .     S
C446   C477    1.477   .     S
O447   C451    1.305   .     A
O447   Cu453   1.962   .     S
O448   C452    1.306   .     A
O448   Cu454   1.962   .     S
O449   Cu453   1.958   .     S
O449   C452    1.299   .     A
O450   Cu454   1.958   .     S
O450   C451    1.299   .     A
C451   C458    1.449   .     S
C452   C457    1.449   .     S
Cu453  Cu454   2.722   .     S
Cu453  N483    2.045   .     S
Cu454  N484    2.045   .     S
C455   C485    1.521   .     S
C455   C457    1.409   .     A
C455   C465    1.430   .     A
C456   C466    1.430   .     A
C456   C489    1.521   .     S
C456   C458    1.409   .     A
C457   C459    1.382   .     A
C458   C460    1.381   .     A
C459   H471    1.084   .     S
C459   C461    1.394   .     A
C460   C462    1.393   .     A
C460   H472    1.084   .     S
C461   C467    1.408   .     A
C461   C463    1.414   .     A
C462   C468    1.408   .     A
C462   C464    1.414   .     A
C463   C465    1.429   .     A
C463   C1256   1.414   .     S
C464   C466    1.429   .     A
C464   C1255   1.414   1_554 S
C465   C470    1.424   .     A
C466   C469    1.424   .     A
C467   C493    1.517   .     S
C467   C1261   1.406   .     S
C468   C497    1.517   .     S
C468   C1262   1.406   1_554 S
C469   C501    1.512   .     S
C469   C1259   1.406   1_554 S
C470   C505    1.512   .     S
C470   C1260   1.406   .     S
C473   I509    2.156   .     S
C473   C478    1.411   .     A
C474   C477    1.411   .     A
C474   I510    2.156   .     S
C474   C300    1.398   1_655 S
C475   I511    2.144   .     S
C475   C477    1.416   .     A
C475   C297    1.398   1_655 S
C476   C478    1.416   .     A
C476   I512    2.144   .     S
C479   N484    1.383   .     A
C479   C513    1.519   .     S
C480   N483    1.383   .     A
C480   C517    1.519   .     S
C480   C745    1.435   .     S
C481   C521    1.515   .     S
C481   N484    1.381   .     A
C482   C525    1.515   .     S
C482   N483    1.381   .     A
C482   C743    1.435   .     S
C485   H487    1.103   .     S
C485   H488    1.107   .     S
C485   H486    1.110   .     S
C489   H491    1.106   .     S
C489   H492    1.102   .     S
C489   H490    1.109   .     S
C493   H495    1.111   .     S
C493   H494    1.111   .     S
C493   H496    1.106   .     S
C497   H500    1.111   .     S
C497   H498    1.111   .     S
C497   H499    1.106   .     S
C501   H503    1.109   .     S
C501   H504    1.107   .     S
C501   H1294   1.110   1_554 S
H502   C1293   1.110   .     S
C505   H507    1.107   .     S
C505   H508    1.109   .     S
C505   H1298   1.110   .     S
H506   C1297   1.110   1_554 S
C513   H514    1.083   .     S
C513   H515    1.111   .     S
C513   H516    1.110   .     S
C517   H518    1.083   .     S
C517   H520    1.111   .     S
C517   H519    1.110   .     S
C521   H522    1.088   .     S
C521   H523    1.110   .     S
C521   H524    1.104   .     S
C525   H526    1.088   .     S
C525   H527    1.104   .     S
C525   H528    1.110   .     S
O529   C533    1.309   .     A
O529   Cu541   1.989   .     S
O530   C534    1.309   .     A
O530   Cu542   1.989   .     S
O531   C534    1.314   .     A
O531   Cu541   1.975   .     S
O532   C533    1.314   .     A
O532   Cu542   1.975   .     S
C533   C566    1.477   .     S
C534   C565    1.477   .     S
O535   C539    1.305   .     A
O535   Cu541   1.962   .     S
O536   C540    1.306   .     A
O536   Cu542   1.962   .     S
O537   Cu541   1.958   .     S
O537   C540    1.299   .     A
O538   Cu542   1.958   .     S
O538   C539    1.299   .     A
C539   C546    1.449   .     S
C540   C545    1.449   .     S
Cu541  Cu542   2.722   .     S
Cu541  N571    2.045   .     S
Cu542  N572    2.045   .     S
C543   C573    1.521   .     S
C543   C545    1.409   .     A
C543   C553    1.430   .     A
C544   C554    1.430   .     A
C544   C577    1.521   .     S
C544   C546    1.409   .     A
C545   C547    1.382   .     A
C546   C548    1.381   .     A
C547   H559    1.084   .     S
C547   C549    1.394   .     A
C548   C550    1.393   .     A
C548   H560    1.084   .     S
C549   C555    1.408   .     A
C549   C551    1.414   .     A
C550   C556    1.408   .     A
C550   C552    1.414   .     A
C551   C553    1.429   .     A
C551   C1344   1.414   .     S
C552   C554    1.429   .     A
C552   C1343   1.414   1_554 S
C553   C558    1.424   .     A
C554   C557    1.424   .     A
C555   C581    1.517   .     S
C555   C1349   1.406   .     S
C556   C585    1.517   .     S
C556   C1350   1.406   1_554 S
C557   C589    1.512   .     S
C557   C1347   1.406   1_554 S
C558   C593    1.512   .     S
C558   C1348   1.406   .     S
C561   I597    2.156   .     S
C561   C566    1.411   .     A
C561   C739    1.398   1_455 S
C562   C565    1.411   .     A
C562   I598    2.156   .     S
C562   C652    1.398   .     S
C563   I599    2.144   .     S
C563   C565    1.416   .     A
C563   C649    1.398   .     S
C564   C566    1.416   .     A
C564   I600    2.144   .     S
C564   C738    1.398   1_455 S
C567   N572    1.383   .     A
C567   C601    1.519   .     S
C568   N571    1.383   .     A
C568   C605    1.519   .     S
C568   C41     1.435   1_565 S
C569   C609    1.515   .     S
C569   N572    1.381   .     A
C570   C613    1.515   .     S
C570   N571    1.381   .     A
C570   C39     1.435   1_565 S
C573   H575    1.103   .     S
C573   H576    1.107   .     S
C573   H574    1.110   .     S
C577   H579    1.106   .     S
C577   H580    1.102   .     S
C577   H578    1.109   .     S
C581   H583    1.111   .     S
C581   H582    1.111   .     S
C581   H584    1.106   .     S
C585   H588    1.111   .     S
C585   H586    1.111   .     S
C585   H587    1.106   .     S
C589   H591    1.109   .     S
C589   H592    1.107   .     S
C589   H1382   1.110   1_554 S
H590   C1381   1.110   .     S
C593   H595    1.107   .     S
C593   H596    1.109   .     S
C593   H1386   1.110   .     S
H594   C1385   1.110   1_554 S
C601   H602    1.083   .     S
C601   H603    1.111   .     S
C601   H604    1.110   .     S
C605   H606    1.083   .     S
C605   H608    1.111   .     S
C605   H607    1.110   .     S
C609   H610    1.088   .     S
C609   H611    1.110   .     S
C609   H612    1.104   .     S
C613   H614    1.088   .     S
C613   H615    1.104   .     S
C613   H616    1.110   .     S
O617   C621    1.309   .     A
O617   Cu629   1.989   .     S
O618   C622    1.309   .     A
O618   Cu630   1.989   .     S
O619   C622    1.314   .     A
O619   Cu629   1.975   .     S
O620   C621    1.314   .     A
O620   Cu630   1.975   .     S
C621   C654    1.477   .     S
C622   C653    1.477   .     S
O623   C627    1.305   .     A
O623   Cu629   1.962   .     S
O624   C628    1.306   .     A
O624   Cu630   1.962   .     S
O625   Cu629   1.958   .     S
O625   C628    1.299   .     A
O626   Cu630   1.958   .     S
O626   C627    1.299   .     A
C627   C634    1.449   .     S
C628   C633    1.449   .     S
Cu629  Cu630   2.722   .     S
Cu629  N659    2.045   .     S
Cu630  N660    2.045   .     S
C631   C661    1.521   .     S
C631   C633    1.409   .     A
C631   C641    1.430   .     A
C632   C642    1.430   .     A
C632   C665    1.521   .     S
C632   C634    1.409   .     A
C633   C635    1.382   .     A
C634   C636    1.381   .     A
C635   H647    1.084   .     S
C635   C637    1.394   .     A
C636   C638    1.393   .     A
C636   H648    1.084   .     S
C637   C643    1.408   .     A
C637   C639    1.414   .     A
C638   C644    1.408   .     A
C638   C640    1.414   .     A
C639   C641    1.429   .     A
C639   C1432   1.414   .     S
C640   C642    1.429   .     A
C640   C1431   1.414   1_554 S
C641   C646    1.424   .     A
C642   C645    1.424   .     A
C643   C669    1.517   .     S
C643   C1437   1.406   .     S
C644   C673    1.517   .     S
C644   C1438   1.406   1_554 S
C645   C677    1.512   .     S
C645   C1435   1.406   1_554 S
C646   C681    1.512   .     S
C646   C1436   1.406   .     S
C649   I685    2.156   .     S
C649   C654    1.411   .     A
C650   C653    1.411   .     A
C650   I686    2.156   .     S
C650   C740    1.398   .     S
C651   I687    2.144   .     S
C651   C653    1.416   .     A
C651   C737    1.398   .     S
C652   C654    1.416   .     A
C652   I688    2.144   .     S
C655   N660    1.383   .     A
C655   C689    1.519   .     S
C656   N659    1.383   .     A
C656   C693    1.519   .     S
C656   C129    1.435   1_565 S
C657   C697    1.515   .     S
C657   N660    1.381   .     A
C658   C701    1.515   .     S
C658   N659    1.381   .     A
C658   C127    1.435   1_565 S
C661   H663    1.103   .     S
C661   H664    1.107   .     S
C661   H662    1.110   .     S
C665   H667    1.106   .     S
C665   H668    1.102   .     S
C665   H666    1.109   .     S
C669   H671    1.111   .     S
C669   H670    1.111   .     S
C669   H672    1.106   .     S
C673   H676    1.111   .     S
C673   H674    1.111   .     S
C673   H675    1.106   .     S
C677   H679    1.109   .     S
C677   H680    1.107   .     S
C677   H1470   1.110   1_554 S
H678   C1469   1.110   .     S
C681   H683    1.107   .     S
C681   H684    1.109   .     S
C681   H1474   1.110   .     S
H682   C1473   1.110   1_554 S
C689   H690    1.083   .     S
C689   H691    1.111   .     S
C689   H692    1.110   .     S
C693   H694    1.083   .     S
C693   H696    1.111   .     S
C693   H695    1.110   .     S
C697   H698    1.088   .     S
C697   H699    1.110   .     S
C697   H700    1.104   .     S
C701   H702    1.088   .     S
C701   H703    1.104   .     S
C701   H704    1.110   .     S
O705   C709    1.309   .     A
O705   Cu717   1.989   .     S
O706   C710    1.309   .     A
O706   Cu718   1.989   .     S
O707   C710    1.314   .     A
O707   Cu717   1.975   .     S
O708   C709    1.314   .     A
O708   Cu718   1.975   .     S
C709   C742    1.477   .     S
C710   C741    1.477   .     S
O711   C715    1.305   .     A
O711   Cu717   1.962   .     S
O712   C716    1.306   .     A
O712   Cu718   1.962   .     S
O713   Cu717   1.958   .     S
O713   C716    1.299   .     A
O714   Cu718   1.958   .     S
O714   C715    1.299   .     A
C715   C722    1.449   .     S
C716   C721    1.449   .     S
Cu717  Cu718   2.722   .     S
Cu717  N747    2.045   .     S
Cu718  N748    2.045   .     S
C719   C749    1.521   .     S
C719   C721    1.409   .     A
C719   C729    1.430   .     A
C720   C730    1.430   .     A
C720   C753    1.521   .     S
C720   C722    1.409   .     A
C721   C723    1.382   .     A
C722   C724    1.381   .     A
C723   H735    1.084   .     S
C723   C725    1.394   .     A
C724   C726    1.393   .     A
C724   H736    1.084   .     S
C725   C731    1.408   .     A
C725   C727    1.414   .     A
C726   C732    1.408   .     A
C726   C728    1.414   .     A
C727   C729    1.429   .     A
C727   C1520   1.414   .     S
C728   C730    1.429   .     A
C728   C1519   1.414   1_554 S
C729   C734    1.424   .     A
C730   C733    1.424   .     A
C731   C757    1.517   .     S
C731   C1525   1.406   .     S
C732   C761    1.517   .     S
C732   C1526   1.406   1_554 S
C733   C765    1.512   .     S
C733   C1523   1.406   1_554 S
C734   C769    1.512   .     S
C734   C1524   1.406   .     S
C737   I773    2.156   .     S
C737   C742    1.411   .     A
C738   C741    1.411   .     A
C738   I774    2.156   .     S
C738   C564    1.398   1_655 S
C739   I775    2.144   .     S
C739   C741    1.416   .     A
C739   C561    1.398   1_655 S
C740   C742    1.416   .     A
C740   I776    2.144   .     S
C743   N748    1.383   .     A
C743   C777    1.519   .     S
C744   N747    1.383   .     A
C744   C781    1.519   .     S
C744   C217    1.435   1_565 S
C745   C785    1.515   .     S
C745   N748    1.381   .     A
C746   C789    1.515   .     S
C746   N747    1.381   .     A
C746   C215    1.435   1_565 S
C749   H751    1.103   .     S
C749   H752    1.107   .     S
C749   H750    1.110   .     S
C753   H755    1.106   .     S
C753   H756    1.102   .     S
C753   H754    1.109   .     S
C757   H759    1.111   .     S
C757   H758    1.111   .     S
C757   H760    1.106   .     S
C761   H764    1.111   .     S
C761   H762    1.111   .     S
C761   H763    1.106   .     S
C765   H767    1.109   .     S
C765   H768    1.107   .     S
C765   H1558   1.110   1_554 S
H766   C1557   1.110   .     S
C769   H771    1.107   .     S
C769   H772    1.109   .     S
C769   H1562   1.110   .     S
H770   C1561   1.110   1_554 S
C777   H778    1.083   .     S
C777   H779    1.111   .     S
C777   H780    1.110   .     S
C781   H782    1.083   .     S
C781   H784    1.111   .     S
C781   H783    1.110   .     S
C785   H786    1.088   .     S
C785   H787    1.110   .     S
C785   H788    1.104   .     S
C789   H790    1.088   .     S
C789   H791    1.104   .     S
C789   H792    1.110   .     S
O793   C797    1.309   .     A
O793   Cu805   1.989   .     S
O794   C798    1.309   .     A
O794   Cu806   1.989   .     S
O795   C798    1.314   .     A
O795   Cu805   1.975   .     S
O796   C797    1.314   .     A
O796   Cu806   1.975   .     S
C797   C830    1.477   .     S
C798   C829    1.477   .     S
O799   C803    1.305   .     A
O799   Cu805   1.962   .     S
O800   C804    1.306   .     A
O800   Cu806   1.962   .     S
O801   Cu805   1.958   .     S
O801   C804    1.299   .     A
O802   Cu806   1.958   .     S
O802   C803    1.299   .     A
C803   C810    1.449   .     S
C804   C809    1.449   .     S
Cu805  Cu806   2.722   .     S
Cu805  N835    2.045   .     S
Cu806  N836    2.045   .     S
C807   C837    1.521   .     S
C807   C809    1.409   .     A
C807   C817    1.430   .     A
C808   C818    1.430   .     A
C808   C841    1.521   .     S
C808   C810    1.409   .     A
C809   C811    1.382   .     A
C810   C812    1.381   .     A
C811   H823    1.084   .     S
C811   C813    1.394   .     A
C812   C814    1.393   .     A
C812   H824    1.084   .     S
C813   C819    1.408   .     A
C813   C815    1.414   .     A
C814   C820    1.408   .     A
C814   C816    1.414   .     A
C815   C817    1.429   .     A
C815   C24     1.414   1_556 S
C816   C818    1.429   .     A
C817   C822    1.424   .     A
C818   C821    1.424   .     A
C819   C845    1.517   .     S
C819   C29     1.406   1_556 S
C820   C849    1.517   .     S
C821   C853    1.512   .     S
C822   C857    1.512   .     S
C822   C28     1.406   1_556 S
C825   I861    2.156   .     S
C825   C830    1.411   .     A
C825   C1003   1.398   1_455 S
C826   C829    1.411   .     A
C826   I862    2.156   .     S
C826   C916    1.398   .     S
C827   I863    2.144   .     S
C827   C829    1.416   .     A
C827   C913    1.398   .     S
C828   C830    1.416   .     A
C828   I864    2.144   .     S
C828   C1002   1.398   1_455 S
C831   N836    1.383   .     A
C831   C865    1.519   .     S
C831   C1362   1.435   1_545 S
C832   N835    1.383   .     A
C832   C869    1.519   .     S
C832   C1097   1.435   .     S
C833   C873    1.515   .     S
C833   N836    1.381   .     A
C833   C1360   1.435   1_545 S
C834   C877    1.515   .     S
C834   N835    1.381   .     A
C834   C1095   1.435   .     S
C837   H839    1.103   .     S
C837   H840    1.107   .     S
C837   H838    1.110   .     S
C841   H843    1.106   .     S
C841   H844    1.102   .     S
C841   H842    1.109   .     S
C845   H847    1.111   .     S
C845   H846    1.111   .     S
C845   H848    1.106   .     S
C849   H852    1.111   .     S
C849   H850    1.111   .     S
C849   H851    1.106   .     S
C853   H855    1.109   .     S
C853   H856    1.107   .     S
H854   C61     1.110   1_556 S
C857   H859    1.107   .     S
C857   H860    1.109   .     S
C857   H66     1.110   1_556 S
C865   H866    1.083   .     S
C865   H867    1.111   .     S
C865   H868    1.110   .     S
C869   H870    1.083   .     S
C869   H872    1.111   .     S
C869   H871    1.110   .     S
C873   H874    1.088   .     S
C873   H875    1.110   .     S
C873   H876    1.104   .     S
C877   H878    1.088   .     S
C877   H879    1.104   .     S
C877   H880    1.110   .     S
O881   C885    1.309   .     A
O881   Cu893   1.989   .     S
O882   C886    1.309   .     A
O882   Cu894   1.989   .     S
O883   C886    1.314   .     A
O883   Cu893   1.975   .     S
O884   C885    1.314   .     A
O884   Cu894   1.975   .     S
C885   C918    1.477   .     S
C886   C917    1.477   .     S
O887   C891    1.305   .     A
O887   Cu893   1.962   .     S
O888   C892    1.306   .     A
O888   Cu894   1.962   .     S
O889   Cu893   1.958   .     S
O889   C892    1.299   .     A
O890   Cu894   1.958   .     S
O890   C891    1.299   .     A
C891   C898    1.449   .     S
C892   C897    1.449   .     S
Cu893  Cu894   2.722   .     S
Cu893  N923    2.045   .     S
Cu894  N924    2.045   .     S
C895   C925    1.521   .     S
C895   C897    1.409   .     A
C895   C905    1.430   .     A
C896   C906    1.430   .     A
C896   C929    1.521   .     S
C896   C898    1.409   .     A
C897   C899    1.382   .     A
C898   C900    1.381   .     A
C899   H911    1.084   .     S
C899   C901    1.394   .     A
C900   C902    1.393   .     A
C900   H912    1.084   .     S
C901   C907    1.408   .     A
C901   C903    1.414   .     A
C902   C908    1.408   .     A
C902   C904    1.414   .     A
C903   C905    1.429   .     A
C903   C112    1.414   1_556 S
C904   C906    1.429   .     A
C905   C910    1.424   .     A
C906   C909    1.424   .     A
C907   C933    1.517   .     S
C907   C117    1.406   1_556 S
C908   C937    1.517   .     S
C909   C941    1.512   .     S
C910   C945    1.512   .     S
C910   C116    1.406   1_556 S
C913   I949    2.156   .     S
C913   C918    1.411   .     A
C914   C917    1.411   .     A
C914   I950    2.156   .     S
C914   C1004   1.398   .     S
C915   I951    2.144   .     S
C915   C917    1.416   .     A
C915   C1001   1.398   .     S
C916   C918    1.416   .     A
C916   I952    2.144   .     S
C919   N924    1.383   .     A
C919   C953    1.519   .     S
C919   C1450   1.435   1_545 S
C920   N923    1.383   .     A
C920   C957    1.519   .     S
C920   C1185   1.435   .     S
C921   C961    1.515   .     S
C921   N924    1.381   .     A
C921   C1448   1.435   1_545 S
C922   C965    1.515   .     S
C922   N923    1.381   .     A
C922   C1183   1.435   .     S
C925   H927    1.103   .     S
C925   H928    1.107   .     S
C925   H926    1.110   .     S
C929   H931    1.106   .     S
C929   H932    1.102   .     S
C929   H930    1.109   .     S
C933   H935    1.111   .     S
C933   H934    1.111   .     S
C933   H936    1.106   .     S
C937   H940    1.111   .     S
C937   H938    1.111   .     S
C937   H939    1.106   .     S
C941   H943    1.109   .     S
C941   H944    1.107   .     S
H942   C149    1.110   1_556 S
C945   H947    1.107   .     S
C945   H948    1.109   .     S
C945   H154    1.110   1_556 S
C953   H954    1.083   .     S
C953   H955    1.111   .     S
C953   H956    1.110   .     S
C957   H958    1.083   .     S
C957   H960    1.111   .     S
C957   H959    1.110   .     S
C961   H962    1.088   .     S
C961   H963    1.110   .     S
C961   H964    1.104   .     S
C965   H966    1.088   .     S
C965   H967    1.104   .     S
C965   H968    1.110   .     S
O969   C973    1.309   .     A
O969   Cu981   1.989   .     S
O970   C974    1.309   .     A
O970   Cu982   1.989   .     S
O971   C974    1.314   .     A
O971   Cu981   1.975   .     S
O972   C973    1.314   .     A
O972   Cu982   1.975   .     S
C973   C1006   1.477   .     S
C974   C1005   1.477   .     S
O975   C979    1.305   .     A
O975   Cu981   1.962   .     S
O976   C980    1.306   .     A
O976   Cu982   1.962   .     S
O977   Cu981   1.958   .     S
O977   C980    1.299   .     A
O978   Cu982   1.958   .     S
O978   C979    1.299   .     A
C979   C986    1.449   .     S
C980   C985    1.449   .     S
Cu981  Cu982   2.722   .     S
Cu981  N1011   2.045   .     S
Cu982  N1012   2.045   .     S
C983   C1013   1.521   .     S
C983   C985    1.409   .     A
C983   C993    1.430   .     A
C984   C994    1.430   .     A
C984   C1017   1.521   .     S
C984   C986    1.409   .     A
C985   C987    1.382   .     A
C986   C988    1.381   .     A
C987   H999    1.084   .     S
C987   C989    1.394   .     A
C988   C990    1.393   .     A
C988   H1000   1.084   .     S
C989   C995    1.408   .     A
C989   C991    1.414   .     A
C990   C996    1.408   .     A
C990   C992    1.414   .     A
C991   C993    1.429   .     A
C991   C200    1.414   1_556 S
C992   C994    1.429   .     A
C993   C998    1.424   .     A
C994   C997    1.424   .     A
C995   C1021   1.517   .     S
C995   C205    1.406   1_556 S
C996   C1025   1.517   .     S
C997   C1029   1.512   .     S
C998   C1033   1.512   .     S
C998   C204    1.406   1_556 S
C1001  I1037   2.156   .     S
C1001  C1006   1.411   .     A
C1002  C1005   1.411   .     A
C1002  I1038   2.156   .     S
C1002  C828    1.398   1_655 S
C1003  I1039   2.144   .     S
C1003  C1005   1.416   .     A
C1003  C825    1.398   1_655 S
C1004  C1006   1.416   .     A
C1004  I1040   2.144   .     S
C1007  N1012   1.383   .     A
C1007  C1041   1.519   .     S
C1007  C1538   1.435   1_545 S
C1008  N1011   1.383   .     A
C1008  C1045   1.519   .     S
C1008  C1273   1.435   .     S
C1009  C1049   1.515   .     S
C1009  N1012   1.381   .     A
C1009  C1536   1.435   1_545 S
C1010  C1053   1.515   .     S
C1010  N1011   1.381   .     A
C1010  C1271   1.435   .     S
C1013  H1015   1.103   .     S
C1013  H1016   1.107   .     S
C1013  H1014   1.110   .     S
C1017  H1019   1.106   .     S
C1017  H1020   1.102   .     S
C1017  H1018   1.109   .     S
C1021  H1023   1.111   .     S
C1021  H1022   1.111   .     S
C1021  H1024   1.106   .     S
C1025  H1028   1.111   .     S
C1025  H1026   1.111   .     S
C1025  H1027   1.106   .     S
C1029  H1031   1.109   .     S
C1029  H1032   1.107   .     S
H1030  C237    1.110   1_556 S
C1033  H1035   1.107   .     S
C1033  H1036   1.109   .     S
C1033  H242    1.110   1_556 S
C1041  H1042   1.083   .     S
C1041  H1043   1.111   .     S
C1041  H1044   1.110   .     S
C1045  H1046   1.083   .     S
C1045  H1048   1.111   .     S
C1045  H1047   1.110   .     S
C1049  H1050   1.088   .     S
C1049  H1051   1.110   .     S
C1049  H1052   1.104   .     S
C1053  H1054   1.088   .     S
C1053  H1055   1.104   .     S
C1053  H1056   1.110   .     S
O1057  C1061   1.309   .     A
O1057  Cu1069  1.989   .     S
O1058  C1062   1.309   .     A
O1058  Cu1070  1.989   .     S
O1059  C1062   1.314   .     A
O1059  Cu1069  1.975   .     S
O1060  C1061   1.314   .     A
O1060  Cu1070  1.975   .     S
C1061  C1094   1.477   .     S
C1062  C1093   1.477   .     S
O1063  C1067   1.305   .     A
O1063  Cu1069  1.962   .     S
O1064  C1068   1.306   .     A
O1064  Cu1070  1.962   .     S
O1065  Cu1069  1.958   .     S
O1065  C1068   1.299   .     A
O1066  Cu1070  1.958   .     S
O1066  C1067   1.299   .     A
C1067  C1074   1.449   .     S
C1068  C1073   1.449   .     S
Cu1069 Cu1070  2.722   .     S
Cu1069 N1099   2.045   .     S
Cu1070 N1100   2.045   .     S
C1071  C1101   1.521   .     S
C1071  C1073   1.409   .     A
C1071  C1081   1.430   .     A
C1072  C1082   1.430   .     A
C1072  C1105   1.521   .     S
C1072  C1074   1.409   .     A
C1073  C1075   1.382   .     A
C1074  C1076   1.381   .     A
C1075  H1087   1.084   .     S
C1075  C1077   1.394   .     A
C1076  C1078   1.393   .     A
C1076  H1088   1.084   .     S
C1077  C1083   1.408   .     A
C1077  C1079   1.414   .     A
C1078  C1084   1.408   .     A
C1078  C1080   1.414   .     A
C1079  C1081   1.429   .     A
C1079  C288    1.414   1_556 S
C1080  C1082   1.429   .     A
C1081  C1086   1.424   .     A
C1082  C1085   1.424   .     A
C1083  C1109   1.517   .     S
C1083  C293    1.406   1_556 S
C1084  C1113   1.517   .     S
C1085  C1117   1.512   .     S
C1086  C1121   1.512   .     S
C1086  C292    1.406   1_556 S
C1089  I1125   2.156   .     S
C1089  C1094   1.411   .     A
C1089  C1267   1.398   1_455 S
C1090  C1093   1.411   .     A
C1090  I1126   2.156   .     S
C1090  C1180   1.398   .     S
C1091  I1127   2.144   .     S
C1091  C1093   1.416   .     A
C1091  C1177   1.398   .     S
C1092  C1094   1.416   .     A
C1092  I1128   2.144   .     S
C1092  C1266   1.398   1_455 S
C1095  N1100   1.383   .     A
C1095  C1129   1.519   .     S
C1096  N1099   1.383   .     A
C1096  C1133   1.519   .     S
C1096  C1361   1.435   .     S
C1097  C1137   1.515   .     S
C1097  N1100   1.381   .     A
C1098  C1141   1.515   .     S
C1098  N1099   1.381   .     A
C1098  C1359   1.435   .     S
C1101  H1103   1.103   .     S
C1101  H1104   1.107   .     S
C1101  H1102   1.110   .     S
C1105  H1107   1.106   .     S
C1105  H1108   1.102   .     S
C1105  H1106   1.109   .     S
C1109  H1111   1.111   .     S
C1109  H1110   1.111   .     S
C1109  H1112   1.106   .     S
C1113  H1116   1.111   .     S
C1113  H1114   1.111   .     S
C1113  H1115   1.106   .     S
C1117  H1119   1.109   .     S
C1117  H1120   1.107   .     S
H1118  C325    1.110   1_556 S
C1121  H1123   1.107   .     S
C1121  H1124   1.109   .     S
C1121  H330    1.110   1_556 S
C1129  H1130   1.083   .     S
C1129  H1131   1.111   .     S
C1129  H1132   1.110   .     S
C1133  H1134   1.083   .     S
C1133  H1136   1.111   .     S
C1133  H1135   1.110   .     S
C1137  H1138   1.088   .     S
C1137  H1139   1.110   .     S
C1137  H1140   1.104   .     S
C1141  H1142   1.088   .     S
C1141  H1143   1.104   .     S
C1141  H1144   1.110   .     S
O1145  C1149   1.309   .     A
O1145  Cu1157  1.989   .     S
O1146  C1150   1.309   .     A
O1146  Cu1158  1.989   .     S
O1147  C1150   1.314   .     A
O1147  Cu1157  1.975   .     S
O1148  C1149   1.314   .     A
O1148  Cu1158  1.975   .     S
C1149  C1182   1.477   .     S
C1150  C1181   1.477   .     S
O1151  C1155   1.305   .     A
O1151  Cu1157  1.962   .     S
O1152  C1156   1.306   .     A
O1152  Cu1158  1.962   .     S
O1153  Cu1157  1.958   .     S
O1153  C1156   1.299   .     A
O1154  Cu1158  1.958   .     S
O1154  C1155   1.299   .     A
C1155  C1162   1.449   .     S
C1156  C1161   1.449   .     S
Cu1157 Cu1158  2.722   .     S
Cu1157 N1187   2.045   .     S
Cu1158 N1188   2.045   .     S
C1159  C1189   1.521   .     S
C1159  C1161   1.409   .     A
C1159  C1169   1.430   .     A
C1160  C1170   1.430   .     A
C1160  C1193   1.521   .     S
C1160  C1162   1.409   .     A
C1161  C1163   1.382   .     A
C1162  C1164   1.381   .     A
C1163  H1175   1.084   .     S
C1163  C1165   1.394   .     A
C1164  C1166   1.393   .     A
C1164  H1176   1.084   .     S
C1165  C1171   1.408   .     A
C1165  C1167   1.414   .     A
C1166  C1172   1.408   .     A
C1166  C1168   1.414   .     A
C1167  C1169   1.429   .     A
C1167  C376    1.414   1_556 S
C1168  C1170   1.429   .     A
C1169  C1174   1.424   .     A
C1170  C1173   1.424   .     A
C1171  C1197   1.517   .     S
C1171  C381    1.406   1_556 S
C1172  C1201   1.517   .     S
C1173  C1205   1.512   .     S
C1174  C1209   1.512   .     S
C1174  C380    1.406   1_556 S
C1177  I1213   2.156   .     S
C1177  C1182   1.411   .     A
C1178  C1181   1.411   .     A
C1178  I1214   2.156   .     S
C1178  C1268   1.398   .     S
C1179  I1215   2.144   .     S
C1179  C1181   1.416   .     A
C1179  C1265   1.398   .     S
C1180  C1182   1.416   .     A
C1180  I1216   2.144   .     S
C1183  N1188   1.383   .     A
C1183  C1217   1.519   .     S
C1184  N1187   1.383   .     A
C1184  C1221   1.519   .     S
C1184  C1449   1.435   .     S
C1185  C1225   1.515   .     S
C1185  N1188   1.381   .     A
C1186  C1229   1.515   .     S
C1186  N1187   1.381   .     A
C1186  C1447   1.435   .     S
C1189  H1191   1.103   .     S
C1189  H1192   1.107   .     S
C1189  H1190   1.110   .     S
C1193  H1195   1.106   .     S
C1193  H1196   1.102   .     S
C1193  H1194   1.109   .     S
C1197  H1199   1.111   .     S
C1197  H1198   1.111   .     S
C1197  H1200   1.106   .     S
C1201  H1204   1.111   .     S
C1201  H1202   1.111   .     S
C1201  H1203   1.106   .     S
C1205  H1207   1.109   .     S
C1205  H1208   1.107   .     S
H1206  C413    1.110   1_556 S
C1209  H1211   1.107   .     S
C1209  H1212   1.109   .     S
C1209  H418    1.110   1_556 S
C1217  H1218   1.083   .     S
C1217  H1219   1.111   .     S
C1217  H1220   1.110   .     S
C1221  H1222   1.083   .     S
C1221  H1224   1.111   .     S
C1221  H1223   1.110   .     S
C1225  H1226   1.088   .     S
C1225  H1227   1.110   .     S
C1225  H1228   1.104   .     S
C1229  H1230   1.088   .     S
C1229  H1231   1.104   .     S
C1229  H1232   1.110   .     S
O1233  C1237   1.309   .     A
O1233  Cu1245  1.989   .     S
O1234  C1238   1.309   .     A
O1234  Cu1246  1.989   .     S
O1235  C1238   1.314   .     A
O1235  Cu1245  1.975   .     S
O1236  C1237   1.314   .     A
O1236  Cu1246  1.975   .     S
C1237  C1270   1.477   .     S
C1238  C1269   1.477   .     S
O1239  C1243   1.305   .     A
O1239  Cu1245  1.962   .     S
O1240  C1244   1.306   .     A
O1240  Cu1246  1.962   .     S
O1241  Cu1245  1.958   .     S
O1241  C1244   1.299   .     A
O1242  Cu1246  1.958   .     S
O1242  C1243   1.299   .     A
C1243  C1250   1.449   .     S
C1244  C1249   1.449   .     S
Cu1245 Cu1246  2.722   .     S
Cu1245 N1275   2.045   .     S
Cu1246 N1276   2.045   .     S
C1247  C1277   1.521   .     S
C1247  C1249   1.409   .     A
C1247  C1257   1.430   .     A
C1248  C1258   1.430   .     A
C1248  C1281   1.521   .     S
C1248  C1250   1.409   .     A
C1249  C1251   1.382   .     A
C1250  C1252   1.381   .     A
C1251  H1263   1.084   .     S
C1251  C1253   1.394   .     A
C1252  C1254   1.393   .     A
C1252  H1264   1.084   .     S
C1253  C1259   1.408   .     A
C1253  C1255   1.414   .     A
C1254  C1260   1.408   .     A
C1254  C1256   1.414   .     A
C1255  C1257   1.429   .     A
C1255  C464    1.414   1_556 S
C1256  C1258   1.429   .     A
C1257  C1262   1.424   .     A
C1258  C1261   1.424   .     A
C1259  C1285   1.517   .     S
C1259  C469    1.406   1_556 S
C1260  C1289   1.517   .     S
C1261  C1293   1.512   .     S
C1262  C1297   1.512   .     S
C1262  C468    1.406   1_556 S
C1265  I1301   2.156   .     S
C1265  C1270   1.411   .     A
C1266  C1269   1.411   .     A
C1266  I1302   2.156   .     S
C1266  C1092   1.398   1_655 S
C1267  I1303   2.144   .     S
C1267  C1269   1.416   .     A
C1267  C1089   1.398   1_655 S
C1268  C1270   1.416   .     A
C1268  I1304   2.144   .     S
C1271  N1276   1.383   .     A
C1271  C1305   1.519   .     S
C1272  N1275   1.383   .     A
C1272  C1309   1.519   .     S
C1272  C1537   1.435   .     S
C1273  C1313   1.515   .     S
C1273  N1276   1.381   .     A
C1274  C1317   1.515   .     S
C1274  N1275   1.381   .     A
C1274  C1535   1.435   .     S
C1277  H1279   1.103   .     S
C1277  H1280   1.107   .     S
C1277  H1278   1.110   .     S
C1281  H1283   1.106   .     S
C1281  H1284   1.102   .     S
C1281  H1282   1.109   .     S
C1285  H1287   1.111   .     S
C1285  H1286   1.111   .     S
C1285  H1288   1.106   .     S
C1289  H1292   1.111   .     S
C1289  H1290   1.111   .     S
C1289  H1291   1.106   .     S
C1293  H1295   1.109   .     S
C1293  H1296   1.107   .     S
H1294  C501    1.110   1_556 S
C1297  H1299   1.107   .     S
C1297  H1300   1.109   .     S
C1297  H506    1.110   1_556 S
C1305  H1306   1.083   .     S
C1305  H1307   1.111   .     S
C1305  H1308   1.110   .     S
C1309  H1310   1.083   .     S
C1309  H1312   1.111   .     S
C1309  H1311   1.110   .     S
C1313  H1314   1.088   .     S
C1313  H1315   1.110   .     S
C1313  H1316   1.104   .     S
C1317  H1318   1.088   .     S
C1317  H1319   1.104   .     S
C1317  H1320   1.110   .     S
O1321  C1325   1.309   .     A
O1321  Cu1333  1.989   .     S
O1322  C1326   1.309   .     A
O1322  Cu1334  1.989   .     S
O1323  C1326   1.314   .     A
O1323  Cu1333  1.975   .     S
O1324  C1325   1.314   .     A
O1324  Cu1334  1.975   .     S
C1325  C1358   1.477   .     S
C1326  C1357   1.477   .     S
O1327  C1331   1.305   .     A
O1327  Cu1333  1.962   .     S
O1328  C1332   1.306   .     A
O1328  Cu1334  1.962   .     S
O1329  Cu1333  1.958   .     S
O1329  C1332   1.299   .     A
O1330  Cu1334  1.958   .     S
O1330  C1331   1.299   .     A
C1331  C1338   1.449   .     S
C1332  C1337   1.449   .     S
Cu1333 Cu1334  2.722   .     S
Cu1333 N1363   2.045   .     S
Cu1334 N1364   2.045   .     S
C1335  C1365   1.521   .     S
C1335  C1337   1.409   .     A
C1335  C1345   1.430   .     A
C1336  C1346   1.430   .     A
C1336  C1369   1.521   .     S
C1336  C1338   1.409   .     A
C1337  C1339   1.382   .     A
C1338  C1340   1.381   .     A
C1339  H1351   1.084   .     S
C1339  C1341   1.394   .     A
C1340  C1342   1.393   .     A
C1340  H1352   1.084   .     S
C1341  C1347   1.408   .     A
C1341  C1343   1.414   .     A
C1342  C1348   1.408   .     A
C1342  C1344   1.414   .     A
C1343  C1345   1.429   .     A
C1343  C552    1.414   1_556 S
C1344  C1346   1.429   .     A
C1345  C1350   1.424   .     A
C1346  C1349   1.424   .     A
C1347  C1373   1.517   .     S
C1347  C557    1.406   1_556 S
C1348  C1377   1.517   .     S
C1349  C1381   1.512   .     S
C1350  C1385   1.512   .     S
C1350  C556    1.406   1_556 S
C1353  I1389   2.156   .     S
C1353  C1358   1.411   .     A
C1353  C1531   1.398   1_455 S
C1354  C1357   1.411   .     A
C1354  I1390   2.156   .     S
C1354  C1444   1.398   .     S
C1355  I1391   2.144   .     S
C1355  C1357   1.416   .     A
C1355  C1441   1.398   .     S
C1356  C1358   1.416   .     A
C1356  I1392   2.144   .     S
C1356  C1530   1.398   1_455 S
C1359  N1364   1.383   .     A
C1359  C1393   1.519   .     S
C1360  N1363   1.383   .     A
C1360  C1397   1.519   .     S
C1360  C833    1.435   1_565 S
C1361  C1401   1.515   .     S
C1361  N1364   1.381   .     A
C1362  C1405   1.515   .     S
C1362  N1363   1.381   .     A
C1362  C831    1.435   1_565 S
C1365  H1367   1.103   .     S
C1365  H1368   1.107   .     S
C1365  H1366   1.110   .     S
C1369  H1371   1.106   .     S
C1369  H1372   1.102   .     S
C1369  H1370   1.109   .     S
C1373  H1375   1.111   .     S
C1373  H1374   1.111   .     S
C1373  H1376   1.106   .     S
C1377  H1380   1.111   .     S
C1377  H1378   1.111   .     S
C1377  H1379   1.106   .     S
C1381  H1383   1.109   .     S
C1381  H1384   1.107   .     S
H1382  C589    1.110   1_556 S
C1385  H1387   1.107   .     S
C1385  H1388   1.109   .     S
C1385  H594    1.110   1_556 S
C1393  H1394   1.083   .     S
C1393  H1395   1.111   .     S
C1393  H1396   1.110   .     S
C1397  H1398   1.083   .     S
C1397  H1400   1.111   .     S
C1397  H1399   1.110   .     S
C1401  H1402   1.088   .     S
C1401  H1403   1.110   .     S
C1401  H1404   1.104   .     S
C1405  H1406   1.088   .     S
C1405  H1407   1.104   .     S
C1405  H1408   1.110   .     S
O1409  C1413   1.309   .     A
O1409  Cu1421  1.989   .     S
O1410  C1414   1.309   .     A
O1410  Cu1422  1.989   .     S
O1411  C1414   1.314   .     A
O1411  Cu1421  1.975   .     S
O1412  C1413   1.314   .     A
O1412  Cu1422  1.975   .     S
C1413  C1446   1.477   .     S
C1414  C1445   1.477   .     S
O1415  C1419   1.305   .     A
O1415  Cu1421  1.962   .     S
O1416  C1420   1.306   .     A
O1416  Cu1422  1.962   .     S
O1417  Cu1421  1.958   .     S
O1417  C1420   1.299   .     A
O1418  Cu1422  1.958   .     S
O1418  C1419   1.299   .     A
C1419  C1426   1.449   .     S
C1420  C1425   1.449   .     S
Cu1421 Cu1422  2.722   .     S
Cu1421 N1451   2.045   .     S
Cu1422 N1452   2.045   .     S
C1423  C1453   1.521   .     S
C1423  C1425   1.409   .     A
C1423  C1433   1.430   .     A
C1424  C1434   1.430   .     A
C1424  C1457   1.521   .     S
C1424  C1426   1.409   .     A
C1425  C1427   1.382   .     A
C1426  C1428   1.381   .     A
C1427  H1439   1.084   .     S
C1427  C1429   1.394   .     A
C1428  C1430   1.393   .     A
C1428  H1440   1.084   .     S
C1429  C1435   1.408   .     A
C1429  C1431   1.414   .     A
C1430  C1436   1.408   .     A
C1430  C1432   1.414   .     A
C1431  C1433   1.429   .     A
C1431  C640    1.414   1_556 S
C1432  C1434   1.429   .     A
C1433  C1438   1.424   .     A
C1434  C1437   1.424   .     A
C1435  C1461   1.517   .     S
C1435  C645    1.406   1_556 S
C1436  C1465   1.517   .     S
C1437  C1469   1.512   .     S
C1438  C1473   1.512   .     S
C1438  C644    1.406   1_556 S
C1441  I1477   2.156   .     S
C1441  C1446   1.411   .     A
C1442  C1445   1.411   .     A
C1442  I1478   2.156   .     S
C1442  C1532   1.398   .     S
C1443  I1479   2.144   .     S
C1443  C1445   1.416   .     A
C1443  C1529   1.398   .     S
C1444  C1446   1.416   .     A
C1444  I1480   2.144   .     S
C1447  N1452   1.383   .     A
C1447  C1481   1.519   .     S
C1448  N1451   1.383   .     A
C1448  C1485   1.519   .     S
C1448  C921    1.435   1_565 S
C1449  C1489   1.515   .     S
C1449  N1452   1.381   .     A
C1450  C1493   1.515   .     S
C1450  N1451   1.381   .     A
C1450  C919    1.435   1_565 S
C1453  H1455   1.103   .     S
C1453  H1456   1.107   .     S
C1453  H1454   1.110   .     S
C1457  H1459   1.106   .     S
C1457  H1460   1.102   .     S
C1457  H1458   1.109   .     S
C1461  H1463   1.111   .     S
C1461  H1462   1.111   .     S
C1461  H1464   1.106   .     S
C1465  H1468   1.111   .     S
C1465  H1466   1.111   .     S
C1465  H1467   1.106   .     S
C1469  H1471   1.109   .     S
C1469  H1472   1.107   .     S
H1470  C677    1.110   1_556 S
C1473  H1475   1.107   .     S
C1473  H1476   1.109   .     S
C1473  H682    1.110   1_556 S
C1481  H1482   1.083   .     S
C1481  H1483   1.111   .     S
C1481  H1484   1.110   .     S
C1485  H1486   1.083   .     S
C1485  H1488   1.111   .     S
C1485  H1487   1.110   .     S
C1489  H1490   1.088   .     S
C1489  H1491   1.110   .     S
C1489  H1492   1.104   .     S
C1493  H1494   1.088   .     S
C1493  H1495   1.104   .     S
C1493  H1496   1.110   .     S
O1497  C1501   1.309   .     A
O1497  Cu1509  1.989   .     S
O1498  C1502   1.309   .     A
O1498  Cu1510  1.989   .     S
O1499  C1502   1.314   .     A
O1499  Cu1509  1.975   .     S
O1500  C1501   1.314   .     A
O1500  Cu1510  1.975   .     S
C1501  C1534   1.477   .     S
C1502  C1533   1.477   .     S
O1503  C1507   1.305   .     A
O1503  Cu1509  1.962   .     S
O1504  C1508   1.306   .     A
O1504  Cu1510  1.962   .     S
O1505  Cu1509  1.958   .     S
O1505  C1508   1.299   .     A
O1506  Cu1510  1.958   .     S
O1506  C1507   1.299   .     A
C1507  C1514   1.449   .     S
C1508  C1513   1.449   .     S
Cu1509 Cu1510  2.722   .     S
Cu1509 N1539   2.045   .     S
Cu1510 N1540   2.045   .     S
C1511  C1541   1.521   .     S
C1511  C1513   1.409   .     A
C1511  C1521   1.430   .     A
C1512  C1522   1.430   .     A
C1512  C1545   1.521   .     S
C1512  C1514   1.409   .     A
C1513  C1515   1.382   .     A
C1514  C1516   1.381   .     A
C1515  H1527   1.084   .     S
C1515  C1517   1.394   .     A
C1516  C1518   1.393   .     A
C1516  H1528   1.084   .     S
C1517  C1523   1.408   .     A
C1517  C1519   1.414   .     A
C1518  C1524   1.408   .     A
C1518  C1520   1.414   .     A
C1519  C1521   1.429   .     A
C1519  C728    1.414   1_556 S
C1520  C1522   1.429   .     A
C1521  C1526   1.424   .     A
C1522  C1525   1.424   .     A
C1523  C1549   1.517   .     S
C1523  C733    1.406   1_556 S
C1524  C1553   1.517   .     S
C1525  C1557   1.512   .     S
C1526  C1561   1.512   .     S
C1526  C732    1.406   1_556 S
C1529  I1565   2.156   .     S
C1529  C1534   1.411   .     A
C1530  C1533   1.411   .     A
C1530  I1566   2.156   .     S
C1530  C1356   1.398   1_655 S
C1531  I1567   2.144   .     S
C1531  C1533   1.416   .     A
C1531  C1353   1.398   1_655 S
C1532  C1534   1.416   .     A
C1532  I1568   2.144   .     S
C1535  N1540   1.383   .     A
C1535  C1569   1.519   .     S
C1536  N1539   1.383   .     A
C1536  C1573   1.519   .     S
C1536  C1009   1.435   1_565 S
C1537  C1577   1.515   .     S
C1537  N1540   1.381   .     A
C1538  C1581   1.515   .     S
C1538  N1539   1.381   .     A
C1538  C1007   1.435   1_565 S
C1541  H1543   1.103   .     S
C1541  H1544   1.107   .     S
C1541  H1542   1.110   .     S
C1545  H1547   1.106   .     S
C1545  H1548   1.102   .     S
C1545  H1546   1.109   .     S
C1549  H1551   1.111   .     S
C1549  H1550   1.111   .     S
C1549  H1552   1.106   .     S
C1553  H1556   1.111   .     S
C1553  H1554   1.111   .     S
C1553  H1555   1.106   .     S
C1557  H1559   1.109   .     S
C1557  H1560   1.107   .     S
H1558  C765    1.110   1_556 S
C1561  H1563   1.107   .     S
C1561  H1564   1.109   .     S
C1561  H770    1.110   1_556 S
C1569  H1570   1.083   .     S
C1569  H1571   1.111   .     S
C1569  H1572   1.110   .     S
C1573  H1574   1.083   .     S
C1573  H1576   1.111   .     S
C1573  H1575   1.110   .     S
C1577  H1578   1.088   .     S
C1577  H1579   1.110   .     S
C1577  H1580   1.104   .     S
C1581  H1582   1.088   .     S
C1581  H1583   1.104   .     S
C1581  H1584   1.110   .     S
