data_str_m2_o1_o2_pcu_sym.74
_audit_creation_date              2020-01-03
_audit_creation_method            'Materials Studio'
_symmetry_space_group_name_H-M    'P1'
_symmetry_Int_Tables_number       1
_symmetry_cell_setting            triclinic
loop_
_symmetry_equiv_pos_as_xyz
  x,y,z
_cell_length_a                    32.4906
_cell_length_b                    28.5534
_cell_length_c                    30.1876
_cell_angle_alpha                 90.0000
_cell_angle_beta                  90.1525
_cell_angle_gamma                 90.0000
loop_
_atom_site_label
_atom_site_type_symbol
_atom_site_fract_x
_atom_site_fract_y
_atom_site_fract_z
_atom_site_U_iso_or_equiv
_atom_site_adp_type
_atom_site_occupancy
O1     O     0.10655   0.20625   0.24999   0.00000  Uiso   1.00
O2     O     0.22679   0.12709   0.25000   0.00000  Uiso   1.00
O3     O     0.22679   0.20625   0.25000   0.00000  Uiso   1.00
O4     O     0.10655   0.12709   0.24999   0.00000  Uiso   1.00
N5     N     0.16667   0.28402   0.25000   0.00000  Uiso   1.00
N6     N     0.16667   0.04931   0.25000   0.00000  Uiso   1.00
C7     C     0.08735   0.16667   0.24995   0.00000  Uiso   1.00
C8     C     0.24598   0.16667   0.25004   0.00000  Uiso   1.00
O9     O     0.16666   0.20626   0.18573   0.00000  Uiso   1.00
O10    O     0.16667   0.12707   0.31427   0.00000  Uiso   1.00
O11    O     0.16667   0.20626   0.31427   0.00000  Uiso   1.00
O12    O     0.16666   0.12707   0.18573   0.00000  Uiso   1.00
C13    C     0.16665   0.16666   0.16500   0.00000  Uiso   1.00
C14    C     0.16668   0.16666   0.33500   0.00000  Uiso   1.00
Cu15   Cu    0.16667   0.21355   0.25000   0.00000  Uiso   1.00
Cu16   Cu    0.16667   0.11978   0.25000   0.00000  Uiso   1.00
H17    H     0.11994   0.04352   0.20107   0.00000  Uiso   1.00
H18    H     0.21340   0.28983   0.29891   0.00000  Uiso   1.00
H19    H     0.21340   0.04352   0.29893   0.00000  Uiso   1.00
H20    H     0.11993   0.28983   0.20109   0.00000  Uiso   1.00
C21    C     0.14072   0.02481   0.22284   0.00000  Uiso   1.00
C22    C     0.19262   0.30853   0.27716   0.00000  Uiso   1.00
C23    C     0.19261   0.02481   0.27716   0.00000  Uiso   1.00
C24    C     0.14072   0.30853   0.22284   0.00000  Uiso   1.00
C25    C     0.02129   0.12410   0.24996   0.00000  Uiso   1.00
C26    C     0.31205   0.20923   0.25002   0.00000  Uiso   1.00
C27    C     0.31205   0.12410   0.25004   0.00000  Uiso   1.00
C28    C     0.02129   0.20923   0.24997   0.00000  Uiso   1.00
C29    C     0.19641   0.19205   0.04703   0.00000  Uiso   1.00
C30    C     0.19642   0.14096   0.45308   0.00000  Uiso   1.00
C31    C     0.13691   0.19203   0.45297   0.00000  Uiso   1.00
C32    C     0.13693   0.14093   0.04692   0.00000  Uiso   1.00
C33    C     0.19701   0.19224   0.09328   0.00000  Uiso   1.00
C34    C     0.19704   0.14093   0.40683   0.00000  Uiso   1.00
C35    C     0.13631   0.19222   0.40672   0.00000  Uiso   1.00
C36    C     0.13631   0.14090   0.09317   0.00000  Uiso   1.00
C37    C     0.16664   0.16663   0.11662   0.00000  Uiso   1.00
C38    C     0.16669   0.16663   0.38338   0.00000  Uiso   1.00
C39    C     0.16668   0.16645   0.02410   0.00000  Uiso   1.00
C40    C     0.16666   0.16645   0.47590   0.00000  Uiso   1.00
C41    C     0.29060   0.16667   0.25005   0.00000  Uiso   1.00
C42    C     0.04274   0.16667   0.24995   0.00000  Uiso   1.00
H43    H     0.21957   0.21129   0.02874   0.00000  Uiso   1.00
H44    H     0.21958   0.12168   0.47146   0.00000  Uiso   1.00
H45    H     0.11374   0.21125   0.47126   0.00000  Uiso   1.00
H46    H     0.11378   0.12164   0.02854   0.00000  Uiso   1.00
N47    N     0.22931   0.21725   0.11580   0.00000  Uiso   1.00
O48    O     0.24861   0.19811   0.14898   0.00000  Uiso   1.00
O49    O     0.24366   0.25596   0.09912   0.00000  Uiso   1.00
N50    N     0.22931   0.11593   0.38442   0.00000  Uiso   1.00
O51    O     0.24860   0.13510   0.35136   0.00000  Uiso   1.00
O52    O     0.24357   0.07711   0.40103   0.00000  Uiso   1.00
N53    N     0.10400   0.21720   0.38420   0.00000  Uiso   1.00
O54    O     0.08471   0.19806   0.35101   0.00000  Uiso   1.00
O55    O     0.08963   0.25590   0.40088   0.00000  Uiso   1.00
N56    N     0.10405   0.11589   0.11557   0.00000  Uiso   1.00
O57    O     0.08474   0.13505   0.14863   0.00000  Uiso   1.00
O58    O     0.08983   0.07704   0.09897   0.00000  Uiso   1.00
H59    H     0.03730   0.09083   0.24991   0.00000  Uiso   1.00
H60    H     0.29603   0.24250   0.25003   0.00000  Uiso   1.00
H61    H     0.29603   0.09083   0.25009   0.00000  Uiso   1.00
H62    H     0.03730   0.24250   0.24997   0.00000  Uiso   1.00
O63    O     0.43988   0.20625   0.24999   0.00000  Uiso   1.00
O64    O     0.56012   0.12709   0.25000   0.00000  Uiso   1.00
O65    O     0.56012   0.20625   0.25000   0.00000  Uiso   1.00
O66    O     0.43988   0.12709   0.24999   0.00000  Uiso   1.00
N67    N     0.50000   0.28402   0.25000   0.00000  Uiso   1.00
N68    N     0.50000   0.04931   0.25000   0.00000  Uiso   1.00
C69    C     0.42069   0.16667   0.24995   0.00000  Uiso   1.00
C70    C     0.57931   0.16667   0.25004   0.00000  Uiso   1.00
O71    O     0.50000   0.20626   0.18573   0.00000  Uiso   1.00
O72    O     0.50000   0.12707   0.31427   0.00000  Uiso   1.00
O73    O     0.50000   0.20626   0.31427   0.00000  Uiso   1.00
O74    O     0.50000   0.12707   0.18573   0.00000  Uiso   1.00
C75    C     0.49999   0.16666   0.16500   0.00000  Uiso   1.00
C76    C     0.50001   0.16666   0.33500   0.00000  Uiso   1.00
Cu77   Cu    0.50000   0.21355   0.25000   0.00000  Uiso   1.00
Cu78   Cu    0.50000   0.11978   0.25000   0.00000  Uiso   1.00
H79    H     0.45327   0.04352   0.20107   0.00000  Uiso   1.00
H80    H     0.54674   0.28983   0.29891   0.00000  Uiso   1.00
H81    H     0.54673   0.04352   0.29893   0.00000  Uiso   1.00
H82    H     0.45326   0.28983   0.20109   0.00000  Uiso   1.00
C83    C     0.47405   0.02481   0.22284   0.00000  Uiso   1.00
C84    C     0.52595   0.30853   0.27716   0.00000  Uiso   1.00
C85    C     0.52595   0.02481   0.27716   0.00000  Uiso   1.00
C86    C     0.47405   0.30853   0.22284   0.00000  Uiso   1.00
C87    C     0.35462   0.12410   0.24996   0.00000  Uiso   1.00
C88    C     0.64538   0.20923   0.25002   0.00000  Uiso   1.00
C89    C     0.64538   0.12410   0.25004   0.00000  Uiso   1.00
C90    C     0.35462   0.20923   0.24997   0.00000  Uiso   1.00
C91    C     0.52974   0.19205   0.04703   0.00000  Uiso   1.00
C92    C     0.52975   0.14096   0.45308   0.00000  Uiso   1.00
C93    C     0.47024   0.19203   0.45297   0.00000  Uiso   1.00
C94    C     0.47026   0.14093   0.04692   0.00000  Uiso   1.00
C95    C     0.53034   0.19224   0.09328   0.00000  Uiso   1.00
C96    C     0.53037   0.14093   0.40683   0.00000  Uiso   1.00
C97    C     0.46964   0.19222   0.40672   0.00000  Uiso   1.00
C98    C     0.46964   0.14090   0.09317   0.00000  Uiso   1.00
C99    C     0.49998   0.16663   0.11662   0.00000  Uiso   1.00
C100   C     0.50002   0.16663   0.38338   0.00000  Uiso   1.00
C101   C     0.50001   0.16645   0.02410   0.00000  Uiso   1.00
C102   C     0.49999   0.16645   0.47590   0.00000  Uiso   1.00
C103   C     0.62393   0.16667   0.25005   0.00000  Uiso   1.00
C104   C     0.37607   0.16667   0.24995   0.00000  Uiso   1.00
H105   H     0.55290   0.21129   0.02874   0.00000  Uiso   1.00
H106   H     0.55292   0.12168   0.47146   0.00000  Uiso   1.00
H107   H     0.44707   0.21125   0.47126   0.00000  Uiso   1.00
H108   H     0.44711   0.12164   0.02854   0.00000  Uiso   1.00
N109   N     0.56264   0.21725   0.11580   0.00000  Uiso   1.00
O110   O     0.58195   0.19811   0.14898   0.00000  Uiso   1.00
O111   O     0.57699   0.25596   0.09912   0.00000  Uiso   1.00
N112   N     0.56264   0.11593   0.38442   0.00000  Uiso   1.00
O113   O     0.58194   0.13510   0.35136   0.00000  Uiso   1.00
O114   O     0.57690   0.07711   0.40103   0.00000  Uiso   1.00
N115   N     0.43733   0.21720   0.38420   0.00000  Uiso   1.00
O116   O     0.41804   0.19806   0.35101   0.00000  Uiso   1.00
O117   O     0.42296   0.25590   0.40088   0.00000  Uiso   1.00
N118   N     0.43739   0.11589   0.11557   0.00000  Uiso   1.00
O119   O     0.41807   0.13505   0.14863   0.00000  Uiso   1.00
O120   O     0.42316   0.07704   0.09897   0.00000  Uiso   1.00
H121   H     0.37064   0.09083   0.24991   0.00000  Uiso   1.00
H122   H     0.62936   0.24250   0.25003   0.00000  Uiso   1.00
H123   H     0.62936   0.09083   0.25009   0.00000  Uiso   1.00
H124   H     0.37064   0.24250   0.24997   0.00000  Uiso   1.00
O125   O     0.77321   0.20625   0.24999   0.00000  Uiso   1.00
O126   O     0.89345   0.12709   0.25000   0.00000  Uiso   1.00
O127   O     0.89345   0.20625   0.25000   0.00000  Uiso   1.00
O128   O     0.77321   0.12709   0.24999   0.00000  Uiso   1.00
N129   N     0.83333   0.28402   0.25000   0.00000  Uiso   1.00
N130   N     0.83333   0.04931   0.25000   0.00000  Uiso   1.00
C131   C     0.75402   0.16667   0.24995   0.00000  Uiso   1.00
C132   C     0.91265   0.16667   0.25004   0.00000  Uiso   1.00
O133   O     0.83333   0.20626   0.18573   0.00000  Uiso   1.00
O134   O     0.83334   0.12707   0.31427   0.00000  Uiso   1.00
O135   O     0.83334   0.20626   0.31427   0.00000  Uiso   1.00
O136   O     0.83333   0.12707   0.18573   0.00000  Uiso   1.00
C137   C     0.83332   0.16666   0.16500   0.00000  Uiso   1.00
C138   C     0.83335   0.16666   0.33500   0.00000  Uiso   1.00
Cu139  Cu    0.83333   0.21355   0.25000   0.00000  Uiso   1.00
Cu140  Cu    0.83333   0.11978   0.25000   0.00000  Uiso   1.00
H141   H     0.78660   0.04352   0.20107   0.00000  Uiso   1.00
H142   H     0.88007   0.28983   0.29891   0.00000  Uiso   1.00
H143   H     0.88006   0.04352   0.29893   0.00000  Uiso   1.00
H144   H     0.78659   0.28983   0.20109   0.00000  Uiso   1.00
C145   C     0.80739   0.02481   0.22284   0.00000  Uiso   1.00
C146   C     0.85928   0.30853   0.27716   0.00000  Uiso   1.00
C147   C     0.85928   0.02481   0.27716   0.00000  Uiso   1.00
C148   C     0.80738   0.30853   0.22284   0.00000  Uiso   1.00
C149   C     0.68795   0.12410   0.24996   0.00000  Uiso   1.00
C150   C     0.97871   0.20923   0.25002   0.00000  Uiso   1.00
C151   C     0.97871   0.12410   0.25004   0.00000  Uiso   1.00
C152   C     0.68795   0.20923   0.24997   0.00000  Uiso   1.00
C153   C     0.86308   0.19205   0.04703   0.00000  Uiso   1.00
C154   C     0.86309   0.14096   0.45308   0.00000  Uiso   1.00
C155   C     0.80358   0.19203   0.45297   0.00000  Uiso   1.00
C156   C     0.80359   0.14093   0.04692   0.00000  Uiso   1.00
C157   C     0.86367   0.19224   0.09328   0.00000  Uiso   1.00
C158   C     0.86371   0.14093   0.40683   0.00000  Uiso   1.00
C159   C     0.80298   0.19222   0.40672   0.00000  Uiso   1.00
C160   C     0.80297   0.14090   0.09317   0.00000  Uiso   1.00
C161   C     0.83331   0.16663   0.11662   0.00000  Uiso   1.00
C162   C     0.83336   0.16663   0.38338   0.00000  Uiso   1.00
C163   C     0.83334   0.16645   0.02410   0.00000  Uiso   1.00
C164   C     0.83332   0.16645   0.47590   0.00000  Uiso   1.00
C165   C     0.95726   0.16667   0.25005   0.00000  Uiso   1.00
C166   C     0.70940   0.16667   0.24995   0.00000  Uiso   1.00
H167   H     0.88624   0.21129   0.02874   0.00000  Uiso   1.00
H168   H     0.88625   0.12168   0.47146   0.00000  Uiso   1.00
H169   H     0.78040   0.21125   0.47126   0.00000  Uiso   1.00
H170   H     0.78044   0.12164   0.02854   0.00000  Uiso   1.00
N171   N     0.89597   0.21725   0.11580   0.00000  Uiso   1.00
O172   O     0.91528   0.19811   0.14898   0.00000  Uiso   1.00
O173   O     0.91032   0.25596   0.09912   0.00000  Uiso   1.00
N174   N     0.89598   0.11593   0.38442   0.00000  Uiso   1.00
O175   O     0.91527   0.13510   0.35136   0.00000  Uiso   1.00
O176   O     0.91023   0.07711   0.40103   0.00000  Uiso   1.00
N177   N     0.77067   0.21720   0.38420   0.00000  Uiso   1.00
O178   O     0.75137   0.19806   0.35101   0.00000  Uiso   1.00
O179   O     0.75629   0.25590   0.40088   0.00000  Uiso   1.00
N180   N     0.77072   0.11589   0.11557   0.00000  Uiso   1.00
O181   O     0.75141   0.13505   0.14863   0.00000  Uiso   1.00
O182   O     0.75650   0.07704   0.09897   0.00000  Uiso   1.00
H183   H     0.70397   0.09083   0.24991   0.00000  Uiso   1.00
H184   H     0.96269   0.24250   0.25003   0.00000  Uiso   1.00
H185   H     0.96269   0.09083   0.25009   0.00000  Uiso   1.00
H186   H     0.70397   0.24250   0.24997   0.00000  Uiso   1.00
O187   O     0.10655   0.53958   0.24999   0.00000  Uiso   1.00
O188   O     0.22679   0.46042   0.25000   0.00000  Uiso   1.00
O189   O     0.22679   0.53958   0.25000   0.00000  Uiso   1.00
O190   O     0.10655   0.46042   0.24999   0.00000  Uiso   1.00
N191   N     0.16667   0.61736   0.25000   0.00000  Uiso   1.00
N192   N     0.16667   0.38264   0.25000   0.00000  Uiso   1.00
C193   C     0.08735   0.50000   0.24995   0.00000  Uiso   1.00
C194   C     0.24598   0.50000   0.25004   0.00000  Uiso   1.00
O195   O     0.16666   0.53959   0.18573   0.00000  Uiso   1.00
O196   O     0.16667   0.46041   0.31427   0.00000  Uiso   1.00
O197   O     0.16667   0.53959   0.31427   0.00000  Uiso   1.00
O198   O     0.16666   0.46041   0.18573   0.00000  Uiso   1.00
C199   C     0.16665   0.50000   0.16500   0.00000  Uiso   1.00
C200   C     0.16668   0.50000   0.33500   0.00000  Uiso   1.00
Cu201  Cu    0.16667   0.54689   0.25000   0.00000  Uiso   1.00
Cu202  Cu    0.16667   0.45311   0.25000   0.00000  Uiso   1.00
H203   H     0.11994   0.37685   0.20107   0.00000  Uiso   1.00
H204   H     0.21340   0.62316   0.29891   0.00000  Uiso   1.00
H205   H     0.21340   0.37685   0.29893   0.00000  Uiso   1.00
H206   H     0.11993   0.62316   0.20109   0.00000  Uiso   1.00
C207   C     0.14072   0.35814   0.22284   0.00000  Uiso   1.00
C208   C     0.19262   0.64186   0.27716   0.00000  Uiso   1.00
C209   C     0.19261   0.35814   0.27716   0.00000  Uiso   1.00
C210   C     0.14072   0.64186   0.22284   0.00000  Uiso   1.00
C211   C     0.02129   0.45744   0.24996   0.00000  Uiso   1.00
C212   C     0.31205   0.54256   0.25002   0.00000  Uiso   1.00
C213   C     0.31205   0.45744   0.25004   0.00000  Uiso   1.00
C214   C     0.02129   0.54256   0.24997   0.00000  Uiso   1.00
C215   C     0.19641   0.52538   0.04703   0.00000  Uiso   1.00
C216   C     0.19642   0.47429   0.45308   0.00000  Uiso   1.00
C217   C     0.13691   0.52536   0.45297   0.00000  Uiso   1.00
C218   C     0.13693   0.47427   0.04692   0.00000  Uiso   1.00
C219   C     0.19701   0.52557   0.09328   0.00000  Uiso   1.00
C220   C     0.19704   0.47426   0.40683   0.00000  Uiso   1.00
C221   C     0.13631   0.52555   0.40672   0.00000  Uiso   1.00
C222   C     0.13631   0.47424   0.09317   0.00000  Uiso   1.00
C223   C     0.16664   0.49996   0.11662   0.00000  Uiso   1.00
C224   C     0.16669   0.49996   0.38338   0.00000  Uiso   1.00
C225   C     0.16668   0.49979   0.02410   0.00000  Uiso   1.00
C226   C     0.16666   0.49979   0.47590   0.00000  Uiso   1.00
C227   C     0.29060   0.50000   0.25005   0.00000  Uiso   1.00
C228   C     0.04274   0.50000   0.24995   0.00000  Uiso   1.00
H229   H     0.21957   0.54462   0.02874   0.00000  Uiso   1.00
H230   H     0.21958   0.45501   0.47146   0.00000  Uiso   1.00
H231   H     0.11374   0.54458   0.47126   0.00000  Uiso   1.00
H232   H     0.11378   0.45497   0.02854   0.00000  Uiso   1.00
N233   N     0.22931   0.55058   0.11580   0.00000  Uiso   1.00
O234   O     0.24861   0.53144   0.14898   0.00000  Uiso   1.00
O235   O     0.24366   0.58929   0.09912   0.00000  Uiso   1.00
N236   N     0.22931   0.44927   0.38442   0.00000  Uiso   1.00
O237   O     0.24860   0.46843   0.35136   0.00000  Uiso   1.00
O238   O     0.24357   0.41044   0.40103   0.00000  Uiso   1.00
N239   N     0.10400   0.55054   0.38420   0.00000  Uiso   1.00
O240   O     0.08471   0.53139   0.35101   0.00000  Uiso   1.00
O241   O     0.08963   0.58923   0.40088   0.00000  Uiso   1.00
N242   N     0.10405   0.44922   0.11557   0.00000  Uiso   1.00
O243   O     0.08474   0.46838   0.14863   0.00000  Uiso   1.00
O244   O     0.08983   0.41037   0.09897   0.00000  Uiso   1.00
H245   H     0.03730   0.42416   0.24991   0.00000  Uiso   1.00
H246   H     0.29603   0.57584   0.25003   0.00000  Uiso   1.00
H247   H     0.29603   0.42416   0.25009   0.00000  Uiso   1.00
H248   H     0.03730   0.57584   0.24997   0.00000  Uiso   1.00
O249   O     0.43988   0.53958   0.24999   0.00000  Uiso   1.00
O250   O     0.56012   0.46042   0.25000   0.00000  Uiso   1.00
O251   O     0.56012   0.53958   0.25000   0.00000  Uiso   1.00
O252   O     0.43988   0.46042   0.24999   0.00000  Uiso   1.00
N253   N     0.50000   0.61736   0.25000   0.00000  Uiso   1.00
N254   N     0.50000   0.38264   0.25000   0.00000  Uiso   1.00
C255   C     0.42069   0.50000   0.24995   0.00000  Uiso   1.00
C256   C     0.57931   0.50000   0.25004   0.00000  Uiso   1.00
O257   O     0.50000   0.53959   0.18573   0.00000  Uiso   1.00
O258   O     0.50000   0.46041   0.31427   0.00000  Uiso   1.00
O259   O     0.50000   0.53959   0.31427   0.00000  Uiso   1.00
O260   O     0.50000   0.46041   0.18573   0.00000  Uiso   1.00
C261   C     0.49999   0.50000   0.16500   0.00000  Uiso   1.00
C262   C     0.50001   0.50000   0.33500   0.00000  Uiso   1.00
Cu263  Cu    0.50000   0.54689   0.25000   0.00000  Uiso   1.00
Cu264  Cu    0.50000   0.45311   0.25000   0.00000  Uiso   1.00
H265   H     0.45327   0.37685   0.20107   0.00000  Uiso   1.00
H266   H     0.54674   0.62316   0.29891   0.00000  Uiso   1.00
H267   H     0.54673   0.37685   0.29893   0.00000  Uiso   1.00
H268   H     0.45326   0.62316   0.20109   0.00000  Uiso   1.00
C269   C     0.47405   0.35814   0.22284   0.00000  Uiso   1.00
C270   C     0.52595   0.64186   0.27716   0.00000  Uiso   1.00
C271   C     0.52595   0.35814   0.27716   0.00000  Uiso   1.00
C272   C     0.47405   0.64186   0.22284   0.00000  Uiso   1.00
C273   C     0.35462   0.45744   0.24996   0.00000  Uiso   1.00
C274   C     0.64538   0.54256   0.25002   0.00000  Uiso   1.00
C275   C     0.64538   0.45744   0.25004   0.00000  Uiso   1.00
C276   C     0.35462   0.54256   0.24997   0.00000  Uiso   1.00
C277   C     0.52974   0.52538   0.04703   0.00000  Uiso   1.00
C278   C     0.52975   0.47429   0.45308   0.00000  Uiso   1.00
C279   C     0.47024   0.52536   0.45297   0.00000  Uiso   1.00
C280   C     0.47026   0.47427   0.04692   0.00000  Uiso   1.00
C281   C     0.53034   0.52557   0.09328   0.00000  Uiso   1.00
C282   C     0.53037   0.47426   0.40683   0.00000  Uiso   1.00
C283   C     0.46964   0.52555   0.40672   0.00000  Uiso   1.00
C284   C     0.46964   0.47424   0.09317   0.00000  Uiso   1.00
C285   C     0.49998   0.49996   0.11662   0.00000  Uiso   1.00
C286   C     0.50002   0.49996   0.38338   0.00000  Uiso   1.00
C287   C     0.50001   0.49979   0.02410   0.00000  Uiso   1.00
C288   C     0.49999   0.49979   0.47590   0.00000  Uiso   1.00
C289   C     0.62393   0.50000   0.25005   0.00000  Uiso   1.00
C290   C     0.37607   0.50000   0.24995   0.00000  Uiso   1.00
H291   H     0.55290   0.54462   0.02874   0.00000  Uiso   1.00
H292   H     0.55292   0.45501   0.47146   0.00000  Uiso   1.00
H293   H     0.44707   0.54458   0.47126   0.00000  Uiso   1.00
H294   H     0.44711   0.45497   0.02854   0.00000  Uiso   1.00
N295   N     0.56264   0.55058   0.11580   0.00000  Uiso   1.00
O296   O     0.58195   0.53144   0.14898   0.00000  Uiso   1.00
O297   O     0.57699   0.58929   0.09912   0.00000  Uiso   1.00
N298   N     0.56264   0.44927   0.38442   0.00000  Uiso   1.00
O299   O     0.58194   0.46843   0.35136   0.00000  Uiso   1.00
O300   O     0.57690   0.41044   0.40103   0.00000  Uiso   1.00
N301   N     0.43733   0.55054   0.38420   0.00000  Uiso   1.00
O302   O     0.41804   0.53139   0.35101   0.00000  Uiso   1.00
O303   O     0.42296   0.58923   0.40088   0.00000  Uiso   1.00
N304   N     0.43739   0.44922   0.11557   0.00000  Uiso   1.00
O305   O     0.41807   0.46838   0.14863   0.00000  Uiso   1.00
O306   O     0.42316   0.41037   0.09897   0.00000  Uiso   1.00
H307   H     0.37064   0.42416   0.24991   0.00000  Uiso   1.00
H308   H     0.62936   0.57584   0.25003   0.00000  Uiso   1.00
H309   H     0.62936   0.42416   0.25009   0.00000  Uiso   1.00
H310   H     0.37064   0.57584   0.24997   0.00000  Uiso   1.00
O311   O     0.77321   0.53958   0.24999   0.00000  Uiso   1.00
O312   O     0.89345   0.46042   0.25000   0.00000  Uiso   1.00
O313   O     0.89345   0.53958   0.25000   0.00000  Uiso   1.00
O314   O     0.77321   0.46042   0.24999   0.00000  Uiso   1.00
N315   N     0.83333   0.61736   0.25000   0.00000  Uiso   1.00
N316   N     0.83333   0.38264   0.25000   0.00000  Uiso   1.00
C317   C     0.75402   0.50000   0.24995   0.00000  Uiso   1.00
C318   C     0.91265   0.50000   0.25004   0.00000  Uiso   1.00
O319   O     0.83333   0.53959   0.18573   0.00000  Uiso   1.00
O320   O     0.83334   0.46041   0.31427   0.00000  Uiso   1.00
O321   O     0.83334   0.53959   0.31427   0.00000  Uiso   1.00
O322   O     0.83333   0.46041   0.18573   0.00000  Uiso   1.00
C323   C     0.83332   0.50000   0.16500   0.00000  Uiso   1.00
C324   C     0.83335   0.50000   0.33500   0.00000  Uiso   1.00
Cu325  Cu    0.83333   0.54689   0.25000   0.00000  Uiso   1.00
Cu326  Cu    0.83333   0.45311   0.25000   0.00000  Uiso   1.00
H327   H     0.78660   0.37685   0.20107   0.00000  Uiso   1.00
H328   H     0.88007   0.62316   0.29891   0.00000  Uiso   1.00
H329   H     0.88006   0.37685   0.29893   0.00000  Uiso   1.00
H330   H     0.78659   0.62316   0.20109   0.00000  Uiso   1.00
C331   C     0.80739   0.35814   0.22284   0.00000  Uiso   1.00
C332   C     0.85928   0.64186   0.27716   0.00000  Uiso   1.00
C333   C     0.85928   0.35814   0.27716   0.00000  Uiso   1.00
C334   C     0.80738   0.64186   0.22284   0.00000  Uiso   1.00
C335   C     0.68795   0.45744   0.24996   0.00000  Uiso   1.00
C336   C     0.97871   0.54256   0.25002   0.00000  Uiso   1.00
C337   C     0.97871   0.45744   0.25004   0.00000  Uiso   1.00
C338   C     0.68795   0.54256   0.24997   0.00000  Uiso   1.00
C339   C     0.86308   0.52538   0.04703   0.00000  Uiso   1.00
C340   C     0.86309   0.47429   0.45308   0.00000  Uiso   1.00
C341   C     0.80358   0.52536   0.45297   0.00000  Uiso   1.00
C342   C     0.80359   0.47427   0.04692   0.00000  Uiso   1.00
C343   C     0.86367   0.52557   0.09328   0.00000  Uiso   1.00
C344   C     0.86371   0.47426   0.40683   0.00000  Uiso   1.00
C345   C     0.80298   0.52555   0.40672   0.00000  Uiso   1.00
C346   C     0.80297   0.47424   0.09317   0.00000  Uiso   1.00
C347   C     0.83331   0.49996   0.11662   0.00000  Uiso   1.00
C348   C     0.83336   0.49996   0.38338   0.00000  Uiso   1.00
C349   C     0.83334   0.49979   0.02410   0.00000  Uiso   1.00
C350   C     0.83332   0.49979   0.47590   0.00000  Uiso   1.00
C351   C     0.95726   0.50000   0.25005   0.00000  Uiso   1.00
C352   C     0.70940   0.50000   0.24995   0.00000  Uiso   1.00
H353   H     0.88624   0.54462   0.02874   0.00000  Uiso   1.00
H354   H     0.88625   0.45501   0.47146   0.00000  Uiso   1.00
H355   H     0.78040   0.54458   0.47126   0.00000  Uiso   1.00
H356   H     0.78044   0.45497   0.02854   0.00000  Uiso   1.00
N357   N     0.89597   0.55058   0.11580   0.00000  Uiso   1.00
O358   O     0.91528   0.53144   0.14898   0.00000  Uiso   1.00
O359   O     0.91032   0.58929   0.09912   0.00000  Uiso   1.00
N360   N     0.89598   0.44927   0.38442   0.00000  Uiso   1.00
O361   O     0.91527   0.46843   0.35136   0.00000  Uiso   1.00
O362   O     0.91023   0.41044   0.40103   0.00000  Uiso   1.00
N363   N     0.77067   0.55054   0.38420   0.00000  Uiso   1.00
O364   O     0.75137   0.53139   0.35101   0.00000  Uiso   1.00
O365   O     0.75629   0.58923   0.40088   0.00000  Uiso   1.00
N366   N     0.77072   0.44922   0.11557   0.00000  Uiso   1.00
O367   O     0.75141   0.46838   0.14863   0.00000  Uiso   1.00
O368   O     0.75650   0.41037   0.09897   0.00000  Uiso   1.00
H369   H     0.70397   0.42416   0.24991   0.00000  Uiso   1.00
H370   H     0.96269   0.57584   0.25003   0.00000  Uiso   1.00
H371   H     0.96269   0.42416   0.25009   0.00000  Uiso   1.00
H372   H     0.70397   0.57584   0.24997   0.00000  Uiso   1.00
O373   O     0.10655   0.87291   0.24999   0.00000  Uiso   1.00
O374   O     0.22679   0.79375   0.25000   0.00000  Uiso   1.00
O375   O     0.22679   0.87291   0.25000   0.00000  Uiso   1.00
O376   O     0.10655   0.79375   0.24999   0.00000  Uiso   1.00
N377   N     0.16667   0.95069   0.25000   0.00000  Uiso   1.00
N378   N     0.16667   0.71598   0.25000   0.00000  Uiso   1.00
C379   C     0.08735   0.83333   0.24995   0.00000  Uiso   1.00
C380   C     0.24598   0.83333   0.25004   0.00000  Uiso   1.00
O381   O     0.16666   0.87293   0.18573   0.00000  Uiso   1.00
O382   O     0.16667   0.79374   0.31427   0.00000  Uiso   1.00
O383   O     0.16667   0.87293   0.31427   0.00000  Uiso   1.00
O384   O     0.16666   0.79374   0.18573   0.00000  Uiso   1.00
C385   C     0.16665   0.83333   0.16500   0.00000  Uiso   1.00
C386   C     0.16668   0.83333   0.33500   0.00000  Uiso   1.00
Cu387  Cu    0.16667   0.88022   0.25000   0.00000  Uiso   1.00
Cu388  Cu    0.16667   0.78645   0.25000   0.00000  Uiso   1.00
H389   H     0.11994   0.71018   0.20107   0.00000  Uiso   1.00
H390   H     0.21340   0.95649   0.29891   0.00000  Uiso   1.00
H391   H     0.21340   0.71018   0.29893   0.00000  Uiso   1.00
H392   H     0.11993   0.95649   0.20109   0.00000  Uiso   1.00
C393   C     0.14072   0.69148   0.22284   0.00000  Uiso   1.00
C394   C     0.19262   0.97520   0.27716   0.00000  Uiso   1.00
C395   C     0.19261   0.69148   0.27716   0.00000  Uiso   1.00
C396   C     0.14072   0.97520   0.22284   0.00000  Uiso   1.00
C397   C     0.02129   0.79077   0.24996   0.00000  Uiso   1.00
C398   C     0.31205   0.87589   0.25002   0.00000  Uiso   1.00
C399   C     0.31205   0.79077   0.25004   0.00000  Uiso   1.00
C400   C     0.02129   0.87589   0.24997   0.00000  Uiso   1.00
C401   C     0.19641   0.85871   0.04703   0.00000  Uiso   1.00
C402   C     0.19642   0.80762   0.45308   0.00000  Uiso   1.00
C403   C     0.13691   0.85869   0.45297   0.00000  Uiso   1.00
C404   C     0.13693   0.80760   0.04692   0.00000  Uiso   1.00
C405   C     0.19701   0.85891   0.09328   0.00000  Uiso   1.00
C406   C     0.19704   0.80759   0.40683   0.00000  Uiso   1.00
C407   C     0.13631   0.85888   0.40672   0.00000  Uiso   1.00
C408   C     0.13631   0.80757   0.09317   0.00000  Uiso   1.00
C409   C     0.16664   0.83330   0.11662   0.00000  Uiso   1.00
C410   C     0.16669   0.83330   0.38338   0.00000  Uiso   1.00
C411   C     0.16668   0.83312   0.02410   0.00000  Uiso   1.00
C412   C     0.16666   0.83312   0.47590   0.00000  Uiso   1.00
C413   C     0.29060   0.83333   0.25005   0.00000  Uiso   1.00
C414   C     0.04274   0.83333   0.24995   0.00000  Uiso   1.00
H415   H     0.21957   0.87795   0.02874   0.00000  Uiso   1.00
H416   H     0.21958   0.78834   0.47146   0.00000  Uiso   1.00
H417   H     0.11374   0.87791   0.47126   0.00000  Uiso   1.00
H418   H     0.11378   0.78830   0.02854   0.00000  Uiso   1.00
N419   N     0.22931   0.88391   0.11580   0.00000  Uiso   1.00
O420   O     0.24861   0.86478   0.14898   0.00000  Uiso   1.00
O421   O     0.24366   0.92262   0.09912   0.00000  Uiso   1.00
N422   N     0.22931   0.78260   0.38442   0.00000  Uiso   1.00
O423   O     0.24860   0.80177   0.35136   0.00000  Uiso   1.00
O424   O     0.24357   0.74377   0.40103   0.00000  Uiso   1.00
N425   N     0.10400   0.88387   0.38420   0.00000  Uiso   1.00
O426   O     0.08471   0.86472   0.35101   0.00000  Uiso   1.00
O427   O     0.08963   0.92257   0.40088   0.00000  Uiso   1.00
N428   N     0.10405   0.78255   0.11557   0.00000  Uiso   1.00
O429   O     0.08474   0.80171   0.14863   0.00000  Uiso   1.00
O430   O     0.08983   0.74371   0.09897   0.00000  Uiso   1.00
H431   H     0.03730   0.75750   0.24991   0.00000  Uiso   1.00
H432   H     0.29603   0.90917   0.25003   0.00000  Uiso   1.00
H433   H     0.29603   0.75750   0.25009   0.00000  Uiso   1.00
H434   H     0.03730   0.90917   0.24997   0.00000  Uiso   1.00
O435   O     0.43988   0.87291   0.24999   0.00000  Uiso   1.00
O436   O     0.56012   0.79375   0.25000   0.00000  Uiso   1.00
O437   O     0.56012   0.87291   0.25000   0.00000  Uiso   1.00
O438   O     0.43988   0.79375   0.24999   0.00000  Uiso   1.00
N439   N     0.50000   0.95069   0.25000   0.00000  Uiso   1.00
N440   N     0.50000   0.71598   0.25000   0.00000  Uiso   1.00
C441   C     0.42069   0.83333   0.24995   0.00000  Uiso   1.00
C442   C     0.57931   0.83333   0.25004   0.00000  Uiso   1.00
O443   O     0.50000   0.87293   0.18573   0.00000  Uiso   1.00
O444   O     0.50000   0.79374   0.31427   0.00000  Uiso   1.00
O445   O     0.50000   0.87293   0.31427   0.00000  Uiso   1.00
O446   O     0.50000   0.79374   0.18573   0.00000  Uiso   1.00
C447   C     0.49999   0.83333   0.16500   0.00000  Uiso   1.00
C448   C     0.50001   0.83333   0.33500   0.00000  Uiso   1.00
Cu449  Cu    0.50000   0.88022   0.25000   0.00000  Uiso   1.00
Cu450  Cu    0.50000   0.78645   0.25000   0.00000  Uiso   1.00
H451   H     0.45327   0.71018   0.20107   0.00000  Uiso   1.00
H452   H     0.54674   0.95649   0.29891   0.00000  Uiso   1.00
H453   H     0.54673   0.71018   0.29893   0.00000  Uiso   1.00
H454   H     0.45326   0.95649   0.20109   0.00000  Uiso   1.00
C455   C     0.47405   0.69148   0.22284   0.00000  Uiso   1.00
C456   C     0.52595   0.97520   0.27716   0.00000  Uiso   1.00
C457   C     0.52595   0.69148   0.27716   0.00000  Uiso   1.00
C458   C     0.47405   0.97520   0.22284   0.00000  Uiso   1.00
C459   C     0.35462   0.79077   0.24996   0.00000  Uiso   1.00
C460   C     0.64538   0.87589   0.25002   0.00000  Uiso   1.00
C461   C     0.64538   0.79077   0.25004   0.00000  Uiso   1.00
C462   C     0.35462   0.87589   0.24997   0.00000  Uiso   1.00
C463   C     0.52974   0.85871   0.04703   0.00000  Uiso   1.00
C464   C     0.52975   0.80762   0.45308   0.00000  Uiso   1.00
C465   C     0.47024   0.85869   0.45297   0.00000  Uiso   1.00
C466   C     0.47026   0.80760   0.04692   0.00000  Uiso   1.00
C467   C     0.53034   0.85891   0.09328   0.00000  Uiso   1.00
C468   C     0.53037   0.80759   0.40683   0.00000  Uiso   1.00
C469   C     0.46964   0.85888   0.40672   0.00000  Uiso   1.00
C470   C     0.46964   0.80757   0.09317   0.00000  Uiso   1.00
C471   C     0.49998   0.83330   0.11662   0.00000  Uiso   1.00
C472   C     0.50002   0.83330   0.38338   0.00000  Uiso   1.00
C473   C     0.50001   0.83312   0.02410   0.00000  Uiso   1.00
C474   C     0.49999   0.83312   0.47590   0.00000  Uiso   1.00
C475   C     0.62393   0.83333   0.25005   0.00000  Uiso   1.00
C476   C     0.37607   0.83333   0.24995   0.00000  Uiso   1.00
H477   H     0.55290   0.87795   0.02874   0.00000  Uiso   1.00
H478   H     0.55292   0.78834   0.47146   0.00000  Uiso   1.00
H479   H     0.44707   0.87791   0.47126   0.00000  Uiso   1.00
H480   H     0.44711   0.78830   0.02854   0.00000  Uiso   1.00
N481   N     0.56264   0.88391   0.11580   0.00000  Uiso   1.00
O482   O     0.58195   0.86478   0.14898   0.00000  Uiso   1.00
O483   O     0.57699   0.92262   0.09912   0.00000  Uiso   1.00
N484   N     0.56264   0.78260   0.38442   0.00000  Uiso   1.00
O485   O     0.58194   0.80177   0.35136   0.00000  Uiso   1.00
O486   O     0.57690   0.74377   0.40103   0.00000  Uiso   1.00
N487   N     0.43733   0.88387   0.38420   0.00000  Uiso   1.00
O488   O     0.41804   0.86472   0.35101   0.00000  Uiso   1.00
O489   O     0.42296   0.92257   0.40088   0.00000  Uiso   1.00
N490   N     0.43739   0.78255   0.11557   0.00000  Uiso   1.00
O491   O     0.41807   0.80171   0.14863   0.00000  Uiso   1.00
O492   O     0.42316   0.74371   0.09897   0.00000  Uiso   1.00
H493   H     0.37064   0.75750   0.24991   0.00000  Uiso   1.00
H494   H     0.62936   0.90917   0.25003   0.00000  Uiso   1.00
H495   H     0.62936   0.75750   0.25009   0.00000  Uiso   1.00
H496   H     0.37064   0.90917   0.24997   0.00000  Uiso   1.00
O497   O     0.77321   0.87291   0.24999   0.00000  Uiso   1.00
O498   O     0.89345   0.79375   0.25000   0.00000  Uiso   1.00
O499   O     0.89345   0.87291   0.25000   0.00000  Uiso   1.00
O500   O     0.77321   0.79375   0.24999   0.00000  Uiso   1.00
N501   N     0.83333   0.95069   0.25000   0.00000  Uiso   1.00
N502   N     0.83333   0.71598   0.25000   0.00000  Uiso   1.00
C503   C     0.75402   0.83333   0.24995   0.00000  Uiso   1.00
C504   C     0.91265   0.83333   0.25004   0.00000  Uiso   1.00
O505   O     0.83333   0.87293   0.18573   0.00000  Uiso   1.00
O506   O     0.83334   0.79374   0.31427   0.00000  Uiso   1.00
O507   O     0.83334   0.87293   0.31427   0.00000  Uiso   1.00
O508   O     0.83333   0.79374   0.18573   0.00000  Uiso   1.00
C509   C     0.83332   0.83333   0.16500   0.00000  Uiso   1.00
C510   C     0.83335   0.83333   0.33500   0.00000  Uiso   1.00
Cu511  Cu    0.83333   0.88022   0.25000   0.00000  Uiso   1.00
Cu512  Cu    0.83333   0.78645   0.25000   0.00000  Uiso   1.00
H513   H     0.78660   0.71018   0.20107   0.00000  Uiso   1.00
H514   H     0.88007   0.95649   0.29891   0.00000  Uiso   1.00
H515   H     0.88006   0.71018   0.29893   0.00000  Uiso   1.00
H516   H     0.78659   0.95649   0.20109   0.00000  Uiso   1.00
C517   C     0.80739   0.69148   0.22284   0.00000  Uiso   1.00
C518   C     0.85928   0.97520   0.27716   0.00000  Uiso   1.00
C519   C     0.85928   0.69148   0.27716   0.00000  Uiso   1.00
C520   C     0.80738   0.97520   0.22284   0.00000  Uiso   1.00
C521   C     0.68795   0.79077   0.24996   0.00000  Uiso   1.00
C522   C     0.97871   0.87589   0.25002   0.00000  Uiso   1.00
C523   C     0.97871   0.79077   0.25004   0.00000  Uiso   1.00
C524   C     0.68795   0.87589   0.24997   0.00000  Uiso   1.00
C525   C     0.86308   0.85871   0.04703   0.00000  Uiso   1.00
C526   C     0.86309   0.80762   0.45308   0.00000  Uiso   1.00
C527   C     0.80358   0.85869   0.45297   0.00000  Uiso   1.00
C528   C     0.80359   0.80760   0.04692   0.00000  Uiso   1.00
C529   C     0.86367   0.85891   0.09328   0.00000  Uiso   1.00
C530   C     0.86371   0.80759   0.40683   0.00000  Uiso   1.00
C531   C     0.80298   0.85888   0.40672   0.00000  Uiso   1.00
C532   C     0.80297   0.80757   0.09317   0.00000  Uiso   1.00
C533   C     0.83331   0.83330   0.11662   0.00000  Uiso   1.00
C534   C     0.83336   0.83330   0.38338   0.00000  Uiso   1.00
C535   C     0.83334   0.83312   0.02410   0.00000  Uiso   1.00
C536   C     0.83332   0.83312   0.47590   0.00000  Uiso   1.00
C537   C     0.95726   0.83333   0.25005   0.00000  Uiso   1.00
C538   C     0.70940   0.83333   0.24995   0.00000  Uiso   1.00
H539   H     0.88624   0.87795   0.02874   0.00000  Uiso   1.00
H540   H     0.88625   0.78834   0.47146   0.00000  Uiso   1.00
H541   H     0.78040   0.87791   0.47126   0.00000  Uiso   1.00
H542   H     0.78044   0.78830   0.02854   0.00000  Uiso   1.00
N543   N     0.89597   0.88391   0.11580   0.00000  Uiso   1.00
O544   O     0.91528   0.86478   0.14898   0.00000  Uiso   1.00
O545   O     0.91032   0.92262   0.09912   0.00000  Uiso   1.00
N546   N     0.89598   0.78260   0.38442   0.00000  Uiso   1.00
O547   O     0.91527   0.80177   0.35136   0.00000  Uiso   1.00
O548   O     0.91023   0.74377   0.40103   0.00000  Uiso   1.00
N549   N     0.77067   0.88387   0.38420   0.00000  Uiso   1.00
O550   O     0.75137   0.86472   0.35101   0.00000  Uiso   1.00
O551   O     0.75629   0.92257   0.40088   0.00000  Uiso   1.00
N552   N     0.77072   0.78255   0.11557   0.00000  Uiso   1.00
O553   O     0.75141   0.80171   0.14863   0.00000  Uiso   1.00
O554   O     0.75650   0.74371   0.09897   0.00000  Uiso   1.00
H555   H     0.70397   0.75750   0.24991   0.00000  Uiso   1.00
H556   H     0.96269   0.90917   0.25003   0.00000  Uiso   1.00
H557   H     0.96269   0.75750   0.25009   0.00000  Uiso   1.00
H558   H     0.70397   0.90917   0.24997   0.00000  Uiso   1.00
O559   O     0.10655   0.20625   0.74999   0.00000  Uiso   1.00
O560   O     0.22679   0.12709   0.75000   0.00000  Uiso   1.00
O561   O     0.22679   0.20625   0.75000   0.00000  Uiso   1.00
O562   O     0.10655   0.12709   0.74999   0.00000  Uiso   1.00
N563   N     0.16667   0.28402   0.75000   0.00000  Uiso   1.00
N564   N     0.16667   0.04931   0.75000   0.00000  Uiso   1.00
C565   C     0.08735   0.16667   0.74995   0.00000  Uiso   1.00
C566   C     0.24598   0.16667   0.75004   0.00000  Uiso   1.00
O567   O     0.16666   0.20626   0.68573   0.00000  Uiso   1.00
O568   O     0.16667   0.12707   0.81427   0.00000  Uiso   1.00
O569   O     0.16667   0.20626   0.81427   0.00000  Uiso   1.00
O570   O     0.16666   0.12707   0.68573   0.00000  Uiso   1.00
C571   C     0.16665   0.16666   0.66500   0.00000  Uiso   1.00
C572   C     0.16668   0.16666   0.83500   0.00000  Uiso   1.00
Cu573  Cu    0.16667   0.21355   0.75000   0.00000  Uiso   1.00
Cu574  Cu    0.16667   0.11978   0.75000   0.00000  Uiso   1.00
H575   H     0.11994   0.04352   0.70107   0.00000  Uiso   1.00
H576   H     0.21340   0.28983   0.79891   0.00000  Uiso   1.00
H577   H     0.21340   0.04352   0.79893   0.00000  Uiso   1.00
H578   H     0.11993   0.28983   0.70109   0.00000  Uiso   1.00
C579   C     0.14072   0.02481   0.72284   0.00000  Uiso   1.00
C580   C     0.19262   0.30853   0.77716   0.00000  Uiso   1.00
C581   C     0.19261   0.02481   0.77716   0.00000  Uiso   1.00
C582   C     0.14072   0.30853   0.72284   0.00000  Uiso   1.00
C583   C     0.02129   0.12410   0.74996   0.00000  Uiso   1.00
C584   C     0.31205   0.20923   0.75002   0.00000  Uiso   1.00
C585   C     0.31205   0.12410   0.75004   0.00000  Uiso   1.00
C586   C     0.02129   0.20923   0.74997   0.00000  Uiso   1.00
C587   C     0.19641   0.19205   0.54703   0.00000  Uiso   1.00
C588   C     0.19642   0.14096   0.95308   0.00000  Uiso   1.00
C589   C     0.13691   0.19203   0.95297   0.00000  Uiso   1.00
C590   C     0.13693   0.14093   0.54692   0.00000  Uiso   1.00
C591   C     0.19701   0.19224   0.59328   0.00000  Uiso   1.00
C592   C     0.19704   0.14093   0.90683   0.00000  Uiso   1.00
C593   C     0.13631   0.19222   0.90672   0.00000  Uiso   1.00
C594   C     0.13631   0.14090   0.59317   0.00000  Uiso   1.00
C595   C     0.16664   0.16663   0.61662   0.00000  Uiso   1.00
C596   C     0.16669   0.16663   0.88338   0.00000  Uiso   1.00
C597   C     0.16668   0.16645   0.52410   0.00000  Uiso   1.00
C598   C     0.16666   0.16645   0.97590   0.00000  Uiso   1.00
C599   C     0.29060   0.16667   0.75005   0.00000  Uiso   1.00
C600   C     0.04274   0.16667   0.74995   0.00000  Uiso   1.00
H601   H     0.21957   0.21129   0.52874   0.00000  Uiso   1.00
H602   H     0.21958   0.12168   0.97146   0.00000  Uiso   1.00
H603   H     0.11374   0.21125   0.97126   0.00000  Uiso   1.00
H604   H     0.11378   0.12164   0.52854   0.00000  Uiso   1.00
N605   N     0.22931   0.21725   0.61580   0.00000  Uiso   1.00
O606   O     0.24861   0.19811   0.64898   0.00000  Uiso   1.00
O607   O     0.24366   0.25596   0.59912   0.00000  Uiso   1.00
N608   N     0.22931   0.11593   0.88442   0.00000  Uiso   1.00
O609   O     0.24860   0.13510   0.85136   0.00000  Uiso   1.00
O610   O     0.24357   0.07711   0.90103   0.00000  Uiso   1.00
N611   N     0.10400   0.21720   0.88420   0.00000  Uiso   1.00
O612   O     0.08471   0.19806   0.85101   0.00000  Uiso   1.00
O613   O     0.08963   0.25590   0.90088   0.00000  Uiso   1.00
N614   N     0.10405   0.11589   0.61557   0.00000  Uiso   1.00
O615   O     0.08474   0.13505   0.64863   0.00000  Uiso   1.00
O616   O     0.08983   0.07704   0.59897   0.00000  Uiso   1.00
H617   H     0.03730   0.09083   0.74991   0.00000  Uiso   1.00
H618   H     0.29603   0.24250   0.75003   0.00000  Uiso   1.00
H619   H     0.29603   0.09083   0.75009   0.00000  Uiso   1.00
H620   H     0.03730   0.24250   0.74997   0.00000  Uiso   1.00
O621   O     0.43988   0.20625   0.74999   0.00000  Uiso   1.00
O622   O     0.56012   0.12709   0.75000   0.00000  Uiso   1.00
O623   O     0.56012   0.20625   0.75000   0.00000  Uiso   1.00
O624   O     0.43988   0.12709   0.74999   0.00000  Uiso   1.00
N625   N     0.50000   0.28402   0.75000   0.00000  Uiso   1.00
N626   N     0.50000   0.04931   0.75000   0.00000  Uiso   1.00
C627   C     0.42069   0.16667   0.74995   0.00000  Uiso   1.00
C628   C     0.57931   0.16667   0.75004   0.00000  Uiso   1.00
O629   O     0.50000   0.20626   0.68573   0.00000  Uiso   1.00
O630   O     0.50000   0.12707   0.81427   0.00000  Uiso   1.00
O631   O     0.50000   0.20626   0.81427   0.00000  Uiso   1.00
O632   O     0.50000   0.12707   0.68573   0.00000  Uiso   1.00
C633   C     0.49999   0.16666   0.66500   0.00000  Uiso   1.00
C634   C     0.50001   0.16666   0.83500   0.00000  Uiso   1.00
Cu635  Cu    0.50000   0.21355   0.75000   0.00000  Uiso   1.00
Cu636  Cu    0.50000   0.11978   0.75000   0.00000  Uiso   1.00
H637   H     0.45327   0.04352   0.70107   0.00000  Uiso   1.00
H638   H     0.54674   0.28983   0.79891   0.00000  Uiso   1.00
H639   H     0.54673   0.04352   0.79893   0.00000  Uiso   1.00
H640   H     0.45326   0.28983   0.70109   0.00000  Uiso   1.00
C641   C     0.47405   0.02481   0.72284   0.00000  Uiso   1.00
C642   C     0.52595   0.30853   0.77716   0.00000  Uiso   1.00
C643   C     0.52595   0.02481   0.77716   0.00000  Uiso   1.00
C644   C     0.47405   0.30853   0.72284   0.00000  Uiso   1.00
C645   C     0.35462   0.12410   0.74996   0.00000  Uiso   1.00
C646   C     0.64538   0.20923   0.75002   0.00000  Uiso   1.00
C647   C     0.64538   0.12410   0.75004   0.00000  Uiso   1.00
C648   C     0.35462   0.20923   0.74997   0.00000  Uiso   1.00
C649   C     0.52974   0.19205   0.54703   0.00000  Uiso   1.00
C650   C     0.52975   0.14096   0.95308   0.00000  Uiso   1.00
C651   C     0.47024   0.19203   0.95297   0.00000  Uiso   1.00
C652   C     0.47026   0.14093   0.54692   0.00000  Uiso   1.00
C653   C     0.53034   0.19224   0.59328   0.00000  Uiso   1.00
C654   C     0.53037   0.14093   0.90683   0.00000  Uiso   1.00
C655   C     0.46964   0.19222   0.90672   0.00000  Uiso   1.00
C656   C     0.46964   0.14090   0.59317   0.00000  Uiso   1.00
C657   C     0.49998   0.16663   0.61662   0.00000  Uiso   1.00
C658   C     0.50002   0.16663   0.88338   0.00000  Uiso   1.00
C659   C     0.50001   0.16645   0.52410   0.00000  Uiso   1.00
C660   C     0.49999   0.16645   0.97590   0.00000  Uiso   1.00
C661   C     0.62393   0.16667   0.75005   0.00000  Uiso   1.00
C662   C     0.37607   0.16667   0.74995   0.00000  Uiso   1.00
H663   H     0.55290   0.21129   0.52874   0.00000  Uiso   1.00
H664   H     0.55292   0.12168   0.97146   0.00000  Uiso   1.00
H665   H     0.44707   0.21125   0.97126   0.00000  Uiso   1.00
H666   H     0.44711   0.12164   0.52854   0.00000  Uiso   1.00
N667   N     0.56264   0.21725   0.61580   0.00000  Uiso   1.00
O668   O     0.58195   0.19811   0.64898   0.00000  Uiso   1.00
O669   O     0.57699   0.25596   0.59912   0.00000  Uiso   1.00
N670   N     0.56264   0.11593   0.88442   0.00000  Uiso   1.00
O671   O     0.58194   0.13510   0.85136   0.00000  Uiso   1.00
O672   O     0.57690   0.07711   0.90103   0.00000  Uiso   1.00
N673   N     0.43733   0.21720   0.88420   0.00000  Uiso   1.00
O674   O     0.41804   0.19806   0.85101   0.00000  Uiso   1.00
O675   O     0.42296   0.25590   0.90088   0.00000  Uiso   1.00
N676   N     0.43739   0.11589   0.61557   0.00000  Uiso   1.00
O677   O     0.41807   0.13505   0.64863   0.00000  Uiso   1.00
O678   O     0.42316   0.07704   0.59897   0.00000  Uiso   1.00
H679   H     0.37064   0.09083   0.74991   0.00000  Uiso   1.00
H680   H     0.62936   0.24250   0.75003   0.00000  Uiso   1.00
H681   H     0.62936   0.09083   0.75009   0.00000  Uiso   1.00
H682   H     0.37064   0.24250   0.74997   0.00000  Uiso   1.00
O683   O     0.77321   0.20625   0.74999   0.00000  Uiso   1.00
O684   O     0.89345   0.12709   0.75000   0.00000  Uiso   1.00
O685   O     0.89345   0.20625   0.75000   0.00000  Uiso   1.00
O686   O     0.77321   0.12709   0.74999   0.00000  Uiso   1.00
N687   N     0.83333   0.28402   0.75000   0.00000  Uiso   1.00
N688   N     0.83333   0.04931   0.75000   0.00000  Uiso   1.00
C689   C     0.75402   0.16667   0.74995   0.00000  Uiso   1.00
C690   C     0.91265   0.16667   0.75004   0.00000  Uiso   1.00
O691   O     0.83333   0.20626   0.68573   0.00000  Uiso   1.00
O692   O     0.83334   0.12707   0.81427   0.00000  Uiso   1.00
O693   O     0.83334   0.20626   0.81427   0.00000  Uiso   1.00
O694   O     0.83333   0.12707   0.68573   0.00000  Uiso   1.00
C695   C     0.83332   0.16666   0.66500   0.00000  Uiso   1.00
C696   C     0.83335   0.16666   0.83500   0.00000  Uiso   1.00
Cu697  Cu    0.83333   0.21355   0.75000   0.00000  Uiso   1.00
Cu698  Cu    0.83333   0.11978   0.75000   0.00000  Uiso   1.00
H699   H     0.78660   0.04352   0.70107   0.00000  Uiso   1.00
H700   H     0.88007   0.28983   0.79891   0.00000  Uiso   1.00
H701   H     0.88006   0.04352   0.79893   0.00000  Uiso   1.00
H702   H     0.78659   0.28983   0.70109   0.00000  Uiso   1.00
C703   C     0.80739   0.02481   0.72284   0.00000  Uiso   1.00
C704   C     0.85928   0.30853   0.77716   0.00000  Uiso   1.00
C705   C     0.85928   0.02481   0.77716   0.00000  Uiso   1.00
C706   C     0.80738   0.30853   0.72284   0.00000  Uiso   1.00
C707   C     0.68795   0.12410   0.74996   0.00000  Uiso   1.00
C708   C     0.97871   0.20923   0.75002   0.00000  Uiso   1.00
C709   C     0.97871   0.12410   0.75004   0.00000  Uiso   1.00
C710   C     0.68795   0.20923   0.74997   0.00000  Uiso   1.00
C711   C     0.86308   0.19205   0.54703   0.00000  Uiso   1.00
C712   C     0.86309   0.14096   0.95308   0.00000  Uiso   1.00
C713   C     0.80358   0.19203   0.95297   0.00000  Uiso   1.00
C714   C     0.80359   0.14093   0.54692   0.00000  Uiso   1.00
C715   C     0.86367   0.19224   0.59328   0.00000  Uiso   1.00
C716   C     0.86371   0.14093   0.90683   0.00000  Uiso   1.00
C717   C     0.80298   0.19222   0.90672   0.00000  Uiso   1.00
C718   C     0.80297   0.14090   0.59317   0.00000  Uiso   1.00
C719   C     0.83331   0.16663   0.61662   0.00000  Uiso   1.00
C720   C     0.83336   0.16663   0.88338   0.00000  Uiso   1.00
C721   C     0.83334   0.16645   0.52410   0.00000  Uiso   1.00
C722   C     0.83332   0.16645   0.97590   0.00000  Uiso   1.00
C723   C     0.95726   0.16667   0.75005   0.00000  Uiso   1.00
C724   C     0.70940   0.16667   0.74995   0.00000  Uiso   1.00
H725   H     0.88624   0.21129   0.52874   0.00000  Uiso   1.00
H726   H     0.88625   0.12168   0.97146   0.00000  Uiso   1.00
H727   H     0.78040   0.21125   0.97126   0.00000  Uiso   1.00
H728   H     0.78044   0.12164   0.52854   0.00000  Uiso   1.00
N729   N     0.89597   0.21725   0.61580   0.00000  Uiso   1.00
O730   O     0.91528   0.19811   0.64898   0.00000  Uiso   1.00
O731   O     0.91032   0.25596   0.59912   0.00000  Uiso   1.00
N732   N     0.89598   0.11593   0.88442   0.00000  Uiso   1.00
O733   O     0.91527   0.13510   0.85136   0.00000  Uiso   1.00
O734   O     0.91023   0.07711   0.90103   0.00000  Uiso   1.00
N735   N     0.77067   0.21720   0.88420   0.00000  Uiso   1.00
O736   O     0.75137   0.19806   0.85101   0.00000  Uiso   1.00
O737   O     0.75629   0.25590   0.90088   0.00000  Uiso   1.00
N738   N     0.77072   0.11589   0.61557   0.00000  Uiso   1.00
O739   O     0.75141   0.13505   0.64863   0.00000  Uiso   1.00
O740   O     0.75650   0.07704   0.59897   0.00000  Uiso   1.00
H741   H     0.70397   0.09083   0.74991   0.00000  Uiso   1.00
H742   H     0.96269   0.24250   0.75003   0.00000  Uiso   1.00
H743   H     0.96269   0.09083   0.75009   0.00000  Uiso   1.00
H744   H     0.70397   0.24250   0.74997   0.00000  Uiso   1.00
O745   O     0.10655   0.53958   0.74999   0.00000  Uiso   1.00
O746   O     0.22679   0.46042   0.75000   0.00000  Uiso   1.00
O747   O     0.22679   0.53958   0.75000   0.00000  Uiso   1.00
O748   O     0.10655   0.46042   0.74999   0.00000  Uiso   1.00
N749   N     0.16667   0.61736   0.75000   0.00000  Uiso   1.00
N750   N     0.16667   0.38264   0.75000   0.00000  Uiso   1.00
C751   C     0.08735   0.50000   0.74995   0.00000  Uiso   1.00
C752   C     0.24598   0.50000   0.75004   0.00000  Uiso   1.00
O753   O     0.16666   0.53959   0.68573   0.00000  Uiso   1.00
O754   O     0.16667   0.46041   0.81427   0.00000  Uiso   1.00
O755   O     0.16667   0.53959   0.81427   0.00000  Uiso   1.00
O756   O     0.16666   0.46041   0.68573   0.00000  Uiso   1.00
C757   C     0.16665   0.50000   0.66500   0.00000  Uiso   1.00
C758   C     0.16668   0.50000   0.83500   0.00000  Uiso   1.00
Cu759  Cu    0.16667   0.54689   0.75000   0.00000  Uiso   1.00
Cu760  Cu    0.16667   0.45311   0.75000   0.00000  Uiso   1.00
H761   H     0.11994   0.37685   0.70107   0.00000  Uiso   1.00
H762   H     0.21340   0.62316   0.79891   0.00000  Uiso   1.00
H763   H     0.21340   0.37685   0.79893   0.00000  Uiso   1.00
H764   H     0.11993   0.62316   0.70109   0.00000  Uiso   1.00
C765   C     0.14072   0.35814   0.72284   0.00000  Uiso   1.00
C766   C     0.19262   0.64186   0.77716   0.00000  Uiso   1.00
C767   C     0.19261   0.35814   0.77716   0.00000  Uiso   1.00
C768   C     0.14072   0.64186   0.72284   0.00000  Uiso   1.00
C769   C     0.02129   0.45744   0.74996   0.00000  Uiso   1.00
C770   C     0.31205   0.54256   0.75002   0.00000  Uiso   1.00
C771   C     0.31205   0.45744   0.75004   0.00000  Uiso   1.00
C772   C     0.02129   0.54256   0.74997   0.00000  Uiso   1.00
C773   C     0.19641   0.52538   0.54703   0.00000  Uiso   1.00
C774   C     0.19642   0.47429   0.95308   0.00000  Uiso   1.00
C775   C     0.13691   0.52536   0.95297   0.00000  Uiso   1.00
C776   C     0.13693   0.47427   0.54692   0.00000  Uiso   1.00
C777   C     0.19701   0.52557   0.59328   0.00000  Uiso   1.00
C778   C     0.19704   0.47426   0.90683   0.00000  Uiso   1.00
C779   C     0.13631   0.52555   0.90672   0.00000  Uiso   1.00
C780   C     0.13631   0.47424   0.59317   0.00000  Uiso   1.00
C781   C     0.16664   0.49996   0.61662   0.00000  Uiso   1.00
C782   C     0.16669   0.49996   0.88338   0.00000  Uiso   1.00
C783   C     0.16668   0.49979   0.52410   0.00000  Uiso   1.00
C784   C     0.16666   0.49979   0.97590   0.00000  Uiso   1.00
C785   C     0.29060   0.50000   0.75005   0.00000  Uiso   1.00
C786   C     0.04274   0.50000   0.74995   0.00000  Uiso   1.00
H787   H     0.21957   0.54462   0.52874   0.00000  Uiso   1.00
H788   H     0.21958   0.45501   0.97146   0.00000  Uiso   1.00
H789   H     0.11374   0.54458   0.97126   0.00000  Uiso   1.00
H790   H     0.11378   0.45497   0.52854   0.00000  Uiso   1.00
N791   N     0.22931   0.55058   0.61580   0.00000  Uiso   1.00
O792   O     0.24861   0.53144   0.64898   0.00000  Uiso   1.00
O793   O     0.24366   0.58929   0.59912   0.00000  Uiso   1.00
N794   N     0.22931   0.44927   0.88442   0.00000  Uiso   1.00
O795   O     0.24860   0.46843   0.85136   0.00000  Uiso   1.00
O796   O     0.24357   0.41044   0.90103   0.00000  Uiso   1.00
N797   N     0.10400   0.55054   0.88420   0.00000  Uiso   1.00
O798   O     0.08471   0.53139   0.85101   0.00000  Uiso   1.00
O799   O     0.08963   0.58923   0.90088   0.00000  Uiso   1.00
N800   N     0.10405   0.44922   0.61557   0.00000  Uiso   1.00
O801   O     0.08474   0.46838   0.64863   0.00000  Uiso   1.00
O802   O     0.08983   0.41037   0.59897   0.00000  Uiso   1.00
H803   H     0.03730   0.42416   0.74991   0.00000  Uiso   1.00
H804   H     0.29603   0.57584   0.75003   0.00000  Uiso   1.00
H805   H     0.29603   0.42416   0.75009   0.00000  Uiso   1.00
H806   H     0.03730   0.57584   0.74997   0.00000  Uiso   1.00
O807   O     0.43988   0.53958   0.74999   0.00000  Uiso   1.00
O808   O     0.56012   0.46042   0.75000   0.00000  Uiso   1.00
O809   O     0.56012   0.53958   0.75000   0.00000  Uiso   1.00
O810   O     0.43988   0.46042   0.74999   0.00000  Uiso   1.00
N811   N     0.50000   0.61736   0.75000   0.00000  Uiso   1.00
N812   N     0.50000   0.38264   0.75000   0.00000  Uiso   1.00
C813   C     0.42069   0.50000   0.74995   0.00000  Uiso   1.00
C814   C     0.57931   0.50000   0.75004   0.00000  Uiso   1.00
O815   O     0.50000   0.53959   0.68573   0.00000  Uiso   1.00
O816   O     0.50000   0.46041   0.81427   0.00000  Uiso   1.00
O817   O     0.50000   0.53959   0.81427   0.00000  Uiso   1.00
O818   O     0.50000   0.46041   0.68573   0.00000  Uiso   1.00
C819   C     0.49999   0.50000   0.66500   0.00000  Uiso   1.00
C820   C     0.50001   0.50000   0.83500   0.00000  Uiso   1.00
Cu821  Cu    0.50000   0.54689   0.75000   0.00000  Uiso   1.00
Cu822  Cu    0.50000   0.45311   0.75000   0.00000  Uiso   1.00
H823   H     0.45327   0.37685   0.70107   0.00000  Uiso   1.00
H824   H     0.54674   0.62316   0.79891   0.00000  Uiso   1.00
H825   H     0.54673   0.37685   0.79893   0.00000  Uiso   1.00
H826   H     0.45326   0.62316   0.70109   0.00000  Uiso   1.00
C827   C     0.47405   0.35814   0.72284   0.00000  Uiso   1.00
C828   C     0.52595   0.64186   0.77716   0.00000  Uiso   1.00
C829   C     0.52595   0.35814   0.77716   0.00000  Uiso   1.00
C830   C     0.47405   0.64186   0.72284   0.00000  Uiso   1.00
C831   C     0.35462   0.45744   0.74996   0.00000  Uiso   1.00
C832   C     0.64538   0.54256   0.75002   0.00000  Uiso   1.00
C833   C     0.64538   0.45744   0.75004   0.00000  Uiso   1.00
C834   C     0.35462   0.54256   0.74997   0.00000  Uiso   1.00
C835   C     0.52974   0.52538   0.54703   0.00000  Uiso   1.00
C836   C     0.52975   0.47429   0.95308   0.00000  Uiso   1.00
C837   C     0.47024   0.52536   0.95297   0.00000  Uiso   1.00
C838   C     0.47026   0.47427   0.54692   0.00000  Uiso   1.00
C839   C     0.53034   0.52557   0.59328   0.00000  Uiso   1.00
C840   C     0.53037   0.47426   0.90683   0.00000  Uiso   1.00
C841   C     0.46964   0.52555   0.90672   0.00000  Uiso   1.00
C842   C     0.46964   0.47424   0.59317   0.00000  Uiso   1.00
C843   C     0.49998   0.49996   0.61662   0.00000  Uiso   1.00
C844   C     0.50002   0.49996   0.88338   0.00000  Uiso   1.00
C845   C     0.50001   0.49979   0.52410   0.00000  Uiso   1.00
C846   C     0.49999   0.49979   0.97590   0.00000  Uiso   1.00
C847   C     0.62393   0.50000   0.75005   0.00000  Uiso   1.00
C848   C     0.37607   0.50000   0.74995   0.00000  Uiso   1.00
H849   H     0.55290   0.54462   0.52874   0.00000  Uiso   1.00
H850   H     0.55292   0.45501   0.97146   0.00000  Uiso   1.00
H851   H     0.44707   0.54458   0.97126   0.00000  Uiso   1.00
H852   H     0.44711   0.45497   0.52854   0.00000  Uiso   1.00
N853   N     0.56264   0.55058   0.61580   0.00000  Uiso   1.00
O854   O     0.58195   0.53144   0.64898   0.00000  Uiso   1.00
O855   O     0.57699   0.58929   0.59912   0.00000  Uiso   1.00
N856   N     0.56264   0.44927   0.88442   0.00000  Uiso   1.00
O857   O     0.58194   0.46843   0.85136   0.00000  Uiso   1.00
O858   O     0.57690   0.41044   0.90103   0.00000  Uiso   1.00
N859   N     0.43733   0.55054   0.88420   0.00000  Uiso   1.00
O860   O     0.41804   0.53139   0.85101   0.00000  Uiso   1.00
O861   O     0.42296   0.58923   0.90088   0.00000  Uiso   1.00
N862   N     0.43739   0.44922   0.61557   0.00000  Uiso   1.00
O863   O     0.41807   0.46838   0.64863   0.00000  Uiso   1.00
O864   O     0.42316   0.41037   0.59897   0.00000  Uiso   1.00
H865   H     0.37064   0.42416   0.74991   0.00000  Uiso   1.00
H866   H     0.62936   0.57584   0.75003   0.00000  Uiso   1.00
H867   H     0.62936   0.42416   0.75009   0.00000  Uiso   1.00
H868   H     0.37064   0.57584   0.74997   0.00000  Uiso   1.00
O869   O     0.77321   0.53958   0.74999   0.00000  Uiso   1.00
O870   O     0.89345   0.46042   0.75000   0.00000  Uiso   1.00
O871   O     0.89345   0.53958   0.75000   0.00000  Uiso   1.00
O872   O     0.77321   0.46042   0.74999   0.00000  Uiso   1.00
N873   N     0.83333   0.61736   0.75000   0.00000  Uiso   1.00
N874   N     0.83333   0.38264   0.75000   0.00000  Uiso   1.00
C875   C     0.75402   0.50000   0.74995   0.00000  Uiso   1.00
C876   C     0.91265   0.50000   0.75004   0.00000  Uiso   1.00
O877   O     0.83333   0.53959   0.68573   0.00000  Uiso   1.00
O878   O     0.83334   0.46041   0.81427   0.00000  Uiso   1.00
O879   O     0.83334   0.53959   0.81427   0.00000  Uiso   1.00
O880   O     0.83333   0.46041   0.68573   0.00000  Uiso   1.00
C881   C     0.83332   0.50000   0.66500   0.00000  Uiso   1.00
C882   C     0.83335   0.50000   0.83500   0.00000  Uiso   1.00
Cu883  Cu    0.83333   0.54689   0.75000   0.00000  Uiso   1.00
Cu884  Cu    0.83333   0.45311   0.75000   0.00000  Uiso   1.00
H885   H     0.78660   0.37685   0.70107   0.00000  Uiso   1.00
H886   H     0.88007   0.62316   0.79891   0.00000  Uiso   1.00
H887   H     0.88006   0.37685   0.79893   0.00000  Uiso   1.00
H888   H     0.78659   0.62316   0.70109   0.00000  Uiso   1.00
C889   C     0.80739   0.35814   0.72284   0.00000  Uiso   1.00
C890   C     0.85928   0.64186   0.77716   0.00000  Uiso   1.00
C891   C     0.85928   0.35814   0.77716   0.00000  Uiso   1.00
C892   C     0.80738   0.64186   0.72284   0.00000  Uiso   1.00
C893   C     0.68795   0.45744   0.74996   0.00000  Uiso   1.00
C894   C     0.97871   0.54256   0.75002   0.00000  Uiso   1.00
C895   C     0.97871   0.45744   0.75004   0.00000  Uiso   1.00
C896   C     0.68795   0.54256   0.74997   0.00000  Uiso   1.00
C897   C     0.86308   0.52538   0.54703   0.00000  Uiso   1.00
C898   C     0.86309   0.47429   0.95308   0.00000  Uiso   1.00
C899   C     0.80358   0.52536   0.95297   0.00000  Uiso   1.00
C900   C     0.80359   0.47427   0.54692   0.00000  Uiso   1.00
C901   C     0.86367   0.52557   0.59328   0.00000  Uiso   1.00
C902   C     0.86371   0.47426   0.90683   0.00000  Uiso   1.00
C903   C     0.80298   0.52555   0.90672   0.00000  Uiso   1.00
C904   C     0.80297   0.47424   0.59317   0.00000  Uiso   1.00
C905   C     0.83331   0.49996   0.61662   0.00000  Uiso   1.00
C906   C     0.83336   0.49996   0.88338   0.00000  Uiso   1.00
C907   C     0.83334   0.49979   0.52410   0.00000  Uiso   1.00
C908   C     0.83332   0.49979   0.97590   0.00000  Uiso   1.00
C909   C     0.95726   0.50000   0.75005   0.00000  Uiso   1.00
C910   C     0.70940   0.50000   0.74995   0.00000  Uiso   1.00
H911   H     0.88624   0.54462   0.52874   0.00000  Uiso   1.00
H912   H     0.88625   0.45501   0.97146   0.00000  Uiso   1.00
H913   H     0.78040   0.54458   0.97126   0.00000  Uiso   1.00
H914   H     0.78044   0.45497   0.52854   0.00000  Uiso   1.00
N915   N     0.89597   0.55058   0.61580   0.00000  Uiso   1.00
O916   O     0.91528   0.53144   0.64898   0.00000  Uiso   1.00
O917   O     0.91032   0.58929   0.59912   0.00000  Uiso   1.00
N918   N     0.89598   0.44927   0.88442   0.00000  Uiso   1.00
O919   O     0.91527   0.46843   0.85136   0.00000  Uiso   1.00
O920   O     0.91023   0.41044   0.90103   0.00000  Uiso   1.00
N921   N     0.77067   0.55054   0.88420   0.00000  Uiso   1.00
O922   O     0.75137   0.53139   0.85101   0.00000  Uiso   1.00
O923   O     0.75629   0.58923   0.90088   0.00000  Uiso   1.00
N924   N     0.77072   0.44922   0.61557   0.00000  Uiso   1.00
O925   O     0.75141   0.46838   0.64863   0.00000  Uiso   1.00
O926   O     0.75650   0.41037   0.59897   0.00000  Uiso   1.00
H927   H     0.70397   0.42416   0.74991   0.00000  Uiso   1.00
H928   H     0.96269   0.57584   0.75003   0.00000  Uiso   1.00
H929   H     0.96269   0.42416   0.75009   0.00000  Uiso   1.00
H930   H     0.70397   0.57584   0.74997   0.00000  Uiso   1.00
O931   O     0.10655   0.87291   0.74999   0.00000  Uiso   1.00
O932   O     0.22679   0.79375   0.75000   0.00000  Uiso   1.00
O933   O     0.22679   0.87291   0.75000   0.00000  Uiso   1.00
O934   O     0.10655   0.79375   0.74999   0.00000  Uiso   1.00
N935   N     0.16667   0.95069   0.75000   0.00000  Uiso   1.00
N936   N     0.16667   0.71598   0.75000   0.00000  Uiso   1.00
C937   C     0.08735   0.83333   0.74995   0.00000  Uiso   1.00
C938   C     0.24598   0.83333   0.75004   0.00000  Uiso   1.00
O939   O     0.16666   0.87293   0.68573   0.00000  Uiso   1.00
O940   O     0.16667   0.79374   0.81427   0.00000  Uiso   1.00
O941   O     0.16667   0.87293   0.81427   0.00000  Uiso   1.00
O942   O     0.16666   0.79374   0.68573   0.00000  Uiso   1.00
C943   C     0.16665   0.83333   0.66500   0.00000  Uiso   1.00
C944   C     0.16668   0.83333   0.83500   0.00000  Uiso   1.00
Cu945  Cu    0.16667   0.88022   0.75000   0.00000  Uiso   1.00
Cu946  Cu    0.16667   0.78645   0.75000   0.00000  Uiso   1.00
H947   H     0.11994   0.71018   0.70107   0.00000  Uiso   1.00
H948   H     0.21340   0.95649   0.79891   0.00000  Uiso   1.00
H949   H     0.21340   0.71018   0.79893   0.00000  Uiso   1.00
H950   H     0.11993   0.95649   0.70109   0.00000  Uiso   1.00
C951   C     0.14072   0.69148   0.72284   0.00000  Uiso   1.00
C952   C     0.19262   0.97520   0.77716   0.00000  Uiso   1.00
C953   C     0.19261   0.69148   0.77716   0.00000  Uiso   1.00
C954   C     0.14072   0.97520   0.72284   0.00000  Uiso   1.00
C955   C     0.02129   0.79077   0.74996   0.00000  Uiso   1.00
C956   C     0.31205   0.87589   0.75002   0.00000  Uiso   1.00
C957   C     0.31205   0.79077   0.75004   0.00000  Uiso   1.00
C958   C     0.02129   0.87589   0.74997   0.00000  Uiso   1.00
C959   C     0.19641   0.85871   0.54703   0.00000  Uiso   1.00
C960   C     0.19642   0.80762   0.95308   0.00000  Uiso   1.00
C961   C     0.13691   0.85869   0.95297   0.00000  Uiso   1.00
C962   C     0.13693   0.80760   0.54692   0.00000  Uiso   1.00
C963   C     0.19701   0.85891   0.59328   0.00000  Uiso   1.00
C964   C     0.19704   0.80759   0.90683   0.00000  Uiso   1.00
C965   C     0.13631   0.85888   0.90672   0.00000  Uiso   1.00
C966   C     0.13631   0.80757   0.59317   0.00000  Uiso   1.00
C967   C     0.16664   0.83330   0.61662   0.00000  Uiso   1.00
C968   C     0.16669   0.83330   0.88338   0.00000  Uiso   1.00
C969   C     0.16668   0.83312   0.52410   0.00000  Uiso   1.00
C970   C     0.16666   0.83312   0.97590   0.00000  Uiso   1.00
C971   C     0.29060   0.83333   0.75005   0.00000  Uiso   1.00
C972   C     0.04274   0.83333   0.74995   0.00000  Uiso   1.00
H973   H     0.21957   0.87795   0.52874   0.00000  Uiso   1.00
H974   H     0.21958   0.78834   0.97146   0.00000  Uiso   1.00
H975   H     0.11374   0.87791   0.97126   0.00000  Uiso   1.00
H976   H     0.11378   0.78830   0.52854   0.00000  Uiso   1.00
N977   N     0.22931   0.88391   0.61580   0.00000  Uiso   1.00
O978   O     0.24861   0.86478   0.64898   0.00000  Uiso   1.00
O979   O     0.24366   0.92262   0.59912   0.00000  Uiso   1.00
N980   N     0.22931   0.78260   0.88442   0.00000  Uiso   1.00
O981   O     0.24860   0.80177   0.85136   0.00000  Uiso   1.00
O982   O     0.24357   0.74377   0.90103   0.00000  Uiso   1.00
N983   N     0.10400   0.88387   0.88420   0.00000  Uiso   1.00
O984   O     0.08471   0.86472   0.85101   0.00000  Uiso   1.00
O985   O     0.08963   0.92257   0.90088   0.00000  Uiso   1.00
N986   N     0.10405   0.78255   0.61557   0.00000  Uiso   1.00
O987   O     0.08474   0.80171   0.64863   0.00000  Uiso   1.00
O988   O     0.08983   0.74371   0.59897   0.00000  Uiso   1.00
H989   H     0.03730   0.75750   0.74991   0.00000  Uiso   1.00
H990   H     0.29603   0.90917   0.75003   0.00000  Uiso   1.00
H991   H     0.29603   0.75750   0.75009   0.00000  Uiso   1.00
H992   H     0.03730   0.90917   0.74997   0.00000  Uiso   1.00
O993   O     0.43988   0.87291   0.74999   0.00000  Uiso   1.00
O994   O     0.56012   0.79375   0.75000   0.00000  Uiso   1.00
O995   O     0.56012   0.87291   0.75000   0.00000  Uiso   1.00
O996   O     0.43988   0.79375   0.74999   0.00000  Uiso   1.00
N997   N     0.50000   0.95069   0.75000   0.00000  Uiso   1.00
N998   N     0.50000   0.71598   0.75000   0.00000  Uiso   1.00
C999   C     0.42069   0.83333   0.74995   0.00000  Uiso   1.00
C1000  C     0.57931   0.83333   0.75004   0.00000  Uiso   1.00
O1001  O     0.50000   0.87293   0.68573   0.00000  Uiso   1.00
O1002  O     0.50000   0.79374   0.81427   0.00000  Uiso   1.00
O1003  O     0.50000   0.87293   0.81427   0.00000  Uiso   1.00
O1004  O     0.50000   0.79374   0.68573   0.00000  Uiso   1.00
C1005  C     0.49999   0.83333   0.66500   0.00000  Uiso   1.00
C1006  C     0.50001   0.83333   0.83500   0.00000  Uiso   1.00
Cu1007 Cu    0.50000   0.88022   0.75000   0.00000  Uiso   1.00
Cu1008 Cu    0.50000   0.78645   0.75000   0.00000  Uiso   1.00
H1009  H     0.45327   0.71018   0.70107   0.00000  Uiso   1.00
H1010  H     0.54674   0.95649   0.79891   0.00000  Uiso   1.00
H1011  H     0.54673   0.71018   0.79893   0.00000  Uiso   1.00
H1012  H     0.45326   0.95649   0.70109   0.00000  Uiso   1.00
C1013  C     0.47405   0.69148   0.72284   0.00000  Uiso   1.00
C1014  C     0.52595   0.97520   0.77716   0.00000  Uiso   1.00
C1015  C     0.52595   0.69148   0.77716   0.00000  Uiso   1.00
C1016  C     0.47405   0.97520   0.72284   0.00000  Uiso   1.00
C1017  C     0.35462   0.79077   0.74996   0.00000  Uiso   1.00
C1018  C     0.64538   0.87589   0.75002   0.00000  Uiso   1.00
C1019  C     0.64538   0.79077   0.75004   0.00000  Uiso   1.00
C1020  C     0.35462   0.87589   0.74997   0.00000  Uiso   1.00
C1021  C     0.52974   0.85871   0.54703   0.00000  Uiso   1.00
C1022  C     0.52975   0.80762   0.95308   0.00000  Uiso   1.00
C1023  C     0.47024   0.85869   0.95297   0.00000  Uiso   1.00
C1024  C     0.47026   0.80760   0.54692   0.00000  Uiso   1.00
C1025  C     0.53034   0.85891   0.59328   0.00000  Uiso   1.00
C1026  C     0.53037   0.80759   0.90683   0.00000  Uiso   1.00
C1027  C     0.46964   0.85888   0.90672   0.00000  Uiso   1.00
C1028  C     0.46964   0.80757   0.59317   0.00000  Uiso   1.00
C1029  C     0.49998   0.83330   0.61662   0.00000  Uiso   1.00
C1030  C     0.50002   0.83330   0.88338   0.00000  Uiso   1.00
C1031  C     0.50001   0.83312   0.52410   0.00000  Uiso   1.00
C1032  C     0.49999   0.83312   0.97590   0.00000  Uiso   1.00
C1033  C     0.62393   0.83333   0.75005   0.00000  Uiso   1.00
C1034  C     0.37607   0.83333   0.74995   0.00000  Uiso   1.00
H1035  H     0.55290   0.87795   0.52874   0.00000  Uiso   1.00
H1036  H     0.55292   0.78834   0.97146   0.00000  Uiso   1.00
H1037  H     0.44707   0.87791   0.97126   0.00000  Uiso   1.00
H1038  H     0.44711   0.78830   0.52854   0.00000  Uiso   1.00
N1039  N     0.56264   0.88391   0.61580   0.00000  Uiso   1.00
O1040  O     0.58195   0.86478   0.64898   0.00000  Uiso   1.00
O1041  O     0.57699   0.92262   0.59912   0.00000  Uiso   1.00
N1042  N     0.56264   0.78260   0.88442   0.00000  Uiso   1.00
O1043  O     0.58194   0.80177   0.85136   0.00000  Uiso   1.00
O1044  O     0.57690   0.74377   0.90103   0.00000  Uiso   1.00
N1045  N     0.43733   0.88387   0.88420   0.00000  Uiso   1.00
O1046  O     0.41804   0.86472   0.85101   0.00000  Uiso   1.00
O1047  O     0.42296   0.92257   0.90088   0.00000  Uiso   1.00
N1048  N     0.43739   0.78255   0.61557   0.00000  Uiso   1.00
O1049  O     0.41807   0.80171   0.64863   0.00000  Uiso   1.00
O1050  O     0.42316   0.74371   0.59897   0.00000  Uiso   1.00
H1051  H     0.37064   0.75750   0.74991   0.00000  Uiso   1.00
H1052  H     0.62936   0.90917   0.75003   0.00000  Uiso   1.00
H1053  H     0.62936   0.75750   0.75009   0.00000  Uiso   1.00
H1054  H     0.37064   0.90917   0.74997   0.00000  Uiso   1.00
O1055  O     0.77321   0.87291   0.74999   0.00000  Uiso   1.00
O1056  O     0.89345   0.79375   0.75000   0.00000  Uiso   1.00
O1057  O     0.89345   0.87291   0.75000   0.00000  Uiso   1.00
O1058  O     0.77321   0.79375   0.74999   0.00000  Uiso   1.00
N1059  N     0.83333   0.95069   0.75000   0.00000  Uiso   1.00
N1060  N     0.83333   0.71598   0.75000   0.00000  Uiso   1.00
C1061  C     0.75402   0.83333   0.74995   0.00000  Uiso   1.00
C1062  C     0.91265   0.83333   0.75004   0.00000  Uiso   1.00
O1063  O     0.83333   0.87293   0.68573   0.00000  Uiso   1.00
O1064  O     0.83334   0.79374   0.81427   0.00000  Uiso   1.00
O1065  O     0.83334   0.87293   0.81427   0.00000  Uiso   1.00
O1066  O     0.83333   0.79374   0.68573   0.00000  Uiso   1.00
C1067  C     0.83332   0.83333   0.66500   0.00000  Uiso   1.00
C1068  C     0.83335   0.83333   0.83500   0.00000  Uiso   1.00
Cu1069 Cu    0.83333   0.88022   0.75000   0.00000  Uiso   1.00
Cu1070 Cu    0.83333   0.78645   0.75000   0.00000  Uiso   1.00
H1071  H     0.78660   0.71018   0.70107   0.00000  Uiso   1.00
H1072  H     0.88007   0.95649   0.79891   0.00000  Uiso   1.00
H1073  H     0.88006   0.71018   0.79893   0.00000  Uiso   1.00
H1074  H     0.78659   0.95649   0.70109   0.00000  Uiso   1.00
C1075  C     0.80739   0.69148   0.72284   0.00000  Uiso   1.00
C1076  C     0.85928   0.97520   0.77716   0.00000  Uiso   1.00
C1077  C     0.85928   0.69148   0.77716   0.00000  Uiso   1.00
C1078  C     0.80738   0.97520   0.72284   0.00000  Uiso   1.00
C1079  C     0.68795   0.79077   0.74996   0.00000  Uiso   1.00
C1080  C     0.97871   0.87589   0.75002   0.00000  Uiso   1.00
C1081  C     0.97871   0.79077   0.75004   0.00000  Uiso   1.00
C1082  C     0.68795   0.87589   0.74997   0.00000  Uiso   1.00
C1083  C     0.86308   0.85871   0.54703   0.00000  Uiso   1.00
C1084  C     0.86309   0.80762   0.95308   0.00000  Uiso   1.00
C1085  C     0.80358   0.85869   0.95297   0.00000  Uiso   1.00
C1086  C     0.80359   0.80760   0.54692   0.00000  Uiso   1.00
C1087  C     0.86367   0.85891   0.59328   0.00000  Uiso   1.00
C1088  C     0.86371   0.80759   0.90683   0.00000  Uiso   1.00
C1089  C     0.80298   0.85888   0.90672   0.00000  Uiso   1.00
C1090  C     0.80297   0.80757   0.59317   0.00000  Uiso   1.00
C1091  C     0.83331   0.83330   0.61662   0.00000  Uiso   1.00
C1092  C     0.83336   0.83330   0.88338   0.00000  Uiso   1.00
C1093  C     0.83334   0.83312   0.52410   0.00000  Uiso   1.00
C1094  C     0.83332   0.83312   0.97590   0.00000  Uiso   1.00
C1095  C     0.95726   0.83333   0.75005   0.00000  Uiso   1.00
C1096  C     0.70940   0.83333   0.74995   0.00000  Uiso   1.00
H1097  H     0.88624   0.87795   0.52874   0.00000  Uiso   1.00
H1098  H     0.88625   0.78834   0.97146   0.00000  Uiso   1.00
H1099  H     0.78040   0.87791   0.97126   0.00000  Uiso   1.00
H1100  H     0.78044   0.78830   0.52854   0.00000  Uiso   1.00
N1101  N     0.89597   0.88391   0.61580   0.00000  Uiso   1.00
O1102  O     0.91528   0.86478   0.64898   0.00000  Uiso   1.00
O1103  O     0.91032   0.92262   0.59912   0.00000  Uiso   1.00
N1104  N     0.89598   0.78260   0.88442   0.00000  Uiso   1.00
O1105  O     0.91527   0.80177   0.85136   0.00000  Uiso   1.00
O1106  O     0.91023   0.74377   0.90103   0.00000  Uiso   1.00
N1107  N     0.77067   0.88387   0.88420   0.00000  Uiso   1.00
O1108  O     0.75137   0.86472   0.85101   0.00000  Uiso   1.00
O1109  O     0.75629   0.92257   0.90088   0.00000  Uiso   1.00
N1110  N     0.77072   0.78255   0.61557   0.00000  Uiso   1.00
O1111  O     0.75141   0.80171   0.64863   0.00000  Uiso   1.00
O1112  O     0.75650   0.74371   0.59897   0.00000  Uiso   1.00
H1113  H     0.70397   0.75750   0.74991   0.00000  Uiso   1.00
H1114  H     0.96269   0.90917   0.75003   0.00000  Uiso   1.00
H1115  H     0.96269   0.75750   0.75009   0.00000  Uiso   1.00
H1116  H     0.70397   0.90917   0.74997   0.00000  Uiso   1.00
loop_
_geom_bond_atom_site_label_1
_geom_bond_atom_site_label_2
_geom_bond_distance
_geom_bond_site_symmetry_2
_ccdc_geom_bond_type
O1     Cu15    1.964   .     S
O1     C7      1.291   .     A
O2     Cu16    1.964   .     S
O2     C8      1.291   .     A
O3     Cu15    1.964   .     S
O3     C8      1.291   .     A
O4     Cu16    1.964   .     S
O4     C7      1.291   .     A
N5     Cu15    2.012   .     S
N5     C24     1.367   .     A
N5     C22     1.367   .     A
N6     C23     1.367   .     A
N6     Cu16    2.012   .     S
N6     C21     1.367   .     A
C7     C42     1.450   .     S
C8     C41     1.450   .     S
O9     Cu15    1.951   .     S
O9     C13     1.292   .     A
O10    Cu16    1.951   .     S
O10    C14     1.292   .     A
O11    Cu15    1.951   .     S
O11    C14     1.292   .     A
O12    C13     1.292   .     A
O12    Cu16    1.951   .     S
C13    C37     1.460   .     S
C14    C38     1.460   .     S
Cu15   Cu16    2.678   .     S
H17    C21     1.082   .     S
H18    C22     1.082   .     S
H19    C23     1.082   .     S
H20    C24     1.082   .     S
C21    C396    1.417   1_545 S
C22    C209    1.417   .     S
C23    C394    1.417   1_545 S
C24    C207    1.417   .     S
C25    C42     1.401   .     A
C25    H59     1.083   .     S
C25    C151    1.383   1_455 S
C26    H60     1.083   .     S
C26    C41     1.401   .     A
C26    C90     1.383   .     S
C27    C41     1.401   .     A
C27    H61     1.083   .     S
C27    C87     1.383   .     S
C28    C42     1.401   .     A
C28    H62     1.083   .     S
C28    C150    1.383   1_455 S
C29    C39     1.394   .     A
C29    H43     1.084   .     S
C29    C33     1.396   .     A
C30    C40     1.394   .     A
C30    H44     1.084   .     S
C30    C34     1.396   .     A
C31    C35     1.396   .     A
C31    H45     1.084   .     S
C31    C40     1.394   .     A
C32    C36     1.396   .     A
C32    C39     1.394   .     A
C32    H46     1.084   .     S
C33    C37     1.417   .     A
C33    N47     1.439   .     S
C34    N50     1.439   .     S
C34    C38     1.417   .     A
C35    N53     1.439   .     S
C35    C38     1.417   .     A
C36    N56     1.439   .     S
C36    C37     1.417   .     A
C39    C598    1.455   1_554 S
C40    C597    1.455   .     S
N47    O48     1.301   .     A
N47    O49     1.301   .     A
N50    O52     1.301   .     A
N50    O51     1.301   .     A
N53    O54     1.301   .     A
N53    O55     1.301   .     A
N56    O58     1.301   .     A
N56    O57     1.301   .     A
O63    Cu77    1.964   .     S
O63    C69     1.291   .     A
O64    Cu78    1.964   .     S
O64    C70     1.291   .     A
O65    Cu77    1.964   .     S
O65    C70     1.291   .     A
O66    Cu78    1.964   .     S
O66    C69     1.291   .     A
N67    Cu77    2.012   .     S
N67    C86     1.367   .     A
N67    C84     1.367   .     A
N68    C85     1.367   .     A
N68    Cu78    2.012   .     S
N68    C83     1.367   .     A
C69    C104    1.450   .     S
C70    C103    1.450   .     S
O71    Cu77    1.951   .     S
O71    C75     1.292   .     A
O72    Cu78    1.951   .     S
O72    C76     1.292   .     A
O73    Cu77    1.951   .     S
O73    C76     1.292   .     A
O74    C75     1.292   .     A
O74    Cu78    1.951   .     S
C75    C99     1.460   .     S
C76    C100    1.460   .     S
Cu77   Cu78    2.678   .     S
H79    C83     1.082   .     S
H80    C84     1.082   .     S
H81    C85     1.082   .     S
H82    C86     1.082   .     S
C83    C458    1.417   1_545 S
C84    C271    1.417   .     S
C85    C456    1.417   1_545 S
C86    C269    1.417   .     S
C87    C104    1.401   .     A
C87    H121    1.083   .     S
C88    H122    1.083   .     S
C88    C103    1.401   .     A
C88    C152    1.383   .     S
C89    C103    1.401   .     A
C89    H123    1.083   .     S
C89    C149    1.383   .     S
C90    C104    1.401   .     A
C90    H124    1.083   .     S
C91    C101    1.394   .     A
C91    H105    1.084   .     S
C91    C95     1.396   .     A
C92    C102    1.394   .     A
C92    H106    1.084   .     S
C92    C96     1.396   .     A
C93    C97     1.396   .     A
C93    H107    1.084   .     S
C93    C102    1.394   .     A
C94    C98     1.396   .     A
C94    C101    1.394   .     A
C94    H108    1.084   .     S
C95    C99     1.417   .     A
C95    N109    1.439   .     S
C96    N112    1.439   .     S
C96    C100    1.417   .     A
C97    N115    1.439   .     S
C97    C100    1.417   .     A
C98    N118    1.439   .     S
C98    C99     1.417   .     A
C101   C660    1.455   1_554 S
C102   C659    1.455   .     S
N109   O110    1.301   .     A
N109   O111    1.301   .     A
N112   O114    1.301   .     A
N112   O113    1.301   .     A
N115   O116    1.301   .     A
N115   O117    1.301   .     A
N118   O120    1.301   .     A
N118   O119    1.301   .     A
O125   Cu139   1.964   .     S
O125   C131    1.291   .     A
O126   Cu140   1.964   .     S
O126   C132    1.291   .     A
O127   Cu139   1.964   .     S
O127   C132    1.291   .     A
O128   Cu140   1.964   .     S
O128   C131    1.291   .     A
N129   Cu139   2.012   .     S
N129   C148    1.367   .     A
N129   C146    1.367   .     A
N130   C147    1.367   .     A
N130   Cu140   2.012   .     S
N130   C145    1.367   .     A
C131   C166    1.450   .     S
C132   C165    1.450   .     S
O133   Cu139   1.951   .     S
O133   C137    1.292   .     A
O134   Cu140   1.951   .     S
O134   C138    1.292   .     A
O135   Cu139   1.951   .     S
O135   C138    1.292   .     A
O136   C137    1.292   .     A
O136   Cu140   1.951   .     S
C137   C161    1.460   .     S
C138   C162    1.460   .     S
Cu139  Cu140   2.678   .     S
H141   C145    1.082   .     S
H142   C146    1.082   .     S
H143   C147    1.082   .     S
H144   C148    1.082   .     S
C145   C520    1.417   1_545 S
C146   C333    1.417   .     S
C147   C518    1.417   1_545 S
C148   C331    1.417   .     S
C149   C166    1.401   .     A
C149   H183    1.083   .     S
C150   H184    1.083   .     S
C150   C165    1.401   .     A
C150   C28     1.383   1_655 S
C151   C165    1.401   .     A
C151   H185    1.083   .     S
C151   C25     1.383   1_655 S
C152   C166    1.401   .     A
C152   H186    1.083   .     S
C153   C163    1.394   .     A
C153   H167    1.084   .     S
C153   C157    1.396   .     A
C154   C164    1.394   .     A
C154   H168    1.084   .     S
C154   C158    1.396   .     A
C155   C159    1.396   .     A
C155   H169    1.084   .     S
C155   C164    1.394   .     A
C156   C160    1.396   .     A
C156   C163    1.394   .     A
C156   H170    1.084   .     S
C157   C161    1.417   .     A
C157   N171    1.439   .     S
C158   N174    1.439   .     S
C158   C162    1.417   .     A
C159   N177    1.439   .     S
C159   C162    1.417   .     A
C160   N180    1.439   .     S
C160   C161    1.417   .     A
C163   C722    1.455   1_554 S
C164   C721    1.455   .     S
N171   O172    1.301   .     A
N171   O173    1.301   .     A
N174   O176    1.301   .     A
N174   O175    1.301   .     A
N177   O178    1.301   .     A
N177   O179    1.301   .     A
N180   O182    1.301   .     A
N180   O181    1.301   .     A
O187   Cu201   1.964   .     S
O187   C193    1.291   .     A
O188   Cu202   1.964   .     S
O188   C194    1.291   .     A
O189   Cu201   1.964   .     S
O189   C194    1.291   .     A
O190   Cu202   1.964   .     S
O190   C193    1.291   .     A
N191   Cu201   2.012   .     S
N191   C210    1.367   .     A
N191   C208    1.367   .     A
N192   C209    1.367   .     A
N192   Cu202   2.012   .     S
N192   C207    1.367   .     A
C193   C228    1.450   .     S
C194   C227    1.450   .     S
O195   Cu201   1.951   .     S
O195   C199    1.292   .     A
O196   Cu202   1.951   .     S
O196   C200    1.292   .     A
O197   Cu201   1.951   .     S
O197   C200    1.292   .     A
O198   C199    1.292   .     A
O198   Cu202   1.951   .     S
C199   C223    1.460   .     S
C200   C224    1.460   .     S
Cu201  Cu202   2.678   .     S
H203   C207    1.082   .     S
H204   C208    1.082   .     S
H205   C209    1.082   .     S
H206   C210    1.082   .     S
C208   C395    1.417   .     S
C210   C393    1.417   .     S
C211   C228    1.401   .     A
C211   H245    1.083   .     S
C211   C337    1.383   1_455 S
C212   H246    1.083   .     S
C212   C227    1.401   .     A
C212   C276    1.383   .     S
C213   C227    1.401   .     A
C213   H247    1.083   .     S
C213   C273    1.383   .     S
C214   C228    1.401   .     A
C214   H248    1.083   .     S
C214   C336    1.383   1_455 S
C215   C225    1.394   .     A
C215   H229    1.084   .     S
C215   C219    1.396   .     A
C216   C226    1.394   .     A
C216   H230    1.084   .     S
C216   C220    1.396   .     A
C217   C221    1.396   .     A
C217   H231    1.084   .     S
C217   C226    1.394   .     A
C218   C222    1.396   .     A
C218   C225    1.394   .     A
C218   H232    1.084   .     S
C219   C223    1.417   .     A
C219   N233    1.439   .     S
C220   N236    1.439   .     S
C220   C224    1.417   .     A
C221   N239    1.439   .     S
C221   C224    1.417   .     A
C222   N242    1.439   .     S
C222   C223    1.417   .     A
C225   C784    1.455   1_554 S
C226   C783    1.455   .     S
N233   O234    1.301   .     A
N233   O235    1.301   .     A
N236   O238    1.301   .     A
N236   O237    1.301   .     A
N239   O240    1.301   .     A
N239   O241    1.301   .     A
N242   O244    1.301   .     A
N242   O243    1.301   .     A
O249   Cu263   1.964   .     S
O249   C255    1.291   .     A
O250   Cu264   1.964   .     S
O250   C256    1.291   .     A
O251   Cu263   1.964   .     S
O251   C256    1.291   .     A
O252   Cu264   1.964   .     S
O252   C255    1.291   .     A
N253   Cu263   2.012   .     S
N253   C272    1.367   .     A
N253   C270    1.367   .     A
N254   C271    1.367   .     A
N254   Cu264   2.012   .     S
N254   C269    1.367   .     A
C255   C290    1.450   .     S
C256   C289    1.450   .     S
O257   Cu263   1.951   .     S
O257   C261    1.292   .     A
O258   Cu264   1.951   .     S
O258   C262    1.292   .     A
O259   Cu263   1.951   .     S
O259   C262    1.292   .     A
O260   C261    1.292   .     A
O260   Cu264   1.951   .     S
C261   C285    1.460   .     S
C262   C286    1.460   .     S
Cu263  Cu264   2.678   .     S
H265   C269    1.082   .     S
H266   C270    1.082   .     S
H267   C271    1.082   .     S
H268   C272    1.082   .     S
C270   C457    1.417   .     S
C272   C455    1.417   .     S
C273   C290    1.401   .     A
C273   H307    1.083   .     S
C274   H308    1.083   .     S
C274   C289    1.401   .     A
C274   C338    1.383   .     S
C275   C289    1.401   .     A
C275   H309    1.083   .     S
C275   C335    1.383   .     S
C276   C290    1.401   .     A
C276   H310    1.083   .     S
C277   C287    1.394   .     A
C277   H291    1.084   .     S
C277   C281    1.396   .     A
C278   C288    1.394   .     A
C278   H292    1.084   .     S
C278   C282    1.396   .     A
C279   C283    1.396   .     A
C279   H293    1.084   .     S
C279   C288    1.394   .     A
C280   C284    1.396   .     A
C280   C287    1.394   .     A
C280   H294    1.084   .     S
C281   C285    1.417   .     A
C281   N295    1.439   .     S
C282   N298    1.439   .     S
C282   C286    1.417   .     A
C283   N301    1.439   .     S
C283   C286    1.417   .     A
C284   N304    1.439   .     S
C284   C285    1.417   .     A
C287   C846    1.455   1_554 S
C288   C845    1.455   .     S
N295   O296    1.301   .     A
N295   O297    1.301   .     A
N298   O300    1.301   .     A
N298   O299    1.301   .     A
N301   O302    1.301   .     A
N301   O303    1.301   .     A
N304   O306    1.301   .     A
N304   O305    1.301   .     A
O311   Cu325   1.964   .     S
O311   C317    1.291   .     A
O312   Cu326   1.964   .     S
O312   C318    1.291   .     A
O313   Cu325   1.964   .     S
O313   C318    1.291   .     A
O314   Cu326   1.964   .     S
O314   C317    1.291   .     A
N315   Cu325   2.012   .     S
N315   C334    1.367   .     A
N315   C332    1.367   .     A
N316   C333    1.367   .     A
N316   Cu326   2.012   .     S
N316   C331    1.367   .     A
C317   C352    1.450   .     S
C318   C351    1.450   .     S
O319   Cu325   1.951   .     S
O319   C323    1.292   .     A
O320   Cu326   1.951   .     S
O320   C324    1.292   .     A
O321   Cu325   1.951   .     S
O321   C324    1.292   .     A
O322   C323    1.292   .     A
O322   Cu326   1.951   .     S
C323   C347    1.460   .     S
C324   C348    1.460   .     S
Cu325  Cu326   2.678   .     S
H327   C331    1.082   .     S
H328   C332    1.082   .     S
H329   C333    1.082   .     S
H330   C334    1.082   .     S
C332   C519    1.417   .     S
C334   C517    1.417   .     S
C335   C352    1.401   .     A
C335   H369    1.083   .     S
C336   H370    1.083   .     S
C336   C351    1.401   .     A
C336   C214    1.383   1_655 S
C337   C351    1.401   .     A
C337   H371    1.083   .     S
C337   C211    1.383   1_655 S
C338   C352    1.401   .     A
C338   H372    1.083   .     S
C339   C349    1.394   .     A
C339   H353    1.084   .     S
C339   C343    1.396   .     A
C340   C350    1.394   .     A
C340   H354    1.084   .     S
C340   C344    1.396   .     A
C341   C345    1.396   .     A
C341   H355    1.084   .     S
C341   C350    1.394   .     A
C342   C346    1.396   .     A
C342   C349    1.394   .     A
C342   H356    1.084   .     S
C343   C347    1.417   .     A
C343   N357    1.439   .     S
C344   N360    1.439   .     S
C344   C348    1.417   .     A
C345   N363    1.439   .     S
C345   C348    1.417   .     A
C346   N366    1.439   .     S
C346   C347    1.417   .     A
C349   C908    1.455   1_554 S
C350   C907    1.455   .     S
N357   O358    1.301   .     A
N357   O359    1.301   .     A
N360   O362    1.301   .     A
N360   O361    1.301   .     A
N363   O364    1.301   .     A
N363   O365    1.301   .     A
N366   O368    1.301   .     A
N366   O367    1.301   .     A
O373   Cu387   1.964   .     S
O373   C379    1.291   .     A
O374   Cu388   1.964   .     S
O374   C380    1.291   .     A
O375   Cu387   1.964   .     S
O375   C380    1.291   .     A
O376   Cu388   1.964   .     S
O376   C379    1.291   .     A
N377   Cu387   2.012   .     S
N377   C396    1.367   .     A
N377   C394    1.367   .     A
N378   C395    1.367   .     A
N378   Cu388   2.012   .     S
N378   C393    1.367   .     A
C379   C414    1.450   .     S
C380   C413    1.450   .     S
O381   Cu387   1.951   .     S
O381   C385    1.292   .     A
O382   Cu388   1.951   .     S
O382   C386    1.292   .     A
O383   Cu387   1.951   .     S
O383   C386    1.292   .     A
O384   C385    1.292   .     A
O384   Cu388   1.951   .     S
C385   C409    1.460   .     S
C386   C410    1.460   .     S
Cu387  Cu388   2.678   .     S
H389   C393    1.082   .     S
H390   C394    1.082   .     S
H391   C395    1.082   .     S
H392   C396    1.082   .     S
C394   C23     1.417   1_565 S
C396   C21     1.417   1_565 S
C397   C414    1.401   .     A
C397   H431    1.083   .     S
C397   C523    1.383   1_455 S
C398   H432    1.083   .     S
C398   C413    1.401   .     A
C398   C462    1.383   .     S
C399   C413    1.401   .     A
C399   H433    1.083   .     S
C399   C459    1.383   .     S
C400   C414    1.401   .     A
C400   H434    1.083   .     S
C400   C522    1.383   1_455 S
C401   C411    1.394   .     A
C401   H415    1.084   .     S
C401   C405    1.396   .     A
C402   C412    1.394   .     A
C402   H416    1.084   .     S
C402   C406    1.396   .     A
C403   C407    1.396   .     A
C403   H417    1.084   .     S
C403   C412    1.394   .     A
C404   C408    1.396   .     A
C404   C411    1.394   .     A
C404   H418    1.084   .     S
C405   C409    1.417   .     A
C405   N419    1.439   .     S
C406   N422    1.439   .     S
C406   C410    1.417   .     A
C407   N425    1.439   .     S
C407   C410    1.417   .     A
C408   N428    1.439   .     S
C408   C409    1.417   .     A
C411   C970    1.455   1_554 S
C412   C969    1.455   .     S
N419   O420    1.301   .     A
N419   O421    1.301   .     A
N422   O424    1.301   .     A
N422   O423    1.301   .     A
N425   O426    1.301   .     A
N425   O427    1.301   .     A
N428   O430    1.301   .     A
N428   O429    1.301   .     A
O435   Cu449   1.964   .     S
O435   C441    1.291   .     A
O436   Cu450   1.964   .     S
O436   C442    1.291   .     A
O437   Cu449   1.964   .     S
O437   C442    1.291   .     A
O438   Cu450   1.964   .     S
O438   C441    1.291   .     A
N439   Cu449   2.012   .     S
N439   C458    1.367   .     A
N439   C456    1.367   .     A
N440   C457    1.367   .     A
N440   Cu450   2.012   .     S
N440   C455    1.367   .     A
C441   C476    1.450   .     S
C442   C475    1.450   .     S
O443   Cu449   1.951   .     S
O443   C447    1.292   .     A
O444   Cu450   1.951   .     S
O444   C448    1.292   .     A
O445   Cu449   1.951   .     S
O445   C448    1.292   .     A
O446   C447    1.292   .     A
O446   Cu450   1.951   .     S
C447   C471    1.460   .     S
C448   C472    1.460   .     S
Cu449  Cu450   2.678   .     S
H451   C455    1.082   .     S
H452   C456    1.082   .     S
H453   C457    1.082   .     S
H454   C458    1.082   .     S
C456   C85     1.417   1_565 S
C458   C83     1.417   1_565 S
C459   C476    1.401   .     A
C459   H493    1.083   .     S
C460   H494    1.083   .     S
C460   C475    1.401   .     A
C460   C524    1.383   .     S
C461   C475    1.401   .     A
C461   H495    1.083   .     S
C461   C521    1.383   .     S
C462   C476    1.401   .     A
C462   H496    1.083   .     S
C463   C473    1.394   .     A
C463   H477    1.084   .     S
C463   C467    1.396   .     A
C464   C474    1.394   .     A
C464   H478    1.084   .     S
C464   C468    1.396   .     A
C465   C469    1.396   .     A
C465   H479    1.084   .     S
C465   C474    1.394   .     A
C466   C470    1.396   .     A
C466   C473    1.394   .     A
C466   H480    1.084   .     S
C467   C471    1.417   .     A
C467   N481    1.439   .     S
C468   N484    1.439   .     S
C468   C472    1.417   .     A
C469   N487    1.439   .     S
C469   C472    1.417   .     A
C470   N490    1.439   .     S
C470   C471    1.417   .     A
C473   C1032   1.455   1_554 S
C474   C1031   1.455   .     S
N481   O482    1.301   .     A
N481   O483    1.301   .     A
N484   O486    1.301   .     A
N484   O485    1.301   .     A
N487   O488    1.301   .     A
N487   O489    1.301   .     A
N490   O492    1.301   .     A
N490   O491    1.301   .     A
O497   Cu511   1.964   .     S
O497   C503    1.291   .     A
O498   Cu512   1.964   .     S
O498   C504    1.291   .     A
O499   Cu511   1.964   .     S
O499   C504    1.291   .     A
O500   Cu512   1.964   .     S
O500   C503    1.291   .     A
N501   Cu511   2.012   .     S
N501   C520    1.367   .     A
N501   C518    1.367   .     A
N502   C519    1.367   .     A
N502   Cu512   2.012   .     S
N502   C517    1.367   .     A
C503   C538    1.450   .     S
C504   C537    1.450   .     S
O505   Cu511   1.951   .     S
O505   C509    1.292   .     A
O506   Cu512   1.951   .     S
O506   C510    1.292   .     A
O507   Cu511   1.951   .     S
O507   C510    1.292   .     A
O508   C509    1.292   .     A
O508   Cu512   1.951   .     S
C509   C533    1.460   .     S
C510   C534    1.460   .     S
Cu511  Cu512   2.678   .     S
H513   C517    1.082   .     S
H514   C518    1.082   .     S
H515   C519    1.082   .     S
H516   C520    1.082   .     S
C518   C147    1.417   1_565 S
C520   C145    1.417   1_565 S
C521   C538    1.401   .     A
C521   H555    1.083   .     S
C522   H556    1.083   .     S
C522   C537    1.401   .     A
C522   C400    1.383   1_655 S
C523   C537    1.401   .     A
C523   H557    1.083   .     S
C523   C397    1.383   1_655 S
C524   C538    1.401   .     A
C524   H558    1.083   .     S
C525   C535    1.394   .     A
C525   H539    1.084   .     S
C525   C529    1.396   .     A
C526   C536    1.394   .     A
C526   H540    1.084   .     S
C526   C530    1.396   .     A
C527   C531    1.396   .     A
C527   H541    1.084   .     S
C527   C536    1.394   .     A
C528   C532    1.396   .     A
C528   C535    1.394   .     A
C528   H542    1.084   .     S
C529   C533    1.417   .     A
C529   N543    1.439   .     S
C530   N546    1.439   .     S
C530   C534    1.417   .     A
C531   N549    1.439   .     S
C531   C534    1.417   .     A
C532   N552    1.439   .     S
C532   C533    1.417   .     A
C535   C1094   1.455   1_554 S
C536   C1093   1.455   .     S
N543   O544    1.301   .     A
N543   O545    1.301   .     A
N546   O548    1.301   .     A
N546   O547    1.301   .     A
N549   O550    1.301   .     A
N549   O551    1.301   .     A
N552   O554    1.301   .     A
N552   O553    1.301   .     A
O559   Cu573   1.964   .     S
O559   C565    1.291   .     A
O560   Cu574   1.964   .     S
O560   C566    1.291   .     A
O561   Cu573   1.964   .     S
O561   C566    1.291   .     A
O562   Cu574   1.964   .     S
O562   C565    1.291   .     A
N563   Cu573   2.012   .     S
N563   C582    1.367   .     A
N563   C580    1.367   .     A
N564   C581    1.367   .     A
N564   Cu574   2.012   .     S
N564   C579    1.367   .     A
C565   C600    1.450   .     S
C566   C599    1.450   .     S
O567   Cu573   1.951   .     S
O567   C571    1.292   .     A
O568   Cu574   1.951   .     S
O568   C572    1.292   .     A
O569   Cu573   1.951   .     S
O569   C572    1.292   .     A
O570   C571    1.292   .     A
O570   Cu574   1.951   .     S
C571   C595    1.460   .     S
C572   C596    1.460   .     S
Cu573  Cu574   2.678   .     S
H575   C579    1.082   .     S
H576   C580    1.082   .     S
H577   C581    1.082   .     S
H578   C582    1.082   .     S
C579   C954    1.417   1_545 S
C580   C767    1.417   .     S
C581   C952    1.417   1_545 S
C582   C765    1.417   .     S
C583   C600    1.401   .     A
C583   H617    1.083   .     S
C583   C709    1.383   1_455 S
C584   H618    1.083   .     S
C584   C599    1.401   .     A
C584   C648    1.383   .     S
C585   C599    1.401   .     A
C585   H619    1.083   .     S
C585   C645    1.383   .     S
C586   C600    1.401   .     A
C586   H620    1.083   .     S
C586   C708    1.383   1_455 S
C587   C597    1.394   .     A
C587   H601    1.084   .     S
C587   C591    1.396   .     A
C588   C598    1.394   .     A
C588   H602    1.084   .     S
C588   C592    1.396   .     A
C589   C593    1.396   .     A
C589   H603    1.084   .     S
C589   C598    1.394   .     A
C590   C594    1.396   .     A
C590   C597    1.394   .     A
C590   H604    1.084   .     S
C591   C595    1.417   .     A
C591   N605    1.439   .     S
C592   N608    1.439   .     S
C592   C596    1.417   .     A
C593   N611    1.439   .     S
C593   C596    1.417   .     A
C594   N614    1.439   .     S
C594   C595    1.417   .     A
C598   C39     1.455   1_556 S
N605   O606    1.301   .     A
N605   O607    1.301   .     A
N608   O610    1.301   .     A
N608   O609    1.301   .     A
N611   O612    1.301   .     A
N611   O613    1.301   .     A
N614   O616    1.301   .     A
N614   O615    1.301   .     A
O621   Cu635   1.964   .     S
O621   C627    1.291   .     A
O622   Cu636   1.964   .     S
O622   C628    1.291   .     A
O623   Cu635   1.964   .     S
O623   C628    1.291   .     A
O624   Cu636   1.964   .     S
O624   C627    1.291   .     A
N625   Cu635   2.012   .     S
N625   C644    1.367   .     A
N625   C642    1.367   .     A
N626   C643    1.367   .     A
N626   Cu636   2.012   .     S
N626   C641    1.367   .     A
C627   C662    1.450   .     S
C628   C661    1.450   .     S
O629   Cu635   1.951   .     S
O629   C633    1.292   .     A
O630   Cu636   1.951   .     S
O630   C634    1.292   .     A
O631   Cu635   1.951   .     S
O631   C634    1.292   .     A
O632   C633    1.292   .     A
O632   Cu636   1.951   .     S
C633   C657    1.460   .     S
C634   C658    1.460   .     S
Cu635  Cu636   2.678   .     S
H637   C641    1.082   .     S
H638   C642    1.082   .     S
H639   C643    1.082   .     S
H640   C644    1.082   .     S
C641   C1016   1.417   1_545 S
C642   C829    1.417   .     S
C643   C1014   1.417   1_545 S
C644   C827    1.417   .     S
C645   C662    1.401   .     A
C645   H679    1.083   .     S
C646   H680    1.083   .     S
C646   C661    1.401   .     A
C646   C710    1.383   .     S
C647   C661    1.401   .     A
C647   H681    1.083   .     S
C647   C707    1.383   .     S
C648   C662    1.401   .     A
C648   H682    1.083   .     S
C649   C659    1.394   .     A
C649   H663    1.084   .     S
C649   C653    1.396   .     A
C650   C660    1.394   .     A
C650   H664    1.084   .     S
C650   C654    1.396   .     A
C651   C655    1.396   .     A
C651   H665    1.084   .     S
C651   C660    1.394   .     A
C652   C656    1.396   .     A
C652   C659    1.394   .     A
C652   H666    1.084   .     S
C653   C657    1.417   .     A
C653   N667    1.439   .     S
C654   N670    1.439   .     S
C654   C658    1.417   .     A
C655   N673    1.439   .     S
C655   C658    1.417   .     A
C656   N676    1.439   .     S
C656   C657    1.417   .     A
C660   C101    1.455   1_556 S
N667   O668    1.301   .     A
N667   O669    1.301   .     A
N670   O672    1.301   .     A
N670   O671    1.301   .     A
N673   O674    1.301   .     A
N673   O675    1.301   .     A
N676   O678    1.301   .     A
N676   O677    1.301   .     A
O683   Cu697   1.964   .     S
O683   C689    1.291   .     A
O684   Cu698   1.964   .     S
O684   C690    1.291   .     A
O685   Cu697   1.964   .     S
O685   C690    1.291   .     A
O686   Cu698   1.964   .     S
O686   C689    1.291   .     A
N687   Cu697   2.012   .     S
N687   C706    1.367   .     A
N687   C704    1.367   .     A
N688   C705    1.367   .     A
N688   Cu698   2.012   .     S
N688   C703    1.367   .     A
C689   C724    1.450   .     S
C690   C723    1.450   .     S
O691   Cu697   1.951   .     S
O691   C695    1.292   .     A
O692   Cu698   1.951   .     S
O692   C696    1.292   .     A
O693   Cu697   1.951   .     S
O693   C696    1.292   .     A
O694   C695    1.292   .     A
O694   Cu698   1.951   .     S
C695   C719    1.460   .     S
C696   C720    1.460   .     S
Cu697  Cu698   2.678   .     S
H699   C703    1.082   .     S
H700   C704    1.082   .     S
H701   C705    1.082   .     S
H702   C706    1.082   .     S
C703   C1078   1.417   1_545 S
C704   C891    1.417   .     S
C705   C1076   1.417   1_545 S
C706   C889    1.417   .     S
C707   C724    1.401   .     A
C707   H741    1.083   .     S
C708   H742    1.083   .     S
C708   C723    1.401   .     A
C708   C586    1.383   1_655 S
C709   C723    1.401   .     A
C709   H743    1.083   .     S
C709   C583    1.383   1_655 S
C710   C724    1.401   .     A
C710   H744    1.083   .     S
C711   C721    1.394   .     A
C711   H725    1.084   .     S
C711   C715    1.396   .     A
C712   C722    1.394   .     A
C712   H726    1.084   .     S
C712   C716    1.396   .     A
C713   C717    1.396   .     A
C713   H727    1.084   .     S
C713   C722    1.394   .     A
C714   C718    1.396   .     A
C714   C721    1.394   .     A
C714   H728    1.084   .     S
C715   C719    1.417   .     A
C715   N729    1.439   .     S
C716   N732    1.439   .     S
C716   C720    1.417   .     A
C717   N735    1.439   .     S
C717   C720    1.417   .     A
C718   N738    1.439   .     S
C718   C719    1.417   .     A
C722   C163    1.455   1_556 S
N729   O730    1.301   .     A
N729   O731    1.301   .     A
N732   O734    1.301   .     A
N732   O733    1.301   .     A
N735   O736    1.301   .     A
N735   O737    1.301   .     A
N738   O740    1.301   .     A
N738   O739    1.301   .     A
O745   Cu759   1.964   .     S
O745   C751    1.291   .     A
O746   Cu760   1.964   .     S
O746   C752    1.291   .     A
O747   Cu759   1.964   .     S
O747   C752    1.291   .     A
O748   Cu760   1.964   .     S
O748   C751    1.291   .     A
N749   Cu759   2.012   .     S
N749   C768    1.367   .     A
N749   C766    1.367   .     A
N750   C767    1.367   .     A
N750   Cu760   2.012   .     S
N750   C765    1.367   .     A
C751   C786    1.450   .     S
C752   C785    1.450   .     S
O753   Cu759   1.951   .     S
O753   C757    1.292   .     A
O754   Cu760   1.951   .     S
O754   C758    1.292   .     A
O755   Cu759   1.951   .     S
O755   C758    1.292   .     A
O756   C757    1.292   .     A
O756   Cu760   1.951   .     S
C757   C781    1.460   .     S
C758   C782    1.460   .     S
Cu759  Cu760   2.678   .     S
H761   C765    1.082   .     S
H762   C766    1.082   .     S
H763   C767    1.082   .     S
H764   C768    1.082   .     S
C766   C953    1.417   .     S
C768   C951    1.417   .     S
C769   C786    1.401   .     A
C769   H803    1.083   .     S
C769   C895    1.383   1_455 S
C770   H804    1.083   .     S
C770   C785    1.401   .     A
C770   C834    1.383   .     S
C771   C785    1.401   .     A
C771   H805    1.083   .     S
C771   C831    1.383   .     S
C772   C786    1.401   .     A
C772   H806    1.083   .     S
C772   C894    1.383   1_455 S
C773   C783    1.394   .     A
C773   H787    1.084   .     S
C773   C777    1.396   .     A
C774   C784    1.394   .     A
C774   H788    1.084   .     S
C774   C778    1.396   .     A
C775   C779    1.396   .     A
C775   H789    1.084   .     S
C775   C784    1.394   .     A
C776   C780    1.396   .     A
C776   C783    1.394   .     A
C776   H790    1.084   .     S
C777   C781    1.417   .     A
C777   N791    1.439   .     S
C778   N794    1.439   .     S
C778   C782    1.417   .     A
C779   N797    1.439   .     S
C779   C782    1.417   .     A
C780   N800    1.439   .     S
C780   C781    1.417   .     A
C784   C225    1.455   1_556 S
N791   O792    1.301   .     A
N791   O793    1.301   .     A
N794   O796    1.301   .     A
N794   O795    1.301   .     A
N797   O798    1.301   .     A
N797   O799    1.301   .     A
N800   O802    1.301   .     A
N800   O801    1.301   .     A
O807   Cu821   1.964   .     S
O807   C813    1.291   .     A
O808   Cu822   1.964   .     S
O808   C814    1.291   .     A
O809   Cu821   1.964   .     S
O809   C814    1.291   .     A
O810   Cu822   1.964   .     S
O810   C813    1.291   .     A
N811   Cu821   2.012   .     S
N811   C830    1.367   .     A
N811   C828    1.367   .     A
N812   C829    1.367   .     A
N812   Cu822   2.012   .     S
N812   C827    1.367   .     A
C813   C848    1.450   .     S
C814   C847    1.450   .     S
O815   Cu821   1.951   .     S
O815   C819    1.292   .     A
O816   Cu822   1.951   .     S
O816   C820    1.292   .     A
O817   Cu821   1.951   .     S
O817   C820    1.292   .     A
O818   C819    1.292   .     A
O818   Cu822   1.951   .     S
C819   C843    1.460   .     S
C820   C844    1.460   .     S
Cu821  Cu822   2.678   .     S
H823   C827    1.082   .     S
H824   C828    1.082   .     S
H825   C829    1.082   .     S
H826   C830    1.082   .     S
C828   C1015   1.417   .     S
C830   C1013   1.417   .     S
C831   C848    1.401   .     A
C831   H865    1.083   .     S
C832   H866    1.083   .     S
C832   C847    1.401   .     A
C832   C896    1.383   .     S
C833   C847    1.401   .     A
C833   H867    1.083   .     S
C833   C893    1.383   .     S
C834   C848    1.401   .     A
C834   H868    1.083   .     S
C835   C845    1.394   .     A
C835   H849    1.084   .     S
C835   C839    1.396   .     A
C836   C846    1.394   .     A
C836   H850    1.084   .     S
C836   C840    1.396   .     A
C837   C841    1.396   .     A
C837   H851    1.084   .     S
C837   C846    1.394   .     A
C838   C842    1.396   .     A
C838   C845    1.394   .     A
C838   H852    1.084   .     S
C839   C843    1.417   .     A
C839   N853    1.439   .     S
C840   N856    1.439   .     S
C840   C844    1.417   .     A
C841   N859    1.439   .     S
C841   C844    1.417   .     A
C842   N862    1.439   .     S
C842   C843    1.417   .     A
C846   C287    1.455   1_556 S
N853   O854    1.301   .     A
N853   O855    1.301   .     A
N856   O858    1.301   .     A
N856   O857    1.301   .     A
N859   O860    1.301   .     A
N859   O861    1.301   .     A
N862   O864    1.301   .     A
N862   O863    1.301   .     A
O869   Cu883   1.964   .     S
O869   C875    1.291   .     A
O870   Cu884   1.964   .     S
O870   C876    1.291   .     A
O871   Cu883   1.964   .     S
O871   C876    1.291   .     A
O872   Cu884   1.964   .     S
O872   C875    1.291   .     A
N873   Cu883   2.012   .     S
N873   C892    1.367   .     A
N873   C890    1.367   .     A
N874   C891    1.367   .     A
N874   Cu884   2.012   .     S
N874   C889    1.367   .     A
C875   C910    1.450   .     S
C876   C909    1.450   .     S
O877   Cu883   1.951   .     S
O877   C881    1.292   .     A
O878   Cu884   1.951   .     S
O878   C882    1.292   .     A
O879   Cu883   1.951   .     S
O879   C882    1.292   .     A
O880   C881    1.292   .     A
O880   Cu884   1.951   .     S
C881   C905    1.460   .     S
C882   C906    1.460   .     S
Cu883  Cu884   2.678   .     S
H885   C889    1.082   .     S
H886   C890    1.082   .     S
H887   C891    1.082   .     S
H888   C892    1.082   .     S
C890   C1077   1.417   .     S
C892   C1075   1.417   .     S
C893   C910    1.401   .     A
C893   H927    1.083   .     S
C894   H928    1.083   .     S
C894   C909    1.401   .     A
C894   C772    1.383   1_655 S
C895   C909    1.401   .     A
C895   H929    1.083   .     S
C895   C769    1.383   1_655 S
C896   C910    1.401   .     A
C896   H930    1.083   .     S
C897   C907    1.394   .     A
C897   H911    1.084   .     S
C897   C901    1.396   .     A
C898   C908    1.394   .     A
C898   H912    1.084   .     S
C898   C902    1.396   .     A
C899   C903    1.396   .     A
C899   H913    1.084   .     S
C899   C908    1.394   .     A
C900   C904    1.396   .     A
C900   C907    1.394   .     A
C900   H914    1.084   .     S
C901   C905    1.417   .     A
C901   N915    1.439   .     S
C902   N918    1.439   .     S
C902   C906    1.417   .     A
C903   N921    1.439   .     S
C903   C906    1.417   .     A
C904   N924    1.439   .     S
C904   C905    1.417   .     A
C908   C349    1.455   1_556 S
N915   O916    1.301   .     A
N915   O917    1.301   .     A
N918   O920    1.301   .     A
N918   O919    1.301   .     A
N921   O922    1.301   .     A
N921   O923    1.301   .     A
N924   O926    1.301   .     A
N924   O925    1.301   .     A
O931   Cu945   1.964   .     S
O931   C937    1.291   .     A
O932   Cu946   1.964   .     S
O932   C938    1.291   .     A
O933   Cu945   1.964   .     S
O933   C938    1.291   .     A
O934   Cu946   1.964   .     S
O934   C937    1.291   .     A
N935   Cu945   2.012   .     S
N935   C954    1.367   .     A
N935   C952    1.367   .     A
N936   C953    1.367   .     A
N936   Cu946   2.012   .     S
N936   C951    1.367   .     A
C937   C972    1.450   .     S
C938   C971    1.450   .     S
O939   Cu945   1.951   .     S
O939   C943    1.292   .     A
O940   Cu946   1.951   .     S
O940   C944    1.292   .     A
O941   Cu945   1.951   .     S
O941   C944    1.292   .     A
O942   C943    1.292   .     A
O942   Cu946   1.951   .     S
C943   C967    1.460   .     S
C944   C968    1.460   .     S
Cu945  Cu946   2.678   .     S
H947   C951    1.082   .     S
H948   C952    1.082   .     S
H949   C953    1.082   .     S
H950   C954    1.082   .     S
C952   C581    1.417   1_565 S
C954   C579    1.417   1_565 S
C955   C972    1.401   .     A
C955   H989    1.083   .     S
C955   C1081   1.383   1_455 S
C956   H990    1.083   .     S
C956   C971    1.401   .     A
C956   C1020   1.383   .     S
C957   C971    1.401   .     A
C957   H991    1.083   .     S
C957   C1017   1.383   .     S
C958   C972    1.401   .     A
C958   H992    1.083   .     S
C958   C1080   1.383   1_455 S
C959   C969    1.394   .     A
C959   H973    1.084   .     S
C959   C963    1.396   .     A
C960   C970    1.394   .     A
C960   H974    1.084   .     S
C960   C964    1.396   .     A
C961   C965    1.396   .     A
C961   H975    1.084   .     S
C961   C970    1.394   .     A
C962   C966    1.396   .     A
C962   C969    1.394   .     A
C962   H976    1.084   .     S
C963   C967    1.417   .     A
C963   N977    1.439   .     S
C964   N980    1.439   .     S
C964   C968    1.417   .     A
C965   N983    1.439   .     S
C965   C968    1.417   .     A
C966   N986    1.439   .     S
C966   C967    1.417   .     A
C970   C411    1.455   1_556 S
N977   O978    1.301   .     A
N977   O979    1.301   .     A
N980   O982    1.301   .     A
N980   O981    1.301   .     A
N983   O984    1.301   .     A
N983   O985    1.301   .     A
N986   O988    1.301   .     A
N986   O987    1.301   .     A
O993   Cu1007  1.964   .     S
O993   C999    1.291   .     A
O994   Cu1008  1.964   .     S
O994   C1000   1.291   .     A
O995   Cu1007  1.964   .     S
O995   C1000   1.291   .     A
O996   Cu1008  1.964   .     S
O996   C999    1.291   .     A
N997   Cu1007  2.012   .     S
N997   C1016   1.367   .     A
N997   C1014   1.367   .     A
N998   C1015   1.367   .     A
N998   Cu1008  2.012   .     S
N998   C1013   1.367   .     A
C999   C1034   1.450   .     S
C1000  C1033   1.450   .     S
O1001  Cu1007  1.951   .     S
O1001  C1005   1.292   .     A
O1002  Cu1008  1.951   .     S
O1002  C1006   1.292   .     A
O1003  Cu1007  1.951   .     S
O1003  C1006   1.292   .     A
O1004  C1005   1.292   .     A
O1004  Cu1008  1.951   .     S
C1005  C1029   1.460   .     S
C1006  C1030   1.460   .     S
Cu1007 Cu1008  2.678   .     S
H1009  C1013   1.082   .     S
H1010  C1014   1.082   .     S
H1011  C1015   1.082   .     S
H1012  C1016   1.082   .     S
C1014  C643    1.417   1_565 S
C1016  C641    1.417   1_565 S
C1017  C1034   1.401   .     A
C1017  H1051   1.083   .     S
C1018  H1052   1.083   .     S
C1018  C1033   1.401   .     A
C1018  C1082   1.383   .     S
C1019  C1033   1.401   .     A
C1019  H1053   1.083   .     S
C1019  C1079   1.383   .     S
C1020  C1034   1.401   .     A
C1020  H1054   1.083   .     S
C1021  C1031   1.394   .     A
C1021  H1035   1.084   .     S
C1021  C1025   1.396   .     A
C1022  C1032   1.394   .     A
C1022  H1036   1.084   .     S
C1022  C1026   1.396   .     A
C1023  C1027   1.396   .     A
C1023  H1037   1.084   .     S
C1023  C1032   1.394   .     A
C1024  C1028   1.396   .     A
C1024  C1031   1.394   .     A
C1024  H1038   1.084   .     S
C1025  C1029   1.417   .     A
C1025  N1039   1.439   .     S
C1026  N1042   1.439   .     S
C1026  C1030   1.417   .     A
C1027  N1045   1.439   .     S
C1027  C1030   1.417   .     A
C1028  N1048   1.439   .     S
C1028  C1029   1.417   .     A
C1032  C473    1.455   1_556 S
N1039  O1040   1.301   .     A
N1039  O1041   1.301   .     A
N1042  O1044   1.301   .     A
N1042  O1043   1.301   .     A
N1045  O1046   1.301   .     A
N1045  O1047   1.301   .     A
N1048  O1050   1.301   .     A
N1048  O1049   1.301   .     A
O1055  Cu1069  1.964   .     S
O1055  C1061   1.291   .     A
O1056  Cu1070  1.964   .     S
O1056  C1062   1.291   .     A
O1057  Cu1069  1.964   .     S
O1057  C1062   1.291   .     A
O1058  Cu1070  1.964   .     S
O1058  C1061   1.291   .     A
N1059  Cu1069  2.012   .     S
N1059  C1078   1.367   .     A
N1059  C1076   1.367   .     A
N1060  C1077   1.367   .     A
N1060  Cu1070  2.012   .     S
N1060  C1075   1.367   .     A
C1061  C1096   1.450   .     S
C1062  C1095   1.450   .     S
O1063  Cu1069  1.951   .     S
O1063  C1067   1.292   .     A
O1064  Cu1070  1.951   .     S
O1064  C1068   1.292   .     A
O1065  Cu1069  1.951   .     S
O1065  C1068   1.292   .     A
O1066  C1067   1.292   .     A
O1066  Cu1070  1.951   .     S
C1067  C1091   1.460   .     S
C1068  C1092   1.460   .     S
Cu1069 Cu1070  2.678   .     S
H1071  C1075   1.082   .     S
H1072  C1076   1.082   .     S
H1073  C1077   1.082   .     S
H1074  C1078   1.082   .     S
C1076  C705    1.417   1_565 S
C1078  C703    1.417   1_565 S
C1079  C1096   1.401   .     A
C1079  H1113   1.083   .     S
C1080  H1114   1.083   .     S
C1080  C1095   1.401   .     A
C1080  C958    1.383   1_655 S
C1081  C1095   1.401   .     A
C1081  H1115   1.083   .     S
C1081  C955    1.383   1_655 S
C1082  C1096   1.401   .     A
C1082  H1116   1.083   .     S
C1083  C1093   1.394   .     A
C1083  H1097   1.084   .     S
C1083  C1087   1.396   .     A
C1084  C1094   1.394   .     A
C1084  H1098   1.084   .     S
C1084  C1088   1.396   .     A
C1085  C1089   1.396   .     A
C1085  H1099   1.084   .     S
C1085  C1094   1.394   .     A
C1086  C1090   1.396   .     A
C1086  C1093   1.394   .     A
C1086  H1100   1.084   .     S
C1087  C1091   1.417   .     A
C1087  N1101   1.439   .     S
C1088  N1104   1.439   .     S
C1088  C1092   1.417   .     A
C1089  N1107   1.439   .     S
C1089  C1092   1.417   .     A
C1090  N1110   1.439   .     S
C1090  C1091   1.417   .     A
C1094  C535    1.455   1_556 S
N1101  O1102   1.301   .     A
N1101  O1103   1.301   .     A
N1104  O1106   1.301   .     A
N1104  O1105   1.301   .     A
N1107  O1108   1.301   .     A
N1107  O1109   1.301   .     A
N1110  O1112   1.301   .     A
N1110  O1111   1.301   .     A
