data_str_m3_o2_o10_pcu_sym.80
_audit_creation_date              2020-01-03
_audit_creation_method            'Materials Studio'
_symmetry_space_group_name_H-M    'P1'
_symmetry_Int_Tables_number       1
_symmetry_cell_setting            triclinic
loop_
_symmetry_equiv_pos_as_xyz
  x,y,z
_cell_length_a                    25.8151
_cell_length_b                    29.7992
_cell_length_c                    28.3424
_cell_angle_alpha                 89.7851
_cell_angle_beta                  97.8119
_cell_angle_gamma                 90.0578
loop_
_atom_site_label
_atom_site_type_symbol
_atom_site_fract_x
_atom_site_fract_y
_atom_site_fract_z
_atom_site_U_iso_or_equiv
_atom_site_adp_type
_atom_site_occupancy
C1     C     0.16568   0.16375   0.24996   0.00000  Uiso   1.00
C2     C     0.12468   0.23167   0.44226   0.00000  Uiso   1.00
C3     C     0.16661   0.25003   0.02669   0.00000  Uiso   1.00
C4     C     0.16659   0.25005   0.47332   0.00000  Uiso   1.00
C5     C     0.06727   0.24880   0.23804   0.00000  Uiso   1.00
C6     C     0.26607   0.25116   0.26196   0.00000  Uiso   1.00
C7     C     0.01345   0.23961   0.23424   0.00000  Uiso   1.00
C8     C     0.31991   0.26029   0.26579   0.00000  Uiso   1.00
C9     C     0.12127   0.04978   0.28117   0.00000  Uiso   1.00
C10    C     0.12348   0.45044   0.20615   0.00000  Uiso   1.00
C11    C     0.13106   0.09567   0.28297   0.00000  Uiso   1.00
C12    C     0.16560   0.33628   0.24977   0.00000  Uiso   1.00
C13    C     0.13324   0.40456   0.20712   0.00000  Uiso   1.00
C14    C     0.15840   0.11590   0.24917   0.00000  Uiso   1.00
C15    C     0.15822   0.38417   0.24865   0.00000  Uiso   1.00
C16    C     0.17593   0.09073   0.21309   0.00000  Uiso   1.00
C17    C     0.17327   0.40924   0.28970   0.00000  Uiso   1.00
C18    C     0.16775   0.04500   0.21171   0.00000  Uiso   1.00
C19    C     0.16505   0.45498   0.28882   0.00000  Uiso   1.00
C20    C     0.14094   0.02434   0.24569   0.00000  Uiso   1.00
C21    C     0.14073   0.47576   0.24724   0.00000  Uiso   1.00
C22    C     0.32712   0.19990   0.20455   0.00000  Uiso   1.00
C23    C     0.14213   0.21551   0.04972   0.00000  Uiso   1.00
C24    C     0.00629   0.29997   0.29550   0.00000  Uiso   1.00
C25    C     0.04179   0.01375   0.29872   0.00000  Uiso   1.00
C26    C     0.04615   0.48691   0.16515   0.00000  Uiso   1.00
C27    C     0.20851   0.26845   0.45252   0.00000  Uiso   1.00
C28    C     0.14250   0.21621   0.09939   0.00000  Uiso   1.00
C29    C     0.20767   0.26822   0.40280   0.00000  Uiso   1.00
C30    C     0.19082   0.28378   0.10511   0.00000  Uiso   1.00
C31    C     0.12558   0.23187   0.39274   0.00000  Uiso   1.00
C32    C     0.19112   0.28452   0.05552   0.00000  Uiso   1.00
H33    H     0.11642   0.11567   0.31017   0.00000  Uiso   1.00
H34    H     0.24008   0.28257   0.38744   0.00000  Uiso   1.00
H35    H     0.20983   0.31046   0.12675   0.00000  Uiso   1.00
H36    H     0.09315   0.21757   0.36943   0.00000  Uiso   1.00
H37    H     0.20984   0.31237   0.03998   0.00000  Uiso   1.00
H38    H     0.09093   0.21773   0.45588   0.00000  Uiso   1.00
H39    H     0.29237   0.18181   0.21131   0.00000  Uiso   1.00
H40    H     0.04090   0.31819   0.28857   0.00000  Uiso   1.00
H41    H     0.09494   0.04769   0.34713   0.00000  Uiso   1.00
H42    H     0.02338   0.49965   0.32875   0.00000  Uiso   1.00
H43    H     0.04310   0.48673   0.27213   0.00000  Uiso   1.00
H44    H     0.12050   0.38471   0.17569   0.00000  Uiso   1.00
H45    H     0.01733   0.04198   0.28256   0.00000  Uiso   1.00
H46    H     0.10160   0.45269   0.13297   0.00000  Uiso   1.00
H47    H     0.02995   0.00110   0.12994   0.00000  Uiso   1.00
H48    H     0.04598   0.01392   0.19190   0.00000  Uiso   1.00
H49    H     0.02066   0.45882   0.17384   0.00000  Uiso   1.00
H50    H     0.19699   0.10628   0.18676   0.00000  Uiso   1.00
H51    H     0.19250   0.39365   0.32201   0.00000  Uiso   1.00
H52    H     0.18401   0.02544   0.18510   0.00000  Uiso   1.00
H53    H     0.17946   0.47445   0.32009   0.00000  Uiso   1.00
H54    H     0.12339   0.18769   0.02974   0.00000  Uiso   1.00
H55    H     0.24224   0.28241   0.47441   0.00000  Uiso   1.00
H56    H     0.12349   0.18952   0.11652   0.00000  Uiso   1.00
N57    N     0.16667   0.24999   0.12623   0.00000  Uiso   1.00
N58    N     0.16667   0.25001   0.37376   0.00000  Uiso   1.00
N59    N     0.09394   0.02939   0.31618   0.00000  Uiso   1.00
N60    N     0.09877   0.47097   0.16337   0.00000  Uiso   1.00
O61    O     0.16667   0.18453   0.28974   0.00000  Uiso   1.00
O62    O     0.31649   0.31343   0.32753   0.00000  Uiso   1.00
O63    O     0.16666   0.31546   0.21026   0.00000  Uiso   1.00
O64    O     0.16667   0.18453   0.21026   0.00000  Uiso   1.00
O65    O     0.16666   0.31547   0.28974   0.00000  Uiso   1.00
O66    O     0.09058   0.25000   0.28044   0.00000  Uiso   1.00
O67    O     0.24275   0.25000   0.21955   0.00000  Uiso   1.00
O68    O     0.09058   0.24999   0.20096   0.00000  Uiso   1.00
O69    O     0.24275   0.25000   0.29903   0.00000  Uiso   1.00
O70    O     0.01716   0.18626   0.17275   0.00000  Uiso   1.00
Zn71   Zn    0.16667   0.25000   0.30307   0.00000  Uiso   1.00
Zn72   Zn    0.16667   0.24999   0.19693   0.00000  Uiso   1.00
C73    C     0.49901   0.16375   0.24996   0.00000  Uiso   1.00
C74    C     0.45802   0.23167   0.44226   0.00000  Uiso   1.00
C75    C     0.49994   0.25003   0.02669   0.00000  Uiso   1.00
C76    C     0.49993   0.25005   0.47332   0.00000  Uiso   1.00
C77    C     0.40061   0.24880   0.23804   0.00000  Uiso   1.00
C78    C     0.59940   0.25116   0.26196   0.00000  Uiso   1.00
C79    C     0.34679   0.23961   0.23424   0.00000  Uiso   1.00
C80    C     0.65324   0.26029   0.26579   0.00000  Uiso   1.00
C81    C     0.45460   0.04978   0.28117   0.00000  Uiso   1.00
C82    C     0.45681   0.45044   0.20615   0.00000  Uiso   1.00
C83    C     0.46439   0.09567   0.28297   0.00000  Uiso   1.00
C84    C     0.49893   0.33628   0.24977   0.00000  Uiso   1.00
C85    C     0.46658   0.40456   0.20712   0.00000  Uiso   1.00
C86    C     0.49174   0.11590   0.24917   0.00000  Uiso   1.00
C87    C     0.49155   0.38417   0.24865   0.00000  Uiso   1.00
C88    C     0.50926   0.09073   0.21309   0.00000  Uiso   1.00
C89    C     0.50661   0.40924   0.28970   0.00000  Uiso   1.00
C90    C     0.50109   0.04500   0.21171   0.00000  Uiso   1.00
C91    C     0.49838   0.45498   0.28882   0.00000  Uiso   1.00
C92    C     0.47427   0.02434   0.24569   0.00000  Uiso   1.00
C93    C     0.47406   0.47576   0.24724   0.00000  Uiso   1.00
C94    C     0.66045   0.19990   0.20455   0.00000  Uiso   1.00
C95    C     0.47546   0.21551   0.04972   0.00000  Uiso   1.00
C96    C     0.33963   0.29997   0.29550   0.00000  Uiso   1.00
C97    C     0.37512   0.01375   0.29872   0.00000  Uiso   1.00
C98    C     0.37949   0.48691   0.16515   0.00000  Uiso   1.00
C99    C     0.54185   0.26845   0.45252   0.00000  Uiso   1.00
C100   C     0.47583   0.21621   0.09939   0.00000  Uiso   1.00
C101   C     0.54101   0.26822   0.40280   0.00000  Uiso   1.00
C102   C     0.52415   0.28378   0.10511   0.00000  Uiso   1.00
C103   C     0.45891   0.23187   0.39274   0.00000  Uiso   1.00
C104   C     0.52445   0.28452   0.05552   0.00000  Uiso   1.00
H105   H     0.44975   0.11567   0.31017   0.00000  Uiso   1.00
H106   H     0.57342   0.28257   0.38744   0.00000  Uiso   1.00
H107   H     0.54316   0.31046   0.12675   0.00000  Uiso   1.00
H108   H     0.42649   0.21757   0.36943   0.00000  Uiso   1.00
H109   H     0.54317   0.31237   0.03998   0.00000  Uiso   1.00
H110   H     0.42426   0.21773   0.45588   0.00000  Uiso   1.00
H111   H     0.62570   0.18181   0.21131   0.00000  Uiso   1.00
H112   H     0.37424   0.31819   0.28857   0.00000  Uiso   1.00
H113   H     0.42828   0.04769   0.34713   0.00000  Uiso   1.00
H114   H     0.35672   0.49965   0.32875   0.00000  Uiso   1.00
H115   H     0.37643   0.48673   0.27213   0.00000  Uiso   1.00
H116   H     0.45383   0.38471   0.17569   0.00000  Uiso   1.00
H117   H     0.35066   0.04198   0.28256   0.00000  Uiso   1.00
H118   H     0.43493   0.45269   0.13297   0.00000  Uiso   1.00
H119   H     0.36329   0.00110   0.12994   0.00000  Uiso   1.00
H120   H     0.37931   0.01392   0.19190   0.00000  Uiso   1.00
H121   H     0.35400   0.45882   0.17384   0.00000  Uiso   1.00
H122   H     0.53033   0.10628   0.18676   0.00000  Uiso   1.00
H123   H     0.52583   0.39365   0.32201   0.00000  Uiso   1.00
H124   H     0.51734   0.02544   0.18510   0.00000  Uiso   1.00
H125   H     0.51280   0.47445   0.32009   0.00000  Uiso   1.00
H126   H     0.45672   0.18769   0.02974   0.00000  Uiso   1.00
H127   H     0.57557   0.28241   0.47441   0.00000  Uiso   1.00
H128   H     0.45682   0.18952   0.11652   0.00000  Uiso   1.00
N129   N     0.50000   0.24999   0.12623   0.00000  Uiso   1.00
N130   N     0.50000   0.25001   0.37376   0.00000  Uiso   1.00
N131   N     0.42727   0.02939   0.31618   0.00000  Uiso   1.00
N132   N     0.43211   0.47097   0.16337   0.00000  Uiso   1.00
O133   O     0.50000   0.18453   0.28974   0.00000  Uiso   1.00
O134   O     0.64983   0.31343   0.32753   0.00000  Uiso   1.00
O135   O     0.50000   0.31546   0.21026   0.00000  Uiso   1.00
O136   O     0.50000   0.18453   0.21026   0.00000  Uiso   1.00
O137   O     0.50000   0.31547   0.28974   0.00000  Uiso   1.00
O138   O     0.42392   0.25000   0.28044   0.00000  Uiso   1.00
O139   O     0.57608   0.25000   0.21955   0.00000  Uiso   1.00
O140   O     0.42392   0.24999   0.20096   0.00000  Uiso   1.00
O141   O     0.57608   0.25000   0.29903   0.00000  Uiso   1.00
O142   O     0.35049   0.18626   0.17275   0.00000  Uiso   1.00
Zn143  Zn    0.50000   0.25000   0.30307   0.00000  Uiso   1.00
Zn144  Zn    0.50000   0.24999   0.19693   0.00000  Uiso   1.00
C145   C     0.83235   0.16375   0.24996   0.00000  Uiso   1.00
C146   C     0.79135   0.23167   0.44226   0.00000  Uiso   1.00
C147   C     0.83327   0.25003   0.02669   0.00000  Uiso   1.00
C148   C     0.83326   0.25005   0.47332   0.00000  Uiso   1.00
C149   C     0.73394   0.24880   0.23804   0.00000  Uiso   1.00
C150   C     0.93273   0.25116   0.26196   0.00000  Uiso   1.00
C151   C     0.68012   0.23961   0.23424   0.00000  Uiso   1.00
C152   C     0.98658   0.26029   0.26579   0.00000  Uiso   1.00
C153   C     0.78793   0.04978   0.28117   0.00000  Uiso   1.00
C154   C     0.79014   0.45044   0.20615   0.00000  Uiso   1.00
C155   C     0.79772   0.09567   0.28297   0.00000  Uiso   1.00
C156   C     0.83226   0.33628   0.24977   0.00000  Uiso   1.00
C157   C     0.79991   0.40456   0.20712   0.00000  Uiso   1.00
C158   C     0.82507   0.11590   0.24917   0.00000  Uiso   1.00
C159   C     0.82488   0.38417   0.24865   0.00000  Uiso   1.00
C160   C     0.84259   0.09073   0.21309   0.00000  Uiso   1.00
C161   C     0.83994   0.40924   0.28970   0.00000  Uiso   1.00
C162   C     0.83442   0.04500   0.21171   0.00000  Uiso   1.00
C163   C     0.83172   0.45498   0.28882   0.00000  Uiso   1.00
C164   C     0.80760   0.02434   0.24569   0.00000  Uiso   1.00
C165   C     0.80739   0.47576   0.24724   0.00000  Uiso   1.00
C166   C     0.99379   0.19990   0.20455   0.00000  Uiso   1.00
C167   C     0.80879   0.21551   0.04972   0.00000  Uiso   1.00
C168   C     0.67296   0.29997   0.29550   0.00000  Uiso   1.00
C169   C     0.70846   0.01375   0.29872   0.00000  Uiso   1.00
C170   C     0.71282   0.48691   0.16515   0.00000  Uiso   1.00
C171   C     0.87518   0.26845   0.45252   0.00000  Uiso   1.00
C172   C     0.80916   0.21621   0.09939   0.00000  Uiso   1.00
C173   C     0.87434   0.26822   0.40280   0.00000  Uiso   1.00
C174   C     0.85748   0.28378   0.10511   0.00000  Uiso   1.00
C175   C     0.79225   0.23187   0.39274   0.00000  Uiso   1.00
C176   C     0.85779   0.28452   0.05552   0.00000  Uiso   1.00
H177   H     0.78308   0.11567   0.31017   0.00000  Uiso   1.00
H178   H     0.90675   0.28257   0.38744   0.00000  Uiso   1.00
H179   H     0.87650   0.31046   0.12675   0.00000  Uiso   1.00
H180   H     0.75982   0.21757   0.36943   0.00000  Uiso   1.00
H181   H     0.87651   0.31237   0.03998   0.00000  Uiso   1.00
H182   H     0.75760   0.21773   0.45588   0.00000  Uiso   1.00
H183   H     0.95903   0.18181   0.21131   0.00000  Uiso   1.00
H184   H     0.70757   0.31819   0.28857   0.00000  Uiso   1.00
H185   H     0.76161   0.04769   0.34713   0.00000  Uiso   1.00
H186   H     0.69005   0.49965   0.32875   0.00000  Uiso   1.00
H187   H     0.70976   0.48673   0.27213   0.00000  Uiso   1.00
H188   H     0.78716   0.38471   0.17569   0.00000  Uiso   1.00
H189   H     0.68400   0.04198   0.28256   0.00000  Uiso   1.00
H190   H     0.76826   0.45269   0.13297   0.00000  Uiso   1.00
H191   H     0.69662   0.00110   0.12994   0.00000  Uiso   1.00
H192   H     0.71265   0.01392   0.19190   0.00000  Uiso   1.00
H193   H     0.68733   0.45882   0.17384   0.00000  Uiso   1.00
H194   H     0.86366   0.10628   0.18676   0.00000  Uiso   1.00
H195   H     0.85917   0.39365   0.32201   0.00000  Uiso   1.00
H196   H     0.85068   0.02544   0.18510   0.00000  Uiso   1.00
H197   H     0.84613   0.47445   0.32009   0.00000  Uiso   1.00
H198   H     0.79005   0.18769   0.02974   0.00000  Uiso   1.00
H199   H     0.90891   0.28241   0.47441   0.00000  Uiso   1.00
H200   H     0.79016   0.18952   0.11652   0.00000  Uiso   1.00
N201   N     0.83333   0.24999   0.12623   0.00000  Uiso   1.00
N202   N     0.83333   0.25001   0.37376   0.00000  Uiso   1.00
N203   N     0.76060   0.02939   0.31618   0.00000  Uiso   1.00
N204   N     0.76544   0.47097   0.16337   0.00000  Uiso   1.00
O205   O     0.83334   0.18453   0.28974   0.00000  Uiso   1.00
O206   O     0.98316   0.31343   0.32753   0.00000  Uiso   1.00
O207   O     0.83333   0.31546   0.21026   0.00000  Uiso   1.00
O208   O     0.83334   0.18453   0.21026   0.00000  Uiso   1.00
O209   O     0.83333   0.31547   0.28974   0.00000  Uiso   1.00
O210   O     0.75725   0.25000   0.28044   0.00000  Uiso   1.00
O211   O     0.90942   0.25000   0.21955   0.00000  Uiso   1.00
O212   O     0.75725   0.24999   0.20096   0.00000  Uiso   1.00
O213   O     0.90942   0.25000   0.29903   0.00000  Uiso   1.00
O214   O     0.68382   0.18626   0.17275   0.00000  Uiso   1.00
Zn215  Zn    0.83333   0.25000   0.30307   0.00000  Uiso   1.00
Zn216  Zn    0.83333   0.24999   0.19693   0.00000  Uiso   1.00
C217   C     0.16568   0.66375   0.24996   0.00000  Uiso   1.00
C218   C     0.12468   0.73167   0.44226   0.00000  Uiso   1.00
C219   C     0.16661   0.75003   0.02669   0.00000  Uiso   1.00
C220   C     0.16659   0.75005   0.47332   0.00000  Uiso   1.00
C221   C     0.06727   0.74880   0.23804   0.00000  Uiso   1.00
C222   C     0.26607   0.75116   0.26196   0.00000  Uiso   1.00
C223   C     0.01345   0.73961   0.23424   0.00000  Uiso   1.00
C224   C     0.31991   0.76029   0.26579   0.00000  Uiso   1.00
C225   C     0.12127   0.54978   0.28117   0.00000  Uiso   1.00
C226   C     0.12348   0.95044   0.20615   0.00000  Uiso   1.00
C227   C     0.13106   0.59567   0.28297   0.00000  Uiso   1.00
C228   C     0.16560   0.83628   0.24977   0.00000  Uiso   1.00
C229   C     0.13324   0.90456   0.20712   0.00000  Uiso   1.00
C230   C     0.15840   0.61590   0.24917   0.00000  Uiso   1.00
C231   C     0.15822   0.88417   0.24865   0.00000  Uiso   1.00
C232   C     0.17593   0.59073   0.21309   0.00000  Uiso   1.00
C233   C     0.17327   0.90924   0.28970   0.00000  Uiso   1.00
C234   C     0.16775   0.54500   0.21171   0.00000  Uiso   1.00
C235   C     0.16505   0.95498   0.28882   0.00000  Uiso   1.00
C236   C     0.14094   0.52434   0.24569   0.00000  Uiso   1.00
C237   C     0.14073   0.97576   0.24724   0.00000  Uiso   1.00
C238   C     0.32712   0.69990   0.20455   0.00000  Uiso   1.00
C239   C     0.14213   0.71551   0.04972   0.00000  Uiso   1.00
C240   C     0.00629   0.79997   0.29550   0.00000  Uiso   1.00
C241   C     0.04179   0.51375   0.29872   0.00000  Uiso   1.00
C242   C     0.04615   0.98691   0.16515   0.00000  Uiso   1.00
C243   C     0.20851   0.76845   0.45252   0.00000  Uiso   1.00
C244   C     0.14250   0.71621   0.09939   0.00000  Uiso   1.00
C245   C     0.20767   0.76822   0.40280   0.00000  Uiso   1.00
C246   C     0.19082   0.78378   0.10511   0.00000  Uiso   1.00
C247   C     0.12558   0.73187   0.39274   0.00000  Uiso   1.00
C248   C     0.19112   0.78452   0.05552   0.00000  Uiso   1.00
H249   H     0.11642   0.61567   0.31017   0.00000  Uiso   1.00
H250   H     0.24008   0.78257   0.38744   0.00000  Uiso   1.00
H251   H     0.20983   0.81046   0.12675   0.00000  Uiso   1.00
H252   H     0.09315   0.71757   0.36943   0.00000  Uiso   1.00
H253   H     0.20984   0.81237   0.03998   0.00000  Uiso   1.00
H254   H     0.09093   0.71773   0.45588   0.00000  Uiso   1.00
H255   H     0.29237   0.68181   0.21131   0.00000  Uiso   1.00
H256   H     0.04090   0.81819   0.28857   0.00000  Uiso   1.00
H257   H     0.09494   0.54769   0.34713   0.00000  Uiso   1.00
H258   H     0.02338   0.99965   0.32875   0.00000  Uiso   1.00
H259   H     0.04310   0.98673   0.27213   0.00000  Uiso   1.00
H260   H     0.12050   0.88471   0.17569   0.00000  Uiso   1.00
H261   H     0.01733   0.54198   0.28256   0.00000  Uiso   1.00
H262   H     0.10160   0.95269   0.13297   0.00000  Uiso   1.00
H263   H     0.02995   0.50110   0.12994   0.00000  Uiso   1.00
H264   H     0.04598   0.51392   0.19190   0.00000  Uiso   1.00
H265   H     0.02066   0.95882   0.17384   0.00000  Uiso   1.00
H266   H     0.19699   0.60628   0.18676   0.00000  Uiso   1.00
H267   H     0.19250   0.89365   0.32201   0.00000  Uiso   1.00
H268   H     0.18401   0.52544   0.18510   0.00000  Uiso   1.00
H269   H     0.17946   0.97445   0.32009   0.00000  Uiso   1.00
H270   H     0.12339   0.68769   0.02974   0.00000  Uiso   1.00
H271   H     0.24224   0.78241   0.47441   0.00000  Uiso   1.00
H272   H     0.12349   0.68952   0.11652   0.00000  Uiso   1.00
N273   N     0.16667   0.74999   0.12623   0.00000  Uiso   1.00
N274   N     0.16667   0.75001   0.37376   0.00000  Uiso   1.00
N275   N     0.09394   0.52939   0.31618   0.00000  Uiso   1.00
N276   N     0.09877   0.97097   0.16337   0.00000  Uiso   1.00
O277   O     0.16667   0.68453   0.28974   0.00000  Uiso   1.00
O278   O     0.31649   0.81343   0.32753   0.00000  Uiso   1.00
O279   O     0.16666   0.81546   0.21026   0.00000  Uiso   1.00
O280   O     0.16667   0.68453   0.21026   0.00000  Uiso   1.00
O281   O     0.16666   0.81547   0.28974   0.00000  Uiso   1.00
O282   O     0.09058   0.75000   0.28044   0.00000  Uiso   1.00
O283   O     0.24275   0.75000   0.21955   0.00000  Uiso   1.00
O284   O     0.09058   0.74999   0.20096   0.00000  Uiso   1.00
O285   O     0.24275   0.75000   0.29903   0.00000  Uiso   1.00
O286   O     0.01716   0.68626   0.17275   0.00000  Uiso   1.00
Zn287  Zn    0.16667   0.75000   0.30307   0.00000  Uiso   1.00
Zn288  Zn    0.16667   0.74999   0.19693   0.00000  Uiso   1.00
C289   C     0.49901   0.66375   0.24996   0.00000  Uiso   1.00
C290   C     0.45802   0.73167   0.44226   0.00000  Uiso   1.00
C291   C     0.49994   0.75003   0.02669   0.00000  Uiso   1.00
C292   C     0.49993   0.75005   0.47332   0.00000  Uiso   1.00
C293   C     0.40061   0.74880   0.23804   0.00000  Uiso   1.00
C294   C     0.59940   0.75116   0.26196   0.00000  Uiso   1.00
C295   C     0.34679   0.73961   0.23424   0.00000  Uiso   1.00
C296   C     0.65324   0.76029   0.26579   0.00000  Uiso   1.00
C297   C     0.45460   0.54978   0.28117   0.00000  Uiso   1.00
C298   C     0.45681   0.95044   0.20615   0.00000  Uiso   1.00
C299   C     0.46439   0.59567   0.28297   0.00000  Uiso   1.00
C300   C     0.49893   0.83628   0.24977   0.00000  Uiso   1.00
C301   C     0.46658   0.90456   0.20712   0.00000  Uiso   1.00
C302   C     0.49174   0.61590   0.24917   0.00000  Uiso   1.00
C303   C     0.49155   0.88417   0.24865   0.00000  Uiso   1.00
C304   C     0.50926   0.59073   0.21309   0.00000  Uiso   1.00
C305   C     0.50661   0.90924   0.28970   0.00000  Uiso   1.00
C306   C     0.50109   0.54500   0.21171   0.00000  Uiso   1.00
C307   C     0.49838   0.95498   0.28882   0.00000  Uiso   1.00
C308   C     0.47427   0.52434   0.24569   0.00000  Uiso   1.00
C309   C     0.47406   0.97576   0.24724   0.00000  Uiso   1.00
C310   C     0.66045   0.69990   0.20455   0.00000  Uiso   1.00
C311   C     0.47546   0.71551   0.04972   0.00000  Uiso   1.00
C312   C     0.33963   0.79997   0.29550   0.00000  Uiso   1.00
C313   C     0.37512   0.51375   0.29872   0.00000  Uiso   1.00
C314   C     0.37949   0.98691   0.16515   0.00000  Uiso   1.00
C315   C     0.54185   0.76845   0.45252   0.00000  Uiso   1.00
C316   C     0.47583   0.71621   0.09939   0.00000  Uiso   1.00
C317   C     0.54101   0.76822   0.40280   0.00000  Uiso   1.00
C318   C     0.52415   0.78378   0.10511   0.00000  Uiso   1.00
C319   C     0.45891   0.73187   0.39274   0.00000  Uiso   1.00
C320   C     0.52445   0.78452   0.05552   0.00000  Uiso   1.00
H321   H     0.44975   0.61567   0.31017   0.00000  Uiso   1.00
H322   H     0.57342   0.78257   0.38744   0.00000  Uiso   1.00
H323   H     0.54316   0.81046   0.12675   0.00000  Uiso   1.00
H324   H     0.42649   0.71757   0.36943   0.00000  Uiso   1.00
H325   H     0.54317   0.81237   0.03998   0.00000  Uiso   1.00
H326   H     0.42426   0.71773   0.45588   0.00000  Uiso   1.00
H327   H     0.62570   0.68181   0.21131   0.00000  Uiso   1.00
H328   H     0.37424   0.81819   0.28857   0.00000  Uiso   1.00
H329   H     0.42828   0.54769   0.34713   0.00000  Uiso   1.00
H330   H     0.35672   0.99965   0.32875   0.00000  Uiso   1.00
H331   H     0.37643   0.98673   0.27213   0.00000  Uiso   1.00
H332   H     0.45383   0.88471   0.17569   0.00000  Uiso   1.00
H333   H     0.35066   0.54198   0.28256   0.00000  Uiso   1.00
H334   H     0.43493   0.95269   0.13297   0.00000  Uiso   1.00
H335   H     0.36329   0.50110   0.12994   0.00000  Uiso   1.00
H336   H     0.37931   0.51392   0.19190   0.00000  Uiso   1.00
H337   H     0.35400   0.95882   0.17384   0.00000  Uiso   1.00
H338   H     0.53033   0.60628   0.18676   0.00000  Uiso   1.00
H339   H     0.52583   0.89365   0.32201   0.00000  Uiso   1.00
H340   H     0.51734   0.52544   0.18510   0.00000  Uiso   1.00
H341   H     0.51280   0.97445   0.32009   0.00000  Uiso   1.00
H342   H     0.45672   0.68769   0.02974   0.00000  Uiso   1.00
H343   H     0.57557   0.78241   0.47441   0.00000  Uiso   1.00
H344   H     0.45682   0.68952   0.11652   0.00000  Uiso   1.00
N345   N     0.50000   0.74999   0.12623   0.00000  Uiso   1.00
N346   N     0.50000   0.75001   0.37376   0.00000  Uiso   1.00
N347   N     0.42727   0.52939   0.31618   0.00000  Uiso   1.00
N348   N     0.43211   0.97097   0.16337   0.00000  Uiso   1.00
O349   O     0.50000   0.68453   0.28974   0.00000  Uiso   1.00
O350   O     0.64983   0.81343   0.32753   0.00000  Uiso   1.00
O351   O     0.50000   0.81546   0.21026   0.00000  Uiso   1.00
O352   O     0.50000   0.68453   0.21026   0.00000  Uiso   1.00
O353   O     0.50000   0.81547   0.28974   0.00000  Uiso   1.00
O354   O     0.42392   0.75000   0.28044   0.00000  Uiso   1.00
O355   O     0.57608   0.75000   0.21955   0.00000  Uiso   1.00
O356   O     0.42392   0.74999   0.20096   0.00000  Uiso   1.00
O357   O     0.57608   0.75000   0.29903   0.00000  Uiso   1.00
O358   O     0.35049   0.68626   0.17275   0.00000  Uiso   1.00
Zn359  Zn    0.50000   0.75000   0.30307   0.00000  Uiso   1.00
Zn360  Zn    0.50000   0.74999   0.19693   0.00000  Uiso   1.00
C361   C     0.83235   0.66375   0.24996   0.00000  Uiso   1.00
C362   C     0.79135   0.73167   0.44226   0.00000  Uiso   1.00
C363   C     0.83327   0.75003   0.02669   0.00000  Uiso   1.00
C364   C     0.83326   0.75005   0.47332   0.00000  Uiso   1.00
C365   C     0.73394   0.74880   0.23804   0.00000  Uiso   1.00
C366   C     0.93273   0.75116   0.26196   0.00000  Uiso   1.00
C367   C     0.68012   0.73961   0.23424   0.00000  Uiso   1.00
C368   C     0.98658   0.76029   0.26579   0.00000  Uiso   1.00
C369   C     0.78793   0.54978   0.28117   0.00000  Uiso   1.00
C370   C     0.79014   0.95044   0.20615   0.00000  Uiso   1.00
C371   C     0.79772   0.59567   0.28297   0.00000  Uiso   1.00
C372   C     0.83226   0.83628   0.24977   0.00000  Uiso   1.00
C373   C     0.79991   0.90456   0.20712   0.00000  Uiso   1.00
C374   C     0.82507   0.61590   0.24917   0.00000  Uiso   1.00
C375   C     0.82488   0.88417   0.24865   0.00000  Uiso   1.00
C376   C     0.84259   0.59073   0.21309   0.00000  Uiso   1.00
C377   C     0.83994   0.90924   0.28970   0.00000  Uiso   1.00
C378   C     0.83442   0.54500   0.21171   0.00000  Uiso   1.00
C379   C     0.83172   0.95498   0.28882   0.00000  Uiso   1.00
C380   C     0.80760   0.52434   0.24569   0.00000  Uiso   1.00
C381   C     0.80739   0.97576   0.24724   0.00000  Uiso   1.00
C382   C     0.99379   0.69990   0.20455   0.00000  Uiso   1.00
C383   C     0.80879   0.71551   0.04972   0.00000  Uiso   1.00
C384   C     0.67296   0.79997   0.29550   0.00000  Uiso   1.00
C385   C     0.70846   0.51375   0.29872   0.00000  Uiso   1.00
C386   C     0.71282   0.98691   0.16515   0.00000  Uiso   1.00
C387   C     0.87518   0.76845   0.45252   0.00000  Uiso   1.00
C388   C     0.80916   0.71621   0.09939   0.00000  Uiso   1.00
C389   C     0.87434   0.76822   0.40280   0.00000  Uiso   1.00
C390   C     0.85748   0.78378   0.10511   0.00000  Uiso   1.00
C391   C     0.79225   0.73187   0.39274   0.00000  Uiso   1.00
C392   C     0.85779   0.78452   0.05552   0.00000  Uiso   1.00
H393   H     0.78308   0.61567   0.31017   0.00000  Uiso   1.00
H394   H     0.90675   0.78257   0.38744   0.00000  Uiso   1.00
H395   H     0.87650   0.81046   0.12675   0.00000  Uiso   1.00
H396   H     0.75982   0.71757   0.36943   0.00000  Uiso   1.00
H397   H     0.87651   0.81237   0.03998   0.00000  Uiso   1.00
H398   H     0.75760   0.71773   0.45588   0.00000  Uiso   1.00
H399   H     0.95903   0.68181   0.21131   0.00000  Uiso   1.00
H400   H     0.70757   0.81819   0.28857   0.00000  Uiso   1.00
H401   H     0.76161   0.54769   0.34713   0.00000  Uiso   1.00
H402   H     0.69005   0.99965   0.32875   0.00000  Uiso   1.00
H403   H     0.70976   0.98673   0.27213   0.00000  Uiso   1.00
H404   H     0.78716   0.88471   0.17569   0.00000  Uiso   1.00
H405   H     0.68400   0.54198   0.28256   0.00000  Uiso   1.00
H406   H     0.76826   0.95269   0.13297   0.00000  Uiso   1.00
H407   H     0.69662   0.50110   0.12994   0.00000  Uiso   1.00
H408   H     0.71265   0.51392   0.19190   0.00000  Uiso   1.00
H409   H     0.68733   0.95882   0.17384   0.00000  Uiso   1.00
H410   H     0.86366   0.60628   0.18676   0.00000  Uiso   1.00
H411   H     0.85917   0.89365   0.32201   0.00000  Uiso   1.00
H412   H     0.85068   0.52544   0.18510   0.00000  Uiso   1.00
H413   H     0.84613   0.97445   0.32009   0.00000  Uiso   1.00
H414   H     0.79005   0.68769   0.02974   0.00000  Uiso   1.00
H415   H     0.90891   0.78241   0.47441   0.00000  Uiso   1.00
H416   H     0.79016   0.68952   0.11652   0.00000  Uiso   1.00
N417   N     0.83333   0.74999   0.12623   0.00000  Uiso   1.00
N418   N     0.83333   0.75001   0.37376   0.00000  Uiso   1.00
N419   N     0.76060   0.52939   0.31618   0.00000  Uiso   1.00
N420   N     0.76544   0.97097   0.16337   0.00000  Uiso   1.00
O421   O     0.83334   0.68453   0.28974   0.00000  Uiso   1.00
O422   O     0.98316   0.81343   0.32753   0.00000  Uiso   1.00
O423   O     0.83333   0.81546   0.21026   0.00000  Uiso   1.00
O424   O     0.83334   0.68453   0.21026   0.00000  Uiso   1.00
O425   O     0.83333   0.81547   0.28974   0.00000  Uiso   1.00
O426   O     0.75725   0.75000   0.28044   0.00000  Uiso   1.00
O427   O     0.90942   0.75000   0.21955   0.00000  Uiso   1.00
O428   O     0.75725   0.74999   0.20096   0.00000  Uiso   1.00
O429   O     0.90942   0.75000   0.29903   0.00000  Uiso   1.00
O430   O     0.68382   0.68626   0.17275   0.00000  Uiso   1.00
Zn431  Zn    0.83333   0.75000   0.30307   0.00000  Uiso   1.00
Zn432  Zn    0.83333   0.74999   0.19693   0.00000  Uiso   1.00
C433   C     0.16568   0.16375   0.74996   0.00000  Uiso   1.00
C434   C     0.12468   0.23167   0.94226   0.00000  Uiso   1.00
C435   C     0.16661   0.25003   0.52669   0.00000  Uiso   1.00
C436   C     0.16659   0.25005   0.97332   0.00000  Uiso   1.00
C437   C     0.06727   0.24880   0.73804   0.00000  Uiso   1.00
C438   C     0.26607   0.25116   0.76196   0.00000  Uiso   1.00
C439   C     0.01345   0.23961   0.73424   0.00000  Uiso   1.00
C440   C     0.31991   0.26029   0.76579   0.00000  Uiso   1.00
C441   C     0.12127   0.04978   0.78117   0.00000  Uiso   1.00
C442   C     0.12348   0.45044   0.70615   0.00000  Uiso   1.00
C443   C     0.13106   0.09567   0.78297   0.00000  Uiso   1.00
C444   C     0.16560   0.33628   0.74977   0.00000  Uiso   1.00
C445   C     0.13324   0.40456   0.70712   0.00000  Uiso   1.00
C446   C     0.15840   0.11590   0.74917   0.00000  Uiso   1.00
C447   C     0.15822   0.38417   0.74865   0.00000  Uiso   1.00
C448   C     0.17593   0.09073   0.71309   0.00000  Uiso   1.00
C449   C     0.17327   0.40924   0.78970   0.00000  Uiso   1.00
C450   C     0.16775   0.04500   0.71171   0.00000  Uiso   1.00
C451   C     0.16505   0.45498   0.78882   0.00000  Uiso   1.00
C452   C     0.14094   0.02434   0.74569   0.00000  Uiso   1.00
C453   C     0.14073   0.47576   0.74724   0.00000  Uiso   1.00
C454   C     0.32712   0.19990   0.70455   0.00000  Uiso   1.00
C455   C     0.14213   0.21551   0.54972   0.00000  Uiso   1.00
C456   C     0.00629   0.29997   0.79550   0.00000  Uiso   1.00
C457   C     0.04179   0.01375   0.79872   0.00000  Uiso   1.00
C458   C     0.04615   0.48691   0.66515   0.00000  Uiso   1.00
C459   C     0.20851   0.26845   0.95252   0.00000  Uiso   1.00
C460   C     0.14250   0.21621   0.59939   0.00000  Uiso   1.00
C461   C     0.20767   0.26822   0.90280   0.00000  Uiso   1.00
C462   C     0.19082   0.28378   0.60511   0.00000  Uiso   1.00
C463   C     0.12558   0.23187   0.89274   0.00000  Uiso   1.00
C464   C     0.19112   0.28452   0.55552   0.00000  Uiso   1.00
H465   H     0.11642   0.11567   0.81017   0.00000  Uiso   1.00
H466   H     0.24008   0.28257   0.88744   0.00000  Uiso   1.00
H467   H     0.20983   0.31046   0.62675   0.00000  Uiso   1.00
H468   H     0.09315   0.21757   0.86943   0.00000  Uiso   1.00
H469   H     0.20984   0.31237   0.53998   0.00000  Uiso   1.00
H470   H     0.09093   0.21773   0.95588   0.00000  Uiso   1.00
H471   H     0.29237   0.18181   0.71131   0.00000  Uiso   1.00
H472   H     0.04090   0.31819   0.78857   0.00000  Uiso   1.00
H473   H     0.09494   0.04769   0.84713   0.00000  Uiso   1.00
H474   H     0.02338   0.49965   0.82875   0.00000  Uiso   1.00
H475   H     0.04310   0.48673   0.77213   0.00000  Uiso   1.00
H476   H     0.12050   0.38471   0.67569   0.00000  Uiso   1.00
H477   H     0.01733   0.04198   0.78256   0.00000  Uiso   1.00
H478   H     0.10160   0.45269   0.63297   0.00000  Uiso   1.00
H479   H     0.02995   0.00110   0.62994   0.00000  Uiso   1.00
H480   H     0.04598   0.01392   0.69190   0.00000  Uiso   1.00
H481   H     0.02066   0.45882   0.67384   0.00000  Uiso   1.00
H482   H     0.19699   0.10628   0.68676   0.00000  Uiso   1.00
H483   H     0.19250   0.39365   0.82201   0.00000  Uiso   1.00
H484   H     0.18401   0.02544   0.68510   0.00000  Uiso   1.00
H485   H     0.17946   0.47445   0.82009   0.00000  Uiso   1.00
H486   H     0.12339   0.18769   0.52974   0.00000  Uiso   1.00
H487   H     0.24224   0.28241   0.97441   0.00000  Uiso   1.00
H488   H     0.12349   0.18952   0.61652   0.00000  Uiso   1.00
N489   N     0.16667   0.24999   0.62623   0.00000  Uiso   1.00
N490   N     0.16667   0.25001   0.87376   0.00000  Uiso   1.00
N491   N     0.09394   0.02939   0.81618   0.00000  Uiso   1.00
N492   N     0.09877   0.47097   0.66337   0.00000  Uiso   1.00
O493   O     0.16667   0.18453   0.78974   0.00000  Uiso   1.00
O494   O     0.31649   0.31343   0.82753   0.00000  Uiso   1.00
O495   O     0.16666   0.31546   0.71026   0.00000  Uiso   1.00
O496   O     0.16667   0.18453   0.71026   0.00000  Uiso   1.00
O497   O     0.16666   0.31547   0.78974   0.00000  Uiso   1.00
O498   O     0.09058   0.25000   0.78044   0.00000  Uiso   1.00
O499   O     0.24275   0.25000   0.71955   0.00000  Uiso   1.00
O500   O     0.09058   0.24999   0.70096   0.00000  Uiso   1.00
O501   O     0.24275   0.25000   0.79903   0.00000  Uiso   1.00
O502   O     0.01716   0.18626   0.67275   0.00000  Uiso   1.00
Zn503  Zn    0.16667   0.25000   0.80307   0.00000  Uiso   1.00
Zn504  Zn    0.16667   0.24999   0.69693   0.00000  Uiso   1.00
C505   C     0.49901   0.16375   0.74996   0.00000  Uiso   1.00
C506   C     0.45802   0.23167   0.94226   0.00000  Uiso   1.00
C507   C     0.49994   0.25003   0.52669   0.00000  Uiso   1.00
C508   C     0.49993   0.25005   0.97332   0.00000  Uiso   1.00
C509   C     0.40061   0.24880   0.73804   0.00000  Uiso   1.00
C510   C     0.59940   0.25116   0.76196   0.00000  Uiso   1.00
C511   C     0.34679   0.23961   0.73424   0.00000  Uiso   1.00
C512   C     0.65324   0.26029   0.76579   0.00000  Uiso   1.00
C513   C     0.45460   0.04978   0.78117   0.00000  Uiso   1.00
C514   C     0.45681   0.45044   0.70615   0.00000  Uiso   1.00
C515   C     0.46439   0.09567   0.78297   0.00000  Uiso   1.00
C516   C     0.49893   0.33628   0.74977   0.00000  Uiso   1.00
C517   C     0.46658   0.40456   0.70712   0.00000  Uiso   1.00
C518   C     0.49174   0.11590   0.74917   0.00000  Uiso   1.00
C519   C     0.49155   0.38417   0.74865   0.00000  Uiso   1.00
C520   C     0.50926   0.09073   0.71309   0.00000  Uiso   1.00
C521   C     0.50661   0.40924   0.78970   0.00000  Uiso   1.00
C522   C     0.50109   0.04500   0.71171   0.00000  Uiso   1.00
C523   C     0.49838   0.45498   0.78882   0.00000  Uiso   1.00
C524   C     0.47427   0.02434   0.74569   0.00000  Uiso   1.00
C525   C     0.47406   0.47576   0.74724   0.00000  Uiso   1.00
C526   C     0.66045   0.19990   0.70455   0.00000  Uiso   1.00
C527   C     0.47546   0.21551   0.54972   0.00000  Uiso   1.00
C528   C     0.33963   0.29997   0.79550   0.00000  Uiso   1.00
C529   C     0.37512   0.01375   0.79872   0.00000  Uiso   1.00
C530   C     0.37949   0.48691   0.66515   0.00000  Uiso   1.00
C531   C     0.54185   0.26845   0.95252   0.00000  Uiso   1.00
C532   C     0.47583   0.21621   0.59939   0.00000  Uiso   1.00
C533   C     0.54101   0.26822   0.90280   0.00000  Uiso   1.00
C534   C     0.52415   0.28378   0.60511   0.00000  Uiso   1.00
C535   C     0.45891   0.23187   0.89274   0.00000  Uiso   1.00
C536   C     0.52445   0.28452   0.55552   0.00000  Uiso   1.00
H537   H     0.44975   0.11567   0.81017   0.00000  Uiso   1.00
H538   H     0.57342   0.28257   0.88744   0.00000  Uiso   1.00
H539   H     0.54316   0.31046   0.62675   0.00000  Uiso   1.00
H540   H     0.42649   0.21757   0.86943   0.00000  Uiso   1.00
H541   H     0.54317   0.31237   0.53998   0.00000  Uiso   1.00
H542   H     0.42426   0.21773   0.95588   0.00000  Uiso   1.00
H543   H     0.62570   0.18181   0.71131   0.00000  Uiso   1.00
H544   H     0.37424   0.31819   0.78857   0.00000  Uiso   1.00
H545   H     0.42828   0.04769   0.84713   0.00000  Uiso   1.00
H546   H     0.35672   0.49965   0.82875   0.00000  Uiso   1.00
H547   H     0.37643   0.48673   0.77213   0.00000  Uiso   1.00
H548   H     0.45383   0.38471   0.67569   0.00000  Uiso   1.00
H549   H     0.35066   0.04198   0.78256   0.00000  Uiso   1.00
H550   H     0.43493   0.45269   0.63297   0.00000  Uiso   1.00
H551   H     0.36329   0.00110   0.62994   0.00000  Uiso   1.00
H552   H     0.37931   0.01392   0.69190   0.00000  Uiso   1.00
H553   H     0.35400   0.45882   0.67384   0.00000  Uiso   1.00
H554   H     0.53033   0.10628   0.68676   0.00000  Uiso   1.00
H555   H     0.52583   0.39365   0.82201   0.00000  Uiso   1.00
H556   H     0.51734   0.02544   0.68510   0.00000  Uiso   1.00
H557   H     0.51280   0.47445   0.82009   0.00000  Uiso   1.00
H558   H     0.45672   0.18769   0.52974   0.00000  Uiso   1.00
H559   H     0.57557   0.28241   0.97441   0.00000  Uiso   1.00
H560   H     0.45682   0.18952   0.61652   0.00000  Uiso   1.00
N561   N     0.50000   0.24999   0.62623   0.00000  Uiso   1.00
N562   N     0.50000   0.25001   0.87376   0.00000  Uiso   1.00
N563   N     0.42727   0.02939   0.81618   0.00000  Uiso   1.00
N564   N     0.43211   0.47097   0.66337   0.00000  Uiso   1.00
O565   O     0.50000   0.18453   0.78974   0.00000  Uiso   1.00
O566   O     0.64983   0.31343   0.82753   0.00000  Uiso   1.00
O567   O     0.50000   0.31546   0.71026   0.00000  Uiso   1.00
O568   O     0.50000   0.18453   0.71026   0.00000  Uiso   1.00
O569   O     0.50000   0.31547   0.78974   0.00000  Uiso   1.00
O570   O     0.42392   0.25000   0.78044   0.00000  Uiso   1.00
O571   O     0.57608   0.25000   0.71955   0.00000  Uiso   1.00
O572   O     0.42392   0.24999   0.70096   0.00000  Uiso   1.00
O573   O     0.57608   0.25000   0.79903   0.00000  Uiso   1.00
O574   O     0.35049   0.18626   0.67275   0.00000  Uiso   1.00
Zn575  Zn    0.50000   0.25000   0.80307   0.00000  Uiso   1.00
Zn576  Zn    0.50000   0.24999   0.69693   0.00000  Uiso   1.00
C577   C     0.83235   0.16375   0.74996   0.00000  Uiso   1.00
C578   C     0.79135   0.23167   0.94226   0.00000  Uiso   1.00
C579   C     0.83327   0.25003   0.52669   0.00000  Uiso   1.00
C580   C     0.83326   0.25005   0.97332   0.00000  Uiso   1.00
C581   C     0.73394   0.24880   0.73804   0.00000  Uiso   1.00
C582   C     0.93273   0.25116   0.76196   0.00000  Uiso   1.00
C583   C     0.68012   0.23961   0.73424   0.00000  Uiso   1.00
C584   C     0.98658   0.26029   0.76579   0.00000  Uiso   1.00
C585   C     0.78793   0.04978   0.78117   0.00000  Uiso   1.00
C586   C     0.79014   0.45044   0.70615   0.00000  Uiso   1.00
C587   C     0.79772   0.09567   0.78297   0.00000  Uiso   1.00
C588   C     0.83226   0.33628   0.74977   0.00000  Uiso   1.00
C589   C     0.79991   0.40456   0.70712   0.00000  Uiso   1.00
C590   C     0.82507   0.11590   0.74917   0.00000  Uiso   1.00
C591   C     0.82488   0.38417   0.74865   0.00000  Uiso   1.00
C592   C     0.84259   0.09073   0.71309   0.00000  Uiso   1.00
C593   C     0.83994   0.40924   0.78970   0.00000  Uiso   1.00
C594   C     0.83442   0.04500   0.71171   0.00000  Uiso   1.00
C595   C     0.83172   0.45498   0.78882   0.00000  Uiso   1.00
C596   C     0.80760   0.02434   0.74569   0.00000  Uiso   1.00
C597   C     0.80739   0.47576   0.74724   0.00000  Uiso   1.00
C598   C     0.99379   0.19990   0.70455   0.00000  Uiso   1.00
C599   C     0.80879   0.21551   0.54972   0.00000  Uiso   1.00
C600   C     0.67296   0.29997   0.79550   0.00000  Uiso   1.00
C601   C     0.70846   0.01375   0.79872   0.00000  Uiso   1.00
C602   C     0.71282   0.48691   0.66515   0.00000  Uiso   1.00
C603   C     0.87518   0.26845   0.95252   0.00000  Uiso   1.00
C604   C     0.80916   0.21621   0.59939   0.00000  Uiso   1.00
C605   C     0.87434   0.26822   0.90280   0.00000  Uiso   1.00
C606   C     0.85748   0.28378   0.60511   0.00000  Uiso   1.00
C607   C     0.79225   0.23187   0.89274   0.00000  Uiso   1.00
C608   C     0.85779   0.28452   0.55552   0.00000  Uiso   1.00
H609   H     0.78308   0.11567   0.81017   0.00000  Uiso   1.00
H610   H     0.90675   0.28257   0.88744   0.00000  Uiso   1.00
H611   H     0.87650   0.31046   0.62675   0.00000  Uiso   1.00
H612   H     0.75982   0.21757   0.86943   0.00000  Uiso   1.00
H613   H     0.87651   0.31237   0.53998   0.00000  Uiso   1.00
H614   H     0.75760   0.21773   0.95588   0.00000  Uiso   1.00
H615   H     0.95903   0.18181   0.71131   0.00000  Uiso   1.00
H616   H     0.70757   0.31819   0.78857   0.00000  Uiso   1.00
H617   H     0.76161   0.04769   0.84713   0.00000  Uiso   1.00
H618   H     0.69005   0.49965   0.82875   0.00000  Uiso   1.00
H619   H     0.70976   0.48673   0.77213   0.00000  Uiso   1.00
H620   H     0.78716   0.38471   0.67569   0.00000  Uiso   1.00
H621   H     0.68400   0.04198   0.78256   0.00000  Uiso   1.00
H622   H     0.76826   0.45269   0.63297   0.00000  Uiso   1.00
H623   H     0.69662   0.00110   0.62994   0.00000  Uiso   1.00
H624   H     0.71265   0.01392   0.69190   0.00000  Uiso   1.00
H625   H     0.68733   0.45882   0.67384   0.00000  Uiso   1.00
H626   H     0.86366   0.10628   0.68676   0.00000  Uiso   1.00
H627   H     0.85917   0.39365   0.82201   0.00000  Uiso   1.00
H628   H     0.85068   0.02544   0.68510   0.00000  Uiso   1.00
H629   H     0.84613   0.47445   0.82009   0.00000  Uiso   1.00
H630   H     0.79005   0.18769   0.52974   0.00000  Uiso   1.00
H631   H     0.90891   0.28241   0.97441   0.00000  Uiso   1.00
H632   H     0.79016   0.18952   0.61652   0.00000  Uiso   1.00
N633   N     0.83333   0.24999   0.62623   0.00000  Uiso   1.00
N634   N     0.83333   0.25001   0.87376   0.00000  Uiso   1.00
N635   N     0.76060   0.02939   0.81618   0.00000  Uiso   1.00
N636   N     0.76544   0.47097   0.66337   0.00000  Uiso   1.00
O637   O     0.83334   0.18453   0.78974   0.00000  Uiso   1.00
O638   O     0.98316   0.31343   0.82753   0.00000  Uiso   1.00
O639   O     0.83333   0.31546   0.71026   0.00000  Uiso   1.00
O640   O     0.83334   0.18453   0.71026   0.00000  Uiso   1.00
O641   O     0.83333   0.31547   0.78974   0.00000  Uiso   1.00
O642   O     0.75725   0.25000   0.78044   0.00000  Uiso   1.00
O643   O     0.90942   0.25000   0.71955   0.00000  Uiso   1.00
O644   O     0.75725   0.24999   0.70096   0.00000  Uiso   1.00
O645   O     0.90942   0.25000   0.79903   0.00000  Uiso   1.00
O646   O     0.68382   0.18626   0.67275   0.00000  Uiso   1.00
Zn647  Zn    0.83333   0.25000   0.80307   0.00000  Uiso   1.00
Zn648  Zn    0.83333   0.24999   0.69693   0.00000  Uiso   1.00
C649   C     0.16568   0.66375   0.74996   0.00000  Uiso   1.00
C650   C     0.12468   0.73167   0.94226   0.00000  Uiso   1.00
C651   C     0.16661   0.75003   0.52669   0.00000  Uiso   1.00
C652   C     0.16659   0.75005   0.97332   0.00000  Uiso   1.00
C653   C     0.06727   0.74880   0.73804   0.00000  Uiso   1.00
C654   C     0.26607   0.75116   0.76196   0.00000  Uiso   1.00
C655   C     0.01345   0.73961   0.73424   0.00000  Uiso   1.00
C656   C     0.31991   0.76029   0.76579   0.00000  Uiso   1.00
C657   C     0.12127   0.54978   0.78117   0.00000  Uiso   1.00
C658   C     0.12348   0.95044   0.70615   0.00000  Uiso   1.00
C659   C     0.13106   0.59567   0.78297   0.00000  Uiso   1.00
C660   C     0.16560   0.83628   0.74977   0.00000  Uiso   1.00
C661   C     0.13324   0.90456   0.70712   0.00000  Uiso   1.00
C662   C     0.15840   0.61590   0.74917   0.00000  Uiso   1.00
C663   C     0.15822   0.88417   0.74865   0.00000  Uiso   1.00
C664   C     0.17593   0.59073   0.71309   0.00000  Uiso   1.00
C665   C     0.17327   0.90924   0.78970   0.00000  Uiso   1.00
C666   C     0.16775   0.54500   0.71171   0.00000  Uiso   1.00
C667   C     0.16505   0.95498   0.78882   0.00000  Uiso   1.00
C668   C     0.14094   0.52434   0.74569   0.00000  Uiso   1.00
C669   C     0.14073   0.97576   0.74724   0.00000  Uiso   1.00
C670   C     0.32712   0.69990   0.70455   0.00000  Uiso   1.00
C671   C     0.14213   0.71551   0.54972   0.00000  Uiso   1.00
C672   C     0.00629   0.79997   0.79550   0.00000  Uiso   1.00
C673   C     0.04179   0.51375   0.79872   0.00000  Uiso   1.00
C674   C     0.04615   0.98691   0.66515   0.00000  Uiso   1.00
C675   C     0.20851   0.76845   0.95252   0.00000  Uiso   1.00
C676   C     0.14250   0.71621   0.59939   0.00000  Uiso   1.00
C677   C     0.20767   0.76822   0.90280   0.00000  Uiso   1.00
C678   C     0.19082   0.78378   0.60511   0.00000  Uiso   1.00
C679   C     0.12558   0.73187   0.89274   0.00000  Uiso   1.00
C680   C     0.19112   0.78452   0.55552   0.00000  Uiso   1.00
H681   H     0.11642   0.61567   0.81017   0.00000  Uiso   1.00
H682   H     0.24008   0.78257   0.88744   0.00000  Uiso   1.00
H683   H     0.20983   0.81046   0.62675   0.00000  Uiso   1.00
H684   H     0.09315   0.71757   0.86943   0.00000  Uiso   1.00
H685   H     0.20984   0.81237   0.53998   0.00000  Uiso   1.00
H686   H     0.09093   0.71773   0.95588   0.00000  Uiso   1.00
H687   H     0.29237   0.68181   0.71131   0.00000  Uiso   1.00
H688   H     0.04090   0.81819   0.78857   0.00000  Uiso   1.00
H689   H     0.09494   0.54769   0.84713   0.00000  Uiso   1.00
H690   H     0.02338   0.99965   0.82875   0.00000  Uiso   1.00
H691   H     0.04310   0.98673   0.77213   0.00000  Uiso   1.00
H692   H     0.12050   0.88471   0.67569   0.00000  Uiso   1.00
H693   H     0.01733   0.54198   0.78256   0.00000  Uiso   1.00
H694   H     0.10160   0.95269   0.63297   0.00000  Uiso   1.00
H695   H     0.02995   0.50110   0.62994   0.00000  Uiso   1.00
H696   H     0.04598   0.51392   0.69190   0.00000  Uiso   1.00
H697   H     0.02066   0.95882   0.67384   0.00000  Uiso   1.00
H698   H     0.19699   0.60628   0.68676   0.00000  Uiso   1.00
H699   H     0.19250   0.89365   0.82201   0.00000  Uiso   1.00
H700   H     0.18401   0.52544   0.68510   0.00000  Uiso   1.00
H701   H     0.17946   0.97445   0.82009   0.00000  Uiso   1.00
H702   H     0.12339   0.68769   0.52974   0.00000  Uiso   1.00
H703   H     0.24224   0.78241   0.97441   0.00000  Uiso   1.00
H704   H     0.12349   0.68952   0.61652   0.00000  Uiso   1.00
N705   N     0.16667   0.74999   0.62623   0.00000  Uiso   1.00
N706   N     0.16667   0.75001   0.87376   0.00000  Uiso   1.00
N707   N     0.09394   0.52939   0.81618   0.00000  Uiso   1.00
N708   N     0.09877   0.97097   0.66337   0.00000  Uiso   1.00
O709   O     0.16667   0.68453   0.78974   0.00000  Uiso   1.00
O710   O     0.31649   0.81343   0.82753   0.00000  Uiso   1.00
O711   O     0.16666   0.81546   0.71026   0.00000  Uiso   1.00
O712   O     0.16667   0.68453   0.71026   0.00000  Uiso   1.00
O713   O     0.16666   0.81547   0.78974   0.00000  Uiso   1.00
O714   O     0.09058   0.75000   0.78044   0.00000  Uiso   1.00
O715   O     0.24275   0.75000   0.71955   0.00000  Uiso   1.00
O716   O     0.09058   0.74999   0.70096   0.00000  Uiso   1.00
O717   O     0.24275   0.75000   0.79903   0.00000  Uiso   1.00
O718   O     0.01716   0.68626   0.67275   0.00000  Uiso   1.00
Zn719  Zn    0.16667   0.75000   0.80307   0.00000  Uiso   1.00
Zn720  Zn    0.16667   0.74999   0.69693   0.00000  Uiso   1.00
C721   C     0.49901   0.66375   0.74996   0.00000  Uiso   1.00
C722   C     0.45802   0.73167   0.94226   0.00000  Uiso   1.00
C723   C     0.49994   0.75003   0.52669   0.00000  Uiso   1.00
C724   C     0.49993   0.75005   0.97332   0.00000  Uiso   1.00
C725   C     0.40061   0.74880   0.73804   0.00000  Uiso   1.00
C726   C     0.59940   0.75116   0.76196   0.00000  Uiso   1.00
C727   C     0.34679   0.73961   0.73424   0.00000  Uiso   1.00
C728   C     0.65324   0.76029   0.76579   0.00000  Uiso   1.00
C729   C     0.45460   0.54978   0.78117   0.00000  Uiso   1.00
C730   C     0.45681   0.95044   0.70615   0.00000  Uiso   1.00
C731   C     0.46439   0.59567   0.78297   0.00000  Uiso   1.00
C732   C     0.49893   0.83628   0.74977   0.00000  Uiso   1.00
C733   C     0.46658   0.90456   0.70712   0.00000  Uiso   1.00
C734   C     0.49174   0.61590   0.74917   0.00000  Uiso   1.00
C735   C     0.49155   0.88417   0.74865   0.00000  Uiso   1.00
C736   C     0.50926   0.59073   0.71309   0.00000  Uiso   1.00
C737   C     0.50661   0.90924   0.78970   0.00000  Uiso   1.00
C738   C     0.50109   0.54500   0.71171   0.00000  Uiso   1.00
C739   C     0.49838   0.95498   0.78882   0.00000  Uiso   1.00
C740   C     0.47427   0.52434   0.74569   0.00000  Uiso   1.00
C741   C     0.47406   0.97576   0.74724   0.00000  Uiso   1.00
C742   C     0.66045   0.69990   0.70455   0.00000  Uiso   1.00
C743   C     0.47546   0.71551   0.54972   0.00000  Uiso   1.00
C744   C     0.33963   0.79997   0.79550   0.00000  Uiso   1.00
C745   C     0.37512   0.51375   0.79872   0.00000  Uiso   1.00
C746   C     0.37949   0.98691   0.66515   0.00000  Uiso   1.00
C747   C     0.54185   0.76845   0.95252   0.00000  Uiso   1.00
C748   C     0.47583   0.71621   0.59939   0.00000  Uiso   1.00
C749   C     0.54101   0.76822   0.90280   0.00000  Uiso   1.00
C750   C     0.52415   0.78378   0.60511   0.00000  Uiso   1.00
C751   C     0.45891   0.73187   0.89274   0.00000  Uiso   1.00
C752   C     0.52445   0.78452   0.55552   0.00000  Uiso   1.00
H753   H     0.44975   0.61567   0.81017   0.00000  Uiso   1.00
H754   H     0.57342   0.78257   0.88744   0.00000  Uiso   1.00
H755   H     0.54316   0.81046   0.62675   0.00000  Uiso   1.00
H756   H     0.42649   0.71757   0.86943   0.00000  Uiso   1.00
H757   H     0.54317   0.81237   0.53998   0.00000  Uiso   1.00
H758   H     0.42426   0.71773   0.95588   0.00000  Uiso   1.00
H759   H     0.62570   0.68181   0.71131   0.00000  Uiso   1.00
H760   H     0.37424   0.81819   0.78857   0.00000  Uiso   1.00
H761   H     0.42828   0.54769   0.84713   0.00000  Uiso   1.00
H762   H     0.35672   0.99965   0.82875   0.00000  Uiso   1.00
H763   H     0.37643   0.98673   0.77213   0.00000  Uiso   1.00
H764   H     0.45383   0.88471   0.67569   0.00000  Uiso   1.00
H765   H     0.35066   0.54198   0.78256   0.00000  Uiso   1.00
H766   H     0.43493   0.95269   0.63297   0.00000  Uiso   1.00
H767   H     0.36329   0.50110   0.62994   0.00000  Uiso   1.00
H768   H     0.37931   0.51392   0.69190   0.00000  Uiso   1.00
H769   H     0.35400   0.95882   0.67384   0.00000  Uiso   1.00
H770   H     0.53033   0.60628   0.68676   0.00000  Uiso   1.00
H771   H     0.52583   0.89365   0.82201   0.00000  Uiso   1.00
H772   H     0.51734   0.52544   0.68510   0.00000  Uiso   1.00
H773   H     0.51280   0.97445   0.82009   0.00000  Uiso   1.00
H774   H     0.45672   0.68769   0.52974   0.00000  Uiso   1.00
H775   H     0.57557   0.78241   0.97441   0.00000  Uiso   1.00
H776   H     0.45682   0.68952   0.61652   0.00000  Uiso   1.00
N777   N     0.50000   0.74999   0.62623   0.00000  Uiso   1.00
N778   N     0.50000   0.75001   0.87376   0.00000  Uiso   1.00
N779   N     0.42727   0.52939   0.81618   0.00000  Uiso   1.00
N780   N     0.43211   0.97097   0.66337   0.00000  Uiso   1.00
O781   O     0.50000   0.68453   0.78974   0.00000  Uiso   1.00
O782   O     0.64983   0.81343   0.82753   0.00000  Uiso   1.00
O783   O     0.50000   0.81546   0.71026   0.00000  Uiso   1.00
O784   O     0.50000   0.68453   0.71026   0.00000  Uiso   1.00
O785   O     0.50000   0.81547   0.78974   0.00000  Uiso   1.00
O786   O     0.42392   0.75000   0.78044   0.00000  Uiso   1.00
O787   O     0.57608   0.75000   0.71955   0.00000  Uiso   1.00
O788   O     0.42392   0.74999   0.70096   0.00000  Uiso   1.00
O789   O     0.57608   0.75000   0.79903   0.00000  Uiso   1.00
O790   O     0.35049   0.68626   0.67275   0.00000  Uiso   1.00
Zn791  Zn    0.50000   0.75000   0.80307   0.00000  Uiso   1.00
Zn792  Zn    0.50000   0.74999   0.69693   0.00000  Uiso   1.00
C793   C     0.83235   0.66375   0.74996   0.00000  Uiso   1.00
C794   C     0.79135   0.73167   0.94226   0.00000  Uiso   1.00
C795   C     0.83327   0.75003   0.52669   0.00000  Uiso   1.00
C796   C     0.83326   0.75005   0.97332   0.00000  Uiso   1.00
C797   C     0.73394   0.74880   0.73804   0.00000  Uiso   1.00
C798   C     0.93273   0.75116   0.76196   0.00000  Uiso   1.00
C799   C     0.68012   0.73961   0.73424   0.00000  Uiso   1.00
C800   C     0.98658   0.76029   0.76579   0.00000  Uiso   1.00
C801   C     0.78793   0.54978   0.78117   0.00000  Uiso   1.00
C802   C     0.79014   0.95044   0.70615   0.00000  Uiso   1.00
C803   C     0.79772   0.59567   0.78297   0.00000  Uiso   1.00
C804   C     0.83226   0.83628   0.74977   0.00000  Uiso   1.00
C805   C     0.79991   0.90456   0.70712   0.00000  Uiso   1.00
C806   C     0.82507   0.61590   0.74917   0.00000  Uiso   1.00
C807   C     0.82488   0.88417   0.74865   0.00000  Uiso   1.00
C808   C     0.84259   0.59073   0.71309   0.00000  Uiso   1.00
C809   C     0.83994   0.90924   0.78970   0.00000  Uiso   1.00
C810   C     0.83442   0.54500   0.71171   0.00000  Uiso   1.00
C811   C     0.83172   0.95498   0.78882   0.00000  Uiso   1.00
C812   C     0.80760   0.52434   0.74569   0.00000  Uiso   1.00
C813   C     0.80739   0.97576   0.74724   0.00000  Uiso   1.00
C814   C     0.99379   0.69990   0.70455   0.00000  Uiso   1.00
C815   C     0.80879   0.71551   0.54972   0.00000  Uiso   1.00
C816   C     0.67296   0.79997   0.79550   0.00000  Uiso   1.00
C817   C     0.70846   0.51375   0.79872   0.00000  Uiso   1.00
C818   C     0.71282   0.98691   0.66515   0.00000  Uiso   1.00
C819   C     0.87518   0.76845   0.95252   0.00000  Uiso   1.00
C820   C     0.80916   0.71621   0.59939   0.00000  Uiso   1.00
C821   C     0.87434   0.76822   0.90280   0.00000  Uiso   1.00
C822   C     0.85748   0.78378   0.60511   0.00000  Uiso   1.00
C823   C     0.79225   0.73187   0.89274   0.00000  Uiso   1.00
C824   C     0.85779   0.78452   0.55552   0.00000  Uiso   1.00
H825   H     0.78308   0.61567   0.81017   0.00000  Uiso   1.00
H826   H     0.90675   0.78257   0.88744   0.00000  Uiso   1.00
H827   H     0.87650   0.81046   0.62675   0.00000  Uiso   1.00
H828   H     0.75982   0.71757   0.86943   0.00000  Uiso   1.00
H829   H     0.87651   0.81237   0.53998   0.00000  Uiso   1.00
H830   H     0.75760   0.71773   0.95588   0.00000  Uiso   1.00
H831   H     0.95903   0.68181   0.71131   0.00000  Uiso   1.00
H832   H     0.70757   0.81819   0.78857   0.00000  Uiso   1.00
H833   H     0.76161   0.54769   0.84713   0.00000  Uiso   1.00
H834   H     0.69005   0.99965   0.82875   0.00000  Uiso   1.00
H835   H     0.70976   0.98673   0.77213   0.00000  Uiso   1.00
H836   H     0.78716   0.88471   0.67569   0.00000  Uiso   1.00
H837   H     0.68400   0.54198   0.78256   0.00000  Uiso   1.00
H838   H     0.76826   0.95269   0.63297   0.00000  Uiso   1.00
H839   H     0.69662   0.50110   0.62994   0.00000  Uiso   1.00
H840   H     0.71265   0.51392   0.69190   0.00000  Uiso   1.00
H841   H     0.68733   0.95882   0.67384   0.00000  Uiso   1.00
H842   H     0.86366   0.60628   0.68676   0.00000  Uiso   1.00
H843   H     0.85917   0.89365   0.82201   0.00000  Uiso   1.00
H844   H     0.85068   0.52544   0.68510   0.00000  Uiso   1.00
H845   H     0.84613   0.97445   0.82009   0.00000  Uiso   1.00
H846   H     0.79005   0.68769   0.52974   0.00000  Uiso   1.00
H847   H     0.90891   0.78241   0.97441   0.00000  Uiso   1.00
H848   H     0.79016   0.68952   0.61652   0.00000  Uiso   1.00
N849   N     0.83333   0.74999   0.62623   0.00000  Uiso   1.00
N850   N     0.83333   0.75001   0.87376   0.00000  Uiso   1.00
N851   N     0.76060   0.52939   0.81618   0.00000  Uiso   1.00
N852   N     0.76544   0.97097   0.66337   0.00000  Uiso   1.00
O853   O     0.83334   0.68453   0.78974   0.00000  Uiso   1.00
O854   O     0.98316   0.81343   0.82753   0.00000  Uiso   1.00
O855   O     0.83333   0.81546   0.71026   0.00000  Uiso   1.00
O856   O     0.83334   0.68453   0.71026   0.00000  Uiso   1.00
O857   O     0.83333   0.81547   0.78974   0.00000  Uiso   1.00
O858   O     0.75725   0.75000   0.78044   0.00000  Uiso   1.00
O859   O     0.90942   0.75000   0.71955   0.00000  Uiso   1.00
O860   O     0.75725   0.74999   0.70096   0.00000  Uiso   1.00
O861   O     0.90942   0.75000   0.79903   0.00000  Uiso   1.00
O862   O     0.68382   0.68626   0.67275   0.00000  Uiso   1.00
Zn863  Zn    0.83333   0.75000   0.80307   0.00000  Uiso   1.00
Zn864  Zn    0.83333   0.74999   0.69693   0.00000  Uiso   1.00
loop_
_geom_bond_atom_site_label_1
_geom_bond_atom_site_label_2
_geom_bond_distance
_geom_bond_site_symmetry_2
_ccdc_geom_bond_type
C1     O64     1.286   .     A
C1     C14     1.438   .     S
C1     O61     1.286   .     A
C2     C4      1.410   .     A
C2     H38     1.082   .     S
C2     C31     1.407   .     A
C3     C32     1.410   .     A
C3     C23     1.410   .     A
C3     C436    1.512   1_554 S
C4     C27     1.410   .     A
C4     C435    1.512   .     S
C5     C7      1.406   .     S
C5     O66     1.269   .     A
C5     O68     1.280   .     A
C6     O69     1.280   .     A
C6     O67     1.270   .     A
C6     C8      1.406   .     S
C7     C152    1.354   1_455 S
C7     C166    1.502   1_455 S
C8     C79     1.354   .     S
C8     C96     1.502   .     S
C9     C20     1.410   .     A
C9     C11     1.390   .     A
C9     N59     1.427   .     S
C10    N60     1.427   .     S
C10    C21     1.410   .     A
C10    C13     1.390   .     A
C11    C14     1.399   .     A
C11    H33     1.084   .     S
C12    O65     1.286   .     A
C12    C15     1.440   .     S
C12    O63     1.286   .     A
C13    C15     1.400   .     A
C13    H44     1.084   .     S
C14    C16     1.394   .     A
C15    C17     1.395   .     A
C16    H50     1.084   .     S
C16    C18     1.379   .     A
C17    H51     1.084   .     S
C17    C19     1.379   .     A
C18    H52     1.084   .     S
C18    C20     1.401   .     A
C19    C21     1.400   .     A
C19    H53     1.084   .     S
C20    C237    1.448   1_545 S
C21    C236    1.448   .     S
C22    H39     1.085   .     S
C22    C79     1.502   .     S
C22    O142    1.221   .     S
C23    H54     1.082   .     S
C23    C28     1.407   .     A
C24    H40     1.085   .     S
C24    C152    1.502   1_455 S
C24    O206    1.221   1_455 S
C25    H45     1.112   .     S
C25    N59     1.447   .     S
C25    H258    1.111   1_545 S
C25    H259    1.108   1_545 S
C26    N60     1.447   .     S
C26    H49     1.112   .     S
C26    H263    1.110   .     S
C26    H264    1.108   .     S
C27    C29     1.407   .     A
C27    H55     1.082   .     S
C28    H56     1.082   .     S
C28    N57     1.363   .     A
C29    N58     1.363   .     A
C29    H34     1.081   .     S
C30    C32     1.407   .     A
C30    H35     1.082   .     S
C30    N57     1.363   .     A
C31    N58     1.363   .     A
C31    H36     1.082   .     S
C32    H37     1.082   .     S
H41    N59     1.032   .     S
H42    C241    1.111   .     S
H43    C241    1.108   .     S
H46    N60     1.032   .     S
H47    C242    1.110   1_545 S
H48    C242    1.108   1_545 S
N57    Zn72    2.004   .     S
N58    Zn71    2.004   .     S
O61    Zn71    1.989   .     S
O62    C96     1.221   .     S
O63    Zn72    1.989   .     S
O64    Zn72    1.986   .     S
O65    Zn71    1.986   .     S
O66    Zn71    1.982   .     S
O67    Zn72    1.982   .     S
O68    Zn72    1.983   .     S
O69    Zn71    1.983   .     S
O70    C166    1.221   1_455 S
C73    O136    1.286   .     A
C73    C86     1.438   .     S
C73    O133    1.286   .     A
C74    C76     1.410   .     A
C74    H110    1.082   .     S
C74    C103    1.407   .     A
C75    C104    1.410   .     A
C75    C95     1.410   .     A
C75    C508    1.512   1_554 S
C76    C99     1.410   .     A
C76    C507    1.512   .     S
C77    C79     1.406   .     S
C77    O138    1.269   .     A
C77    O140    1.280   .     A
C78    O141    1.280   .     A
C78    O139    1.270   .     A
C78    C80     1.406   .     S
C80    C151    1.354   .     S
C80    C168    1.502   .     S
C81    C92     1.410   .     A
C81    C83     1.390   .     A
C81    N131    1.427   .     S
C82    N132    1.427   .     S
C82    C93     1.410   .     A
C82    C85     1.390   .     A
C83    C86     1.399   .     A
C83    H105    1.084   .     S
C84    O137    1.286   .     A
C84    C87     1.440   .     S
C84    O135    1.286   .     A
C85    C87     1.400   .     A
C85    H116    1.084   .     S
C86    C88     1.394   .     A
C87    C89     1.395   .     A
C88    H122    1.084   .     S
C88    C90     1.379   .     A
C89    H123    1.084   .     S
C89    C91     1.379   .     A
C90    H124    1.084   .     S
C90    C92     1.401   .     A
C91    C93     1.400   .     A
C91    H125    1.084   .     S
C92    C309    1.448   1_545 S
C93    C308    1.448   .     S
C94    H111    1.085   .     S
C94    C151    1.502   .     S
C94    O214    1.221   .     S
C95    H126    1.082   .     S
C95    C100    1.407   .     A
C96    H112    1.085   .     S
C97    H117    1.112   .     S
C97    N131    1.447   .     S
C97    H330    1.111   1_545 S
C97    H331    1.108   1_545 S
C98    N132    1.447   .     S
C98    H121    1.112   .     S
C98    H335    1.110   .     S
C98    H336    1.108   .     S
C99    C101    1.407   .     A
C99    H127    1.082   .     S
C100   H128    1.082   .     S
C100   N129    1.363   .     A
C101   N130    1.363   .     A
C101   H106    1.081   .     S
C102   C104    1.407   .     A
C102   H107    1.082   .     S
C102   N129    1.363   .     A
C103   N130    1.363   .     A
C103   H108    1.082   .     S
C104   H109    1.082   .     S
H113   N131    1.032   .     S
H114   C313    1.111   .     S
H115   C313    1.108   .     S
H118   N132    1.032   .     S
H119   C314    1.110   1_545 S
H120   C314    1.108   1_545 S
N129   Zn144   2.004   .     S
N130   Zn143   2.004   .     S
O133   Zn143   1.989   .     S
O134   C168    1.221   .     S
O135   Zn144   1.989   .     S
O136   Zn144   1.986   .     S
O137   Zn143   1.986   .     S
O138   Zn143   1.982   .     S
O139   Zn144   1.982   .     S
O140   Zn144   1.983   .     S
O141   Zn143   1.983   .     S
C145   O208    1.286   .     A
C145   C158    1.438   .     S
C145   O205    1.286   .     A
C146   C148    1.410   .     A
C146   H182    1.082   .     S
C146   C175    1.407   .     A
C147   C176    1.410   .     A
C147   C167    1.410   .     A
C147   C580    1.512   1_554 S
C148   C171    1.410   .     A
C148   C579    1.512   .     S
C149   C151    1.406   .     S
C149   O210    1.269   .     A
C149   O212    1.280   .     A
C150   O213    1.280   .     A
C150   O211    1.270   .     A
C150   C152    1.406   .     S
C152   C7      1.354   1_655 S
C152   C24     1.502   1_655 S
C153   C164    1.410   .     A
C153   C155    1.390   .     A
C153   N203    1.427   .     S
C154   N204    1.427   .     S
C154   C165    1.410   .     A
C154   C157    1.390   .     A
C155   C158    1.399   .     A
C155   H177    1.084   .     S
C156   O209    1.286   .     A
C156   C159    1.440   .     S
C156   O207    1.286   .     A
C157   C159    1.400   .     A
C157   H188    1.084   .     S
C158   C160    1.394   .     A
C159   C161    1.395   .     A
C160   H194    1.084   .     S
C160   C162    1.379   .     A
C161   H195    1.084   .     S
C161   C163    1.379   .     A
C162   H196    1.084   .     S
C162   C164    1.401   .     A
C163   C165    1.400   .     A
C163   H197    1.084   .     S
C164   C381    1.448   1_545 S
C165   C380    1.448   .     S
C166   H183    1.085   .     S
C166   C7      1.502   1_655 S
C166   O70     1.221   1_655 S
C167   H198    1.082   .     S
C167   C172    1.407   .     A
C168   H184    1.085   .     S
C169   H189    1.112   .     S
C169   N203    1.447   .     S
C169   H402    1.111   1_545 S
C169   H403    1.108   1_545 S
C170   N204    1.447   .     S
C170   H193    1.112   .     S
C170   H407    1.110   .     S
C170   H408    1.108   .     S
C171   C173    1.407   .     A
C171   H199    1.082   .     S
C172   H200    1.082   .     S
C172   N201    1.363   .     A
C173   N202    1.363   .     A
C173   H178    1.081   .     S
C174   C176    1.407   .     A
C174   H179    1.082   .     S
C174   N201    1.363   .     A
C175   N202    1.363   .     A
C175   H180    1.082   .     S
C176   H181    1.082   .     S
H185   N203    1.032   .     S
H186   C385    1.111   .     S
H187   C385    1.108   .     S
H190   N204    1.032   .     S
H191   C386    1.110   1_545 S
H192   C386    1.108   1_545 S
N201   Zn216   2.004   .     S
N202   Zn215   2.004   .     S
O205   Zn215   1.989   .     S
O206   C24     1.221   1_655 S
O207   Zn216   1.989   .     S
O208   Zn216   1.986   .     S
O209   Zn215   1.986   .     S
O210   Zn215   1.982   .     S
O211   Zn216   1.982   .     S
O212   Zn216   1.983   .     S
O213   Zn215   1.983   .     S
C217   O280    1.286   .     A
C217   C230    1.438   .     S
C217   O277    1.286   .     A
C218   C220    1.410   .     A
C218   H254    1.082   .     S
C218   C247    1.407   .     A
C219   C248    1.410   .     A
C219   C239    1.410   .     A
C219   C652    1.512   1_554 S
C220   C243    1.410   .     A
C220   C651    1.512   .     S
C221   C223    1.406   .     S
C221   O282    1.269   .     A
C221   O284    1.280   .     A
C222   O285    1.280   .     A
C222   O283    1.270   .     A
C222   C224    1.406   .     S
C223   C368    1.354   1_455 S
C223   C382    1.502   1_455 S
C224   C295    1.354   .     S
C224   C312    1.502   .     S
C225   C236    1.410   .     A
C225   C227    1.390   .     A
C225   N275    1.427   .     S
C226   N276    1.427   .     S
C226   C237    1.410   .     A
C226   C229    1.390   .     A
C227   C230    1.399   .     A
C227   H249    1.084   .     S
C228   O281    1.286   .     A
C228   C231    1.440   .     S
C228   O279    1.286   .     A
C229   C231    1.400   .     A
C229   H260    1.084   .     S
C230   C232    1.394   .     A
C231   C233    1.395   .     A
C232   H266    1.084   .     S
C232   C234    1.379   .     A
C233   H267    1.084   .     S
C233   C235    1.379   .     A
C234   H268    1.084   .     S
C234   C236    1.401   .     A
C235   C237    1.400   .     A
C235   H269    1.084   .     S
C237   C20     1.448   1_565 S
C238   H255    1.085   .     S
C238   C295    1.502   .     S
C238   O358    1.221   .     S
C239   H270    1.082   .     S
C239   C244    1.407   .     A
C240   H256    1.085   .     S
C240   C368    1.502   1_455 S
C240   O422    1.221   1_455 S
C241   H261    1.112   .     S
C241   N275    1.447   .     S
C242   N276    1.447   .     S
C242   H265    1.112   .     S
C242   H47     1.110   1_565 S
C242   H48     1.108   1_565 S
C243   C245    1.407   .     A
C243   H271    1.082   .     S
C244   H272    1.082   .     S
C244   N273    1.363   .     A
C245   N274    1.363   .     A
C245   H250    1.081   .     S
C246   C248    1.407   .     A
C246   H251    1.082   .     S
C246   N273    1.363   .     A
C247   N274    1.363   .     A
C247   H252    1.082   .     S
C248   H253    1.082   .     S
H257   N275    1.032   .     S
H258   C25     1.111   1_565 S
H259   C25     1.108   1_565 S
H262   N276    1.032   .     S
N273   Zn288   2.004   .     S
N274   Zn287   2.004   .     S
O277   Zn287   1.989   .     S
O278   C312    1.221   .     S
O279   Zn288   1.989   .     S
O280   Zn288   1.986   .     S
O281   Zn287   1.986   .     S
O282   Zn287   1.982   .     S
O283   Zn288   1.982   .     S
O284   Zn288   1.983   .     S
O285   Zn287   1.983   .     S
O286   C382    1.221   1_455 S
C289   O352    1.286   .     A
C289   C302    1.438   .     S
C289   O349    1.286   .     A
C290   C292    1.410   .     A
C290   H326    1.082   .     S
C290   C319    1.407   .     A
C291   C320    1.410   .     A
C291   C311    1.410   .     A
C291   C724    1.512   1_554 S
C292   C315    1.410   .     A
C292   C723    1.512   .     S
C293   C295    1.406   .     S
C293   O354    1.269   .     A
C293   O356    1.280   .     A
C294   O357    1.280   .     A
C294   O355    1.270   .     A
C294   C296    1.406   .     S
C296   C367    1.354   .     S
C296   C384    1.502   .     S
C297   C308    1.410   .     A
C297   C299    1.390   .     A
C297   N347    1.427   .     S
C298   N348    1.427   .     S
C298   C309    1.410   .     A
C298   C301    1.390   .     A
C299   C302    1.399   .     A
C299   H321    1.084   .     S
C300   O353    1.286   .     A
C300   C303    1.440   .     S
C300   O351    1.286   .     A
C301   C303    1.400   .     A
C301   H332    1.084   .     S
C302   C304    1.394   .     A
C303   C305    1.395   .     A
C304   H338    1.084   .     S
C304   C306    1.379   .     A
C305   H339    1.084   .     S
C305   C307    1.379   .     A
C306   H340    1.084   .     S
C306   C308    1.401   .     A
C307   C309    1.400   .     A
C307   H341    1.084   .     S
C309   C92     1.448   1_565 S
C310   H327    1.085   .     S
C310   C367    1.502   .     S
C310   O430    1.221   .     S
C311   H342    1.082   .     S
C311   C316    1.407   .     A
C312   H328    1.085   .     S
C313   H333    1.112   .     S
C313   N347    1.447   .     S
C314   N348    1.447   .     S
C314   H337    1.112   .     S
C314   H119    1.110   1_565 S
C314   H120    1.108   1_565 S
C315   C317    1.407   .     A
C315   H343    1.082   .     S
C316   H344    1.082   .     S
C316   N345    1.363   .     A
C317   N346    1.363   .     A
C317   H322    1.081   .     S
C318   C320    1.407   .     A
C318   H323    1.082   .     S
C318   N345    1.363   .     A
C319   N346    1.363   .     A
C319   H324    1.082   .     S
C320   H325    1.082   .     S
H329   N347    1.032   .     S
H330   C97     1.111   1_565 S
H331   C97     1.108   1_565 S
H334   N348    1.032   .     S
N345   Zn360   2.004   .     S
N346   Zn359   2.004   .     S
O349   Zn359   1.989   .     S
O350   C384    1.221   .     S
O351   Zn360   1.989   .     S
O352   Zn360   1.986   .     S
O353   Zn359   1.986   .     S
O354   Zn359   1.982   .     S
O355   Zn360   1.982   .     S
O356   Zn360   1.983   .     S
O357   Zn359   1.983   .     S
C361   O424    1.286   .     A
C361   C374    1.438   .     S
C361   O421    1.286   .     A
C362   C364    1.410   .     A
C362   H398    1.082   .     S
C362   C391    1.407   .     A
C363   C392    1.410   .     A
C363   C383    1.410   .     A
C363   C796    1.512   1_554 S
C364   C387    1.410   .     A
C364   C795    1.512   .     S
C365   C367    1.406   .     S
C365   O426    1.269   .     A
C365   O428    1.280   .     A
C366   O429    1.280   .     A
C366   O427    1.270   .     A
C366   C368    1.406   .     S
C368   C223    1.354   1_655 S
C368   C240    1.502   1_655 S
C369   C380    1.410   .     A
C369   C371    1.390   .     A
C369   N419    1.427   .     S
C370   N420    1.427   .     S
C370   C381    1.410   .     A
C370   C373    1.390   .     A
C371   C374    1.399   .     A
C371   H393    1.084   .     S
C372   O425    1.286   .     A
C372   C375    1.440   .     S
C372   O423    1.286   .     A
C373   C375    1.400   .     A
C373   H404    1.084   .     S
C374   C376    1.394   .     A
C375   C377    1.395   .     A
C376   H410    1.084   .     S
C376   C378    1.379   .     A
C377   H411    1.084   .     S
C377   C379    1.379   .     A
C378   H412    1.084   .     S
C378   C380    1.401   .     A
C379   C381    1.400   .     A
C379   H413    1.084   .     S
C381   C164    1.448   1_565 S
C382   H399    1.085   .     S
C382   C223    1.502   1_655 S
C382   O286    1.221   1_655 S
C383   H414    1.082   .     S
C383   C388    1.407   .     A
C384   H400    1.085   .     S
C385   H405    1.112   .     S
C385   N419    1.447   .     S
C386   N420    1.447   .     S
C386   H409    1.112   .     S
C386   H191    1.110   1_565 S
C386   H192    1.108   1_565 S
C387   C389    1.407   .     A
C387   H415    1.082   .     S
C388   H416    1.082   .     S
C388   N417    1.363   .     A
C389   N418    1.363   .     A
C389   H394    1.081   .     S
C390   C392    1.407   .     A
C390   H395    1.082   .     S
C390   N417    1.363   .     A
C391   N418    1.363   .     A
C391   H396    1.082   .     S
C392   H397    1.082   .     S
H401   N419    1.032   .     S
H402   C169    1.111   1_565 S
H403   C169    1.108   1_565 S
H406   N420    1.032   .     S
N417   Zn432   2.004   .     S
N418   Zn431   2.004   .     S
O421   Zn431   1.989   .     S
O422   C240    1.221   1_655 S
O423   Zn432   1.989   .     S
O424   Zn432   1.986   .     S
O425   Zn431   1.986   .     S
O426   Zn431   1.982   .     S
O427   Zn432   1.982   .     S
O428   Zn432   1.983   .     S
O429   Zn431   1.983   .     S
C433   O496    1.286   .     A
C433   C446    1.438   .     S
C433   O493    1.286   .     A
C434   C436    1.410   .     A
C434   H470    1.082   .     S
C434   C463    1.407   .     A
C435   C464    1.410   .     A
C435   C455    1.410   .     A
C436   C459    1.410   .     A
C436   C3      1.512   1_556 S
C437   C439    1.406   .     S
C437   O498    1.269   .     A
C437   O500    1.280   .     A
C438   O501    1.280   .     A
C438   O499    1.270   .     A
C438   C440    1.406   .     S
C439   C584    1.354   1_455 S
C439   C598    1.502   1_455 S
C440   C511    1.354   .     S
C440   C528    1.502   .     S
C441   C452    1.410   .     A
C441   C443    1.390   .     A
C441   N491    1.427   .     S
C442   N492    1.427   .     S
C442   C453    1.410   .     A
C442   C445    1.390   .     A
C443   C446    1.399   .     A
C443   H465    1.084   .     S
C444   O497    1.286   .     A
C444   C447    1.440   .     S
C444   O495    1.286   .     A
C445   C447    1.400   .     A
C445   H476    1.084   .     S
C446   C448    1.394   .     A
C447   C449    1.395   .     A
C448   H482    1.084   .     S
C448   C450    1.379   .     A
C449   H483    1.084   .     S
C449   C451    1.379   .     A
C450   H484    1.084   .     S
C450   C452    1.401   .     A
C451   C453    1.400   .     A
C451   H485    1.084   .     S
C452   C669    1.448   1_545 S
C453   C668    1.448   .     S
C454   H471    1.085   .     S
C454   C511    1.502   .     S
C454   O574    1.221   .     S
C455   H486    1.082   .     S
C455   C460    1.407   .     A
C456   H472    1.085   .     S
C456   C584    1.502   1_455 S
C456   O638    1.221   1_455 S
C457   H477    1.112   .     S
C457   N491    1.447   .     S
C457   H690    1.111   1_545 S
C457   H691    1.108   1_545 S
C458   N492    1.447   .     S
C458   H481    1.112   .     S
C458   H695    1.110   .     S
C458   H696    1.108   .     S
C459   C461    1.407   .     A
C459   H487    1.082   .     S
C460   H488    1.082   .     S
C460   N489    1.363   .     A
C461   N490    1.363   .     A
C461   H466    1.081   .     S
C462   C464    1.407   .     A
C462   H467    1.082   .     S
C462   N489    1.363   .     A
C463   N490    1.363   .     A
C463   H468    1.082   .     S
C464   H469    1.082   .     S
H473   N491    1.032   .     S
H474   C673    1.111   .     S
H475   C673    1.108   .     S
H478   N492    1.032   .     S
H479   C674    1.110   1_545 S
H480   C674    1.108   1_545 S
N489   Zn504   2.004   .     S
N490   Zn503   2.004   .     S
O493   Zn503   1.989   .     S
O494   C528    1.221   .     S
O495   Zn504   1.989   .     S
O496   Zn504   1.986   .     S
O497   Zn503   1.986   .     S
O498   Zn503   1.982   .     S
O499   Zn504   1.982   .     S
O500   Zn504   1.983   .     S
O501   Zn503   1.983   .     S
O502   C598    1.221   1_455 S
C505   O568    1.286   .     A
C505   C518    1.438   .     S
C505   O565    1.286   .     A
C506   C508    1.410   .     A
C506   H542    1.082   .     S
C506   C535    1.407   .     A
C507   C536    1.410   .     A
C507   C527    1.410   .     A
C508   C531    1.410   .     A
C508   C75     1.512   1_556 S
C509   C511    1.406   .     S
C509   O570    1.269   .     A
C509   O572    1.280   .     A
C510   O573    1.280   .     A
C510   O571    1.270   .     A
C510   C512    1.406   .     S
C512   C583    1.354   .     S
C512   C600    1.502   .     S
C513   C524    1.410   .     A
C513   C515    1.390   .     A
C513   N563    1.427   .     S
C514   N564    1.427   .     S
C514   C525    1.410   .     A
C514   C517    1.390   .     A
C515   C518    1.399   .     A
C515   H537    1.084   .     S
C516   O569    1.286   .     A
C516   C519    1.440   .     S
C516   O567    1.286   .     A
C517   C519    1.400   .     A
C517   H548    1.084   .     S
C518   C520    1.394   .     A
C519   C521    1.395   .     A
C520   H554    1.084   .     S
C520   C522    1.379   .     A
C521   H555    1.084   .     S
C521   C523    1.379   .     A
C522   H556    1.084   .     S
C522   C524    1.401   .     A
C523   C525    1.400   .     A
C523   H557    1.084   .     S
C524   C741    1.448   1_545 S
C525   C740    1.448   .     S
C526   H543    1.085   .     S
C526   C583    1.502   .     S
C526   O646    1.221   .     S
C527   H558    1.082   .     S
C527   C532    1.407   .     A
C528   H544    1.085   .     S
C529   H549    1.112   .     S
C529   N563    1.447   .     S
C529   H762    1.111   1_545 S
C529   H763    1.108   1_545 S
C530   N564    1.447   .     S
C530   H553    1.112   .     S
C530   H767    1.110   .     S
C530   H768    1.108   .     S
C531   C533    1.407   .     A
C531   H559    1.082   .     S
C532   H560    1.082   .     S
C532   N561    1.363   .     A
C533   N562    1.363   .     A
C533   H538    1.081   .     S
C534   C536    1.407   .     A
C534   H539    1.082   .     S
C534   N561    1.363   .     A
C535   N562    1.363   .     A
C535   H540    1.082   .     S
C536   H541    1.082   .     S
H545   N563    1.032   .     S
H546   C745    1.111   .     S
H547   C745    1.108   .     S
H550   N564    1.032   .     S
H551   C746    1.110   1_545 S
H552   C746    1.108   1_545 S
N561   Zn576   2.004   .     S
N562   Zn575   2.004   .     S
O565   Zn575   1.989   .     S
O566   C600    1.221   .     S
O567   Zn576   1.989   .     S
O568   Zn576   1.986   .     S
O569   Zn575   1.986   .     S
O570   Zn575   1.982   .     S
O571   Zn576   1.982   .     S
O572   Zn576   1.983   .     S
O573   Zn575   1.983   .     S
C577   O640    1.286   .     A
C577   C590    1.438   .     S
C577   O637    1.286   .     A
C578   C580    1.410   .     A
C578   H614    1.082   .     S
C578   C607    1.407   .     A
C579   C608    1.410   .     A
C579   C599    1.410   .     A
C580   C603    1.410   .     A
C580   C147    1.512   1_556 S
C581   C583    1.406   .     S
C581   O642    1.269   .     A
C581   O644    1.280   .     A
C582   O645    1.280   .     A
C582   O643    1.270   .     A
C582   C584    1.406   .     S
C584   C439    1.354   1_655 S
C584   C456    1.502   1_655 S
C585   C596    1.410   .     A
C585   C587    1.390   .     A
C585   N635    1.427   .     S
C586   N636    1.427   .     S
C586   C597    1.410   .     A
C586   C589    1.390   .     A
C587   C590    1.399   .     A
C587   H609    1.084   .     S
C588   O641    1.286   .     A
C588   C591    1.440   .     S
C588   O639    1.286   .     A
C589   C591    1.400   .     A
C589   H620    1.084   .     S
C590   C592    1.394   .     A
C591   C593    1.395   .     A
C592   H626    1.084   .     S
C592   C594    1.379   .     A
C593   H627    1.084   .     S
C593   C595    1.379   .     A
C594   H628    1.084   .     S
C594   C596    1.401   .     A
C595   C597    1.400   .     A
C595   H629    1.084   .     S
C596   C813    1.448   1_545 S
C597   C812    1.448   .     S
C598   H615    1.085   .     S
C598   C439    1.502   1_655 S
C598   O502    1.221   1_655 S
C599   H630    1.082   .     S
C599   C604    1.407   .     A
C600   H616    1.085   .     S
C601   H621    1.112   .     S
C601   N635    1.447   .     S
C601   H834    1.111   1_545 S
C601   H835    1.108   1_545 S
C602   N636    1.447   .     S
C602   H625    1.112   .     S
C602   H839    1.110   .     S
C602   H840    1.108   .     S
C603   C605    1.407   .     A
C603   H631    1.082   .     S
C604   H632    1.082   .     S
C604   N633    1.363   .     A
C605   N634    1.363   .     A
C605   H610    1.081   .     S
C606   C608    1.407   .     A
C606   H611    1.082   .     S
C606   N633    1.363   .     A
C607   N634    1.363   .     A
C607   H612    1.082   .     S
C608   H613    1.082   .     S
H617   N635    1.032   .     S
H618   C817    1.111   .     S
H619   C817    1.108   .     S
H622   N636    1.032   .     S
H623   C818    1.110   1_545 S
H624   C818    1.108   1_545 S
N633   Zn648   2.004   .     S
N634   Zn647   2.004   .     S
O637   Zn647   1.989   .     S
O638   C456    1.221   1_655 S
O639   Zn648   1.989   .     S
O640   Zn648   1.986   .     S
O641   Zn647   1.986   .     S
O642   Zn647   1.982   .     S
O643   Zn648   1.982   .     S
O644   Zn648   1.983   .     S
O645   Zn647   1.983   .     S
C649   O712    1.286   .     A
C649   C662    1.438   .     S
C649   O709    1.286   .     A
C650   C652    1.410   .     A
C650   H686    1.082   .     S
C650   C679    1.407   .     A
C651   C680    1.410   .     A
C651   C671    1.410   .     A
C652   C675    1.410   .     A
C652   C219    1.512   1_556 S
C653   C655    1.406   .     S
C653   O714    1.269   .     A
C653   O716    1.280   .     A
C654   O717    1.280   .     A
C654   O715    1.270   .     A
C654   C656    1.406   .     S
C655   C800    1.354   1_455 S
C655   C814    1.502   1_455 S
C656   C727    1.354   .     S
C656   C744    1.502   .     S
C657   C668    1.410   .     A
C657   C659    1.390   .     A
C657   N707    1.427   .     S
C658   N708    1.427   .     S
C658   C669    1.410   .     A
C658   C661    1.390   .     A
C659   C662    1.399   .     A
C659   H681    1.084   .     S
C660   O713    1.286   .     A
C660   C663    1.440   .     S
C660   O711    1.286   .     A
C661   C663    1.400   .     A
C661   H692    1.084   .     S
C662   C664    1.394   .     A
C663   C665    1.395   .     A
C664   H698    1.084   .     S
C664   C666    1.379   .     A
C665   H699    1.084   .     S
C665   C667    1.379   .     A
C666   H700    1.084   .     S
C666   C668    1.401   .     A
C667   C669    1.400   .     A
C667   H701    1.084   .     S
C669   C452    1.448   1_565 S
C670   H687    1.085   .     S
C670   C727    1.502   .     S
C670   O790    1.221   .     S
C671   H702    1.082   .     S
C671   C676    1.407   .     A
C672   H688    1.085   .     S
C672   C800    1.502   1_455 S
C672   O854    1.221   1_455 S
C673   H693    1.112   .     S
C673   N707    1.447   .     S
C674   N708    1.447   .     S
C674   H697    1.112   .     S
C674   H479    1.110   1_565 S
C674   H480    1.108   1_565 S
C675   C677    1.407   .     A
C675   H703    1.082   .     S
C676   H704    1.082   .     S
C676   N705    1.363   .     A
C677   N706    1.363   .     A
C677   H682    1.081   .     S
C678   C680    1.407   .     A
C678   H683    1.082   .     S
C678   N705    1.363   .     A
C679   N706    1.363   .     A
C679   H684    1.082   .     S
C680   H685    1.082   .     S
H689   N707    1.032   .     S
H690   C457    1.111   1_565 S
H691   C457    1.108   1_565 S
H694   N708    1.032   .     S
N705   Zn720   2.004   .     S
N706   Zn719   2.004   .     S
O709   Zn719   1.989   .     S
O710   C744    1.221   .     S
O711   Zn720   1.989   .     S
O712   Zn720   1.986   .     S
O713   Zn719   1.986   .     S
O714   Zn719   1.982   .     S
O715   Zn720   1.982   .     S
O716   Zn720   1.983   .     S
O717   Zn719   1.983   .     S
O718   C814    1.221   1_455 S
C721   O784    1.286   .     A
C721   C734    1.438   .     S
C721   O781    1.286   .     A
C722   C724    1.410   .     A
C722   H758    1.082   .     S
C722   C751    1.407   .     A
C723   C752    1.410   .     A
C723   C743    1.410   .     A
C724   C747    1.410   .     A
C724   C291    1.512   1_556 S
C725   C727    1.406   .     S
C725   O786    1.269   .     A
C725   O788    1.280   .     A
C726   O789    1.280   .     A
C726   O787    1.270   .     A
C726   C728    1.406   .     S
C728   C799    1.354   .     S
C728   C816    1.502   .     S
C729   C740    1.410   .     A
C729   C731    1.390   .     A
C729   N779    1.427   .     S
C730   N780    1.427   .     S
C730   C741    1.410   .     A
C730   C733    1.390   .     A
C731   C734    1.399   .     A
C731   H753    1.084   .     S
C732   O785    1.286   .     A
C732   C735    1.440   .     S
C732   O783    1.286   .     A
C733   C735    1.400   .     A
C733   H764    1.084   .     S
C734   C736    1.394   .     A
C735   C737    1.395   .     A
C736   H770    1.084   .     S
C736   C738    1.379   .     A
C737   H771    1.084   .     S
C737   C739    1.379   .     A
C738   H772    1.084   .     S
C738   C740    1.401   .     A
C739   C741    1.400   .     A
C739   H773    1.084   .     S
C741   C524    1.448   1_565 S
C742   H759    1.085   .     S
C742   C799    1.502   .     S
C742   O862    1.221   .     S
C743   H774    1.082   .     S
C743   C748    1.407   .     A
C744   H760    1.085   .     S
C745   H765    1.112   .     S
C745   N779    1.447   .     S
C746   N780    1.447   .     S
C746   H769    1.112   .     S
C746   H551    1.110   1_565 S
C746   H552    1.108   1_565 S
C747   C749    1.407   .     A
C747   H775    1.082   .     S
C748   H776    1.082   .     S
C748   N777    1.363   .     A
C749   N778    1.363   .     A
C749   H754    1.081   .     S
C750   C752    1.407   .     A
C750   H755    1.082   .     S
C750   N777    1.363   .     A
C751   N778    1.363   .     A
C751   H756    1.082   .     S
C752   H757    1.082   .     S
H761   N779    1.032   .     S
H762   C529    1.111   1_565 S
H763   C529    1.108   1_565 S
H766   N780    1.032   .     S
N777   Zn792   2.004   .     S
N778   Zn791   2.004   .     S
O781   Zn791   1.989   .     S
O782   C816    1.221   .     S
O783   Zn792   1.989   .     S
O784   Zn792   1.986   .     S
O785   Zn791   1.986   .     S
O786   Zn791   1.982   .     S
O787   Zn792   1.982   .     S
O788   Zn792   1.983   .     S
O789   Zn791   1.983   .     S
C793   O856    1.286   .     A
C793   C806    1.438   .     S
C793   O853    1.286   .     A
C794   C796    1.410   .     A
C794   H830    1.082   .     S
C794   C823    1.407   .     A
C795   C824    1.410   .     A
C795   C815    1.410   .     A
C796   C819    1.410   .     A
C796   C363    1.512   1_556 S
C797   C799    1.406   .     S
C797   O858    1.269   .     A
C797   O860    1.280   .     A
C798   O861    1.280   .     A
C798   O859    1.270   .     A
C798   C800    1.406   .     S
C800   C655    1.354   1_655 S
C800   C672    1.502   1_655 S
C801   C812    1.410   .     A
C801   C803    1.390   .     A
C801   N851    1.427   .     S
C802   N852    1.427   .     S
C802   C813    1.410   .     A
C802   C805    1.390   .     A
C803   C806    1.399   .     A
C803   H825    1.084   .     S
C804   O857    1.286   .     A
C804   C807    1.440   .     S
C804   O855    1.286   .     A
C805   C807    1.400   .     A
C805   H836    1.084   .     S
C806   C808    1.394   .     A
C807   C809    1.395   .     A
C808   H842    1.084   .     S
C808   C810    1.379   .     A
C809   H843    1.084   .     S
C809   C811    1.379   .     A
C810   H844    1.084   .     S
C810   C812    1.401   .     A
C811   C813    1.400   .     A
C811   H845    1.084   .     S
C813   C596    1.448   1_565 S
C814   H831    1.085   .     S
C814   C655    1.502   1_655 S
C814   O718    1.221   1_655 S
C815   H846    1.082   .     S
C815   C820    1.407   .     A
C816   H832    1.085   .     S
C817   H837    1.112   .     S
C817   N851    1.447   .     S
C818   N852    1.447   .     S
C818   H841    1.112   .     S
C818   H623    1.110   1_565 S
C818   H624    1.108   1_565 S
C819   C821    1.407   .     A
C819   H847    1.082   .     S
C820   H848    1.082   .     S
C820   N849    1.363   .     A
C821   N850    1.363   .     A
C821   H826    1.081   .     S
C822   C824    1.407   .     A
C822   H827    1.082   .     S
C822   N849    1.363   .     A
C823   N850    1.363   .     A
C823   H828    1.082   .     S
C824   H829    1.082   .     S
H833   N851    1.032   .     S
H834   C601    1.111   1_565 S
H835   C601    1.108   1_565 S
H838   N852    1.032   .     S
N849   Zn864   2.004   .     S
N850   Zn863   2.004   .     S
O853   Zn863   1.989   .     S
O854   C672    1.221   1_655 S
O855   Zn864   1.989   .     S
O856   Zn864   1.986   .     S
O857   Zn863   1.986   .     S
O858   Zn863   1.982   .     S
O859   Zn864   1.982   .     S
O860   Zn864   1.983   .     S
O861   Zn863   1.983   .     S
