data_str_m2_o10_o18_pcu_sym.70
_audit_creation_date              2020-01-03
_audit_creation_method            'Materials Studio'
_symmetry_space_group_name_H-M    'P1'
_symmetry_Int_Tables_number       1
_symmetry_cell_setting            triclinic
loop_
_symmetry_equiv_pos_as_xyz
  x,y,z
_cell_length_a                    22.4501
_cell_length_b                    26.0739
_cell_length_c                    31.3199
_cell_angle_alpha                 94.2916
_cell_angle_beta                  75.8442
_cell_angle_gamma                 102.7777
loop_
_atom_site_label
_atom_site_type_symbol
_atom_site_fract_x
_atom_site_fract_y
_atom_site_fract_z
_atom_site_U_iso_or_equiv
_atom_site_adp_type
_atom_site_occupancy
C1     C     0.18153   0.26661   0.25138   0.00000  Uiso   1.00
C2     C     0.20511   0.17169   0.16656   0.00000  Uiso   1.00
C3     C     0.10487   0.14809   0.38023   0.00000  Uiso   1.00
C4     C     0.22894   0.17664   0.11792   0.00000  Uiso   1.00
C5     C     0.03470   0.09123   0.43831   0.00000  Uiso   1.00
C6     C     0.31536   0.20036   0.05279   0.00000  Uiso   1.00
C7     C     0.04984   0.10983   0.39480   0.00000  Uiso   1.00
C8     C     0.29310   0.19717   0.09913   0.00000  Uiso   1.00
C9     C     0.14290   0.16849   0.40934   0.00000  Uiso   1.00
C10    C     0.18679   0.16225   0.09021   0.00000  Uiso   1.00
C11    C     0.13739   0.14035   0.44774   0.00000  Uiso   1.00
C12    C     0.15193   0.06673   0.24838   0.00000  Uiso   1.00
C13    C     0.20963   0.15937   0.04391   0.00000  Uiso   1.00
C14    C     0.08124   0.10243   0.46320   0.00000  Uiso   1.00
C15    C     0.27274   0.18417   0.02517   0.00000  Uiso   1.00
C16    C     0.18550   0.14980   0.47157   0.00000  Uiso   1.00
C17    C     0.16985   0.13462   0.01576   0.00000  Uiso   1.00
C18    C     0.00265   0.26809   0.13652   0.00000  Uiso   1.00
C19    C     0.01688   0.04199   0.35059   0.00000  Uiso   1.00
C20    C     0.32561   0.24096   0.31440   0.00000  Uiso   1.00
C21    C     0.01097   0.09144   0.18542   0.00000  Uiso   1.00
C22    C     0.11704   0.09271   0.02925   0.00000  Uiso   1.00
C23    C     0.24950   0.17158   0.45242   0.00000  Uiso   1.00
C24    C     0.07364   0.07659   0.00309   0.00000  Uiso   1.00
C25    C     0.29172   0.19059   0.47889   0.00000  Uiso   1.00
C26    C     0.18978   0.32252   0.25230   0.00000  Uiso   1.00
C27    C     0.14379   0.01082   0.24725   0.00000  Uiso   1.00
C28    C     0.12823   0.16151   0.33321   0.00000  Uiso   1.00
Cu29   Cu    0.10737   0.16108   0.24517   0.00000  Uiso   1.00
Cu30   Cu    0.22596   0.17225   0.25484   0.00000  Uiso   1.00
H31    H     0.23411   0.01266   0.25729   0.00000  Uiso   1.00
H32    H     0.06690   0.04115   0.33511   0.00000  Uiso   1.00
H33    H     0.32330   0.03073   0.32476   0.00000  Uiso   1.00
H34    H     0.33104   0.01234   0.37689   0.00000  Uiso   1.00
H35    H     0.27970   0.06402   0.43787   0.00000  Uiso   1.00
H36    H     0.06939   0.22869   0.05659   0.00000  Uiso   1.00
H37    H     0.15178   0.06365   0.07063   0.00000  Uiso   1.00
H38    H     0.24901   0.14155   0.39413   0.00000  Uiso   1.00
H39    H     0.32500   0.20762   0.33463   0.00000  Uiso   1.00
H40    H     0.27904   0.25187   0.32224   0.00000  Uiso   1.00
H41    H     0.02708   0.27460   0.32327   0.00000  Uiso   1.00
H42    H     0.09944   0.32069   0.24229   0.00000  Uiso   1.00
H43    H     0.31338   0.05488   0.17652   0.00000  Uiso   1.00
H44    H     0.05899   0.08377   0.17921   0.00000  Uiso   1.00
H45    H     0.00971   0.12290   0.16375   0.00000  Uiso   1.00
H46    H     0.02284   0.01013   0.49068   0.00000  Uiso   1.00
H47    H     0.02538   0.25132   0.47244   0.00000  Uiso   1.00
H48    H     0.10194   0.16545   0.08830   0.00000  Uiso   1.00
H49    H     0.18965   0.23444   0.42797   0.00000  Uiso   1.00
H50    H     0.28909   0.27467   0.15495   0.00000  Uiso   1.00
H51    H     0.01971   0.29244   0.10651   0.00000  Uiso   1.00
H52    H     0.03581   0.28176   0.15811   0.00000  Uiso   1.00
N53    N     0.31506   0.18068   0.26212   0.00000  Uiso   1.00
N54    N     0.01827   0.15265   0.23788   0.00000  Uiso   1.00
O55    O     0.12815   0.23809   0.24686   0.00000  Uiso   1.00
O56    O     0.01782   0.21610   0.45807   0.00000  Uiso   1.00
O57    O     0.12313   0.15404   0.10900   0.00000  Uiso   1.00
O58    O     0.18335   0.21665   0.39984   0.00000  Uiso   1.00
O59    O     0.00121   0.21427   0.12602   0.00000  Uiso   1.00
O60    O     0.00965   0.09255   0.36710   0.00000  Uiso   1.00
O61    O     0.30869   0.06263   0.45684   0.00000  Uiso   1.00
O62    O     0.04540   0.21697   0.03380   0.00000  Uiso   1.00
O63    O     0.10977   0.06249   0.06532   0.00000  Uiso   1.00
O64    O     0.27394   0.17175   0.40759   0.00000  Uiso   1.00
O65    O     0.01157   0.22991   0.26925   0.00000  Uiso   1.00
O66    O     0.20518   0.09524   0.25314   0.00000  Uiso   1.00
O67    O     0.32160   0.10359   0.23009   0.00000  Uiso   1.00
O68    O     0.22829   0.24753   0.25503   0.00000  Uiso   1.00
O69    O     0.10504   0.08580   0.24498   0.00000  Uiso   1.00
O70    O     0.08851   0.15930   0.30855   0.00000  Uiso   1.00
O71    O     0.24482   0.17403   0.19146   0.00000  Uiso   1.00
O72    O     0.18866   0.16874   0.31671   0.00000  Uiso   1.00
O73    O     0.14468   0.16460   0.18329   0.00000  Uiso   1.00
O74    O     0.02606   0.03358   0.01676   0.00000  Uiso   1.00
C75    C     0.51486   0.26661   0.25138   0.00000  Uiso   1.00
C76    C     0.53844   0.17169   0.16656   0.00000  Uiso   1.00
C77    C     0.43820   0.14809   0.38023   0.00000  Uiso   1.00
C78    C     0.56227   0.17664   0.11792   0.00000  Uiso   1.00
C79    C     0.36803   0.09123   0.43831   0.00000  Uiso   1.00
C80    C     0.64870   0.20036   0.05279   0.00000  Uiso   1.00
C81    C     0.38317   0.10983   0.39480   0.00000  Uiso   1.00
C82    C     0.62643   0.19717   0.09913   0.00000  Uiso   1.00
C83    C     0.47624   0.16849   0.40934   0.00000  Uiso   1.00
C84    C     0.52012   0.16225   0.09021   0.00000  Uiso   1.00
C85    C     0.47072   0.14035   0.44774   0.00000  Uiso   1.00
C86    C     0.48526   0.06673   0.24838   0.00000  Uiso   1.00
C87    C     0.54296   0.15937   0.04391   0.00000  Uiso   1.00
C88    C     0.41458   0.10243   0.46320   0.00000  Uiso   1.00
C89    C     0.60607   0.18417   0.02517   0.00000  Uiso   1.00
C90    C     0.51884   0.14980   0.47157   0.00000  Uiso   1.00
C91    C     0.50318   0.13462   0.01576   0.00000  Uiso   1.00
C92    C     0.33598   0.26809   0.13652   0.00000  Uiso   1.00
C93    C     0.35021   0.04199   0.35059   0.00000  Uiso   1.00
C94    C     0.65894   0.24096   0.31440   0.00000  Uiso   1.00
C95    C     0.34431   0.09144   0.18542   0.00000  Uiso   1.00
C96    C     0.45037   0.09271   0.02925   0.00000  Uiso   1.00
C97    C     0.58283   0.17158   0.45242   0.00000  Uiso   1.00
C98    C     0.40697   0.07659   0.00309   0.00000  Uiso   1.00
C99    C     0.62506   0.19059   0.47889   0.00000  Uiso   1.00
C100   C     0.52311   0.32252   0.25230   0.00000  Uiso   1.00
C101   C     0.47713   0.01082   0.24725   0.00000  Uiso   1.00
C102   C     0.46156   0.16151   0.33321   0.00000  Uiso   1.00
Cu103  Cu    0.44071   0.16108   0.24517   0.00000  Uiso   1.00
Cu104  Cu    0.55929   0.17225   0.25484   0.00000  Uiso   1.00
H105   H     0.56744   0.01266   0.25729   0.00000  Uiso   1.00
H106   H     0.40024   0.04115   0.33511   0.00000  Uiso   1.00
H107   H     0.65664   0.03073   0.32476   0.00000  Uiso   1.00
H108   H     0.66437   0.01234   0.37689   0.00000  Uiso   1.00
H109   H     0.61303   0.06402   0.43787   0.00000  Uiso   1.00
H110   H     0.40272   0.22869   0.05659   0.00000  Uiso   1.00
H111   H     0.48512   0.06365   0.07063   0.00000  Uiso   1.00
H112   H     0.58234   0.14155   0.39413   0.00000  Uiso   1.00
H113   H     0.65833   0.20762   0.33463   0.00000  Uiso   1.00
H114   H     0.61237   0.25187   0.32224   0.00000  Uiso   1.00
H115   H     0.36041   0.27460   0.32327   0.00000  Uiso   1.00
H116   H     0.43278   0.32069   0.24229   0.00000  Uiso   1.00
H117   H     0.64671   0.05488   0.17652   0.00000  Uiso   1.00
H118   H     0.39232   0.08377   0.17921   0.00000  Uiso   1.00
H119   H     0.34304   0.12290   0.16375   0.00000  Uiso   1.00
H120   H     0.35617   0.01013   0.49068   0.00000  Uiso   1.00
H121   H     0.35871   0.25132   0.47244   0.00000  Uiso   1.00
H122   H     0.43527   0.16545   0.08830   0.00000  Uiso   1.00
H123   H     0.52298   0.23444   0.42797   0.00000  Uiso   1.00
H124   H     0.62242   0.27467   0.15495   0.00000  Uiso   1.00
H125   H     0.35304   0.29244   0.10651   0.00000  Uiso   1.00
H126   H     0.36914   0.28176   0.15811   0.00000  Uiso   1.00
N127   N     0.64839   0.18068   0.26212   0.00000  Uiso   1.00
N128   N     0.35161   0.15265   0.23788   0.00000  Uiso   1.00
O129   O     0.46148   0.23809   0.24686   0.00000  Uiso   1.00
O130   O     0.35115   0.21610   0.45807   0.00000  Uiso   1.00
O131   O     0.45646   0.15404   0.10900   0.00000  Uiso   1.00
O132   O     0.51668   0.21665   0.39984   0.00000  Uiso   1.00
O133   O     0.33454   0.21427   0.12602   0.00000  Uiso   1.00
O134   O     0.34299   0.09255   0.36710   0.00000  Uiso   1.00
O135   O     0.64203   0.06263   0.45684   0.00000  Uiso   1.00
O136   O     0.37873   0.21697   0.03380   0.00000  Uiso   1.00
O137   O     0.44310   0.06249   0.06532   0.00000  Uiso   1.00
O138   O     0.60727   0.17175   0.40759   0.00000  Uiso   1.00
O139   O     0.34490   0.22991   0.26925   0.00000  Uiso   1.00
O140   O     0.53852   0.09524   0.25314   0.00000  Uiso   1.00
O141   O     0.65494   0.10359   0.23009   0.00000  Uiso   1.00
O142   O     0.56163   0.24753   0.25503   0.00000  Uiso   1.00
O143   O     0.43837   0.08580   0.24498   0.00000  Uiso   1.00
O144   O     0.42185   0.15930   0.30855   0.00000  Uiso   1.00
O145   O     0.57815   0.17403   0.19146   0.00000  Uiso   1.00
O146   O     0.52199   0.16874   0.31671   0.00000  Uiso   1.00
O147   O     0.47801   0.16460   0.18329   0.00000  Uiso   1.00
O148   O     0.35939   0.03358   0.01676   0.00000  Uiso   1.00
C149   C     0.84820   0.26661   0.25138   0.00000  Uiso   1.00
C150   C     0.87178   0.17169   0.16656   0.00000  Uiso   1.00
C151   C     0.77154   0.14809   0.38023   0.00000  Uiso   1.00
C152   C     0.89561   0.17664   0.11792   0.00000  Uiso   1.00
C153   C     0.70137   0.09123   0.43831   0.00000  Uiso   1.00
C154   C     0.98203   0.20036   0.05279   0.00000  Uiso   1.00
C155   C     0.71651   0.10983   0.39480   0.00000  Uiso   1.00
C156   C     0.95977   0.19717   0.09913   0.00000  Uiso   1.00
C157   C     0.80957   0.16849   0.40934   0.00000  Uiso   1.00
C158   C     0.85346   0.16225   0.09021   0.00000  Uiso   1.00
C159   C     0.80405   0.14035   0.44774   0.00000  Uiso   1.00
C160   C     0.81859   0.06673   0.24838   0.00000  Uiso   1.00
C161   C     0.87629   0.15937   0.04391   0.00000  Uiso   1.00
C162   C     0.74791   0.10243   0.46320   0.00000  Uiso   1.00
C163   C     0.93941   0.18417   0.02517   0.00000  Uiso   1.00
C164   C     0.85217   0.14980   0.47157   0.00000  Uiso   1.00
C165   C     0.83651   0.13462   0.01576   0.00000  Uiso   1.00
C166   C     0.66932   0.26809   0.13652   0.00000  Uiso   1.00
C167   C     0.68355   0.04199   0.35059   0.00000  Uiso   1.00
C168   C     0.99228   0.24096   0.31440   0.00000  Uiso   1.00
C169   C     0.67764   0.09144   0.18542   0.00000  Uiso   1.00
C170   C     0.78370   0.09271   0.02925   0.00000  Uiso   1.00
C171   C     0.91616   0.17158   0.45242   0.00000  Uiso   1.00
C172   C     0.74030   0.07659   0.00309   0.00000  Uiso   1.00
C173   C     0.95839   0.19059   0.47889   0.00000  Uiso   1.00
C174   C     0.85645   0.32252   0.25230   0.00000  Uiso   1.00
C175   C     0.81046   0.01082   0.24725   0.00000  Uiso   1.00
C176   C     0.79490   0.16151   0.33321   0.00000  Uiso   1.00
Cu177  Cu    0.77404   0.16108   0.24517   0.00000  Uiso   1.00
Cu178  Cu    0.89263   0.17225   0.25484   0.00000  Uiso   1.00
H179   H     0.90078   0.01266   0.25729   0.00000  Uiso   1.00
H180   H     0.73357   0.04115   0.33511   0.00000  Uiso   1.00
H181   H     0.98997   0.03073   0.32476   0.00000  Uiso   1.00
H182   H     0.99770   0.01234   0.37689   0.00000  Uiso   1.00
H183   H     0.94636   0.06402   0.43787   0.00000  Uiso   1.00
H184   H     0.73606   0.22869   0.05659   0.00000  Uiso   1.00
H185   H     0.81845   0.06365   0.07063   0.00000  Uiso   1.00
H186   H     0.91568   0.14155   0.39413   0.00000  Uiso   1.00
H187   H     0.99166   0.20762   0.33463   0.00000  Uiso   1.00
H188   H     0.94570   0.25187   0.32224   0.00000  Uiso   1.00
H189   H     0.69375   0.27460   0.32327   0.00000  Uiso   1.00
H190   H     0.76611   0.32069   0.24229   0.00000  Uiso   1.00
H191   H     0.98005   0.05488   0.17652   0.00000  Uiso   1.00
H192   H     0.72566   0.08377   0.17921   0.00000  Uiso   1.00
H193   H     0.67638   0.12290   0.16375   0.00000  Uiso   1.00
H194   H     0.68950   0.01013   0.49068   0.00000  Uiso   1.00
H195   H     0.69205   0.25132   0.47244   0.00000  Uiso   1.00
H196   H     0.76861   0.16545   0.08830   0.00000  Uiso   1.00
H197   H     0.85631   0.23444   0.42797   0.00000  Uiso   1.00
H198   H     0.95575   0.27467   0.15495   0.00000  Uiso   1.00
H199   H     0.68638   0.29244   0.10651   0.00000  Uiso   1.00
H200   H     0.70247   0.28176   0.15811   0.00000  Uiso   1.00
N201   N     0.98173   0.18068   0.26212   0.00000  Uiso   1.00
N202   N     0.68494   0.15265   0.23788   0.00000  Uiso   1.00
O203   O     0.79482   0.23809   0.24686   0.00000  Uiso   1.00
O204   O     0.68448   0.21610   0.45807   0.00000  Uiso   1.00
O205   O     0.78980   0.15404   0.10900   0.00000  Uiso   1.00
O206   O     0.85002   0.21665   0.39984   0.00000  Uiso   1.00
O207   O     0.66788   0.21427   0.12602   0.00000  Uiso   1.00
O208   O     0.67632   0.09255   0.36710   0.00000  Uiso   1.00
O209   O     0.97536   0.06263   0.45684   0.00000  Uiso   1.00
O210   O     0.71207   0.21697   0.03380   0.00000  Uiso   1.00
O211   O     0.77644   0.06249   0.06532   0.00000  Uiso   1.00
O212   O     0.94061   0.17175   0.40759   0.00000  Uiso   1.00
O213   O     0.67824   0.22991   0.26925   0.00000  Uiso   1.00
O214   O     0.87185   0.09524   0.25314   0.00000  Uiso   1.00
O215   O     0.98827   0.10359   0.23009   0.00000  Uiso   1.00
O216   O     0.89496   0.24753   0.25503   0.00000  Uiso   1.00
O217   O     0.77171   0.08580   0.24498   0.00000  Uiso   1.00
O218   O     0.75518   0.15930   0.30855   0.00000  Uiso   1.00
O219   O     0.91149   0.17403   0.19146   0.00000  Uiso   1.00
O220   O     0.85532   0.16874   0.31671   0.00000  Uiso   1.00
O221   O     0.81134   0.16460   0.18329   0.00000  Uiso   1.00
O222   O     0.69272   0.03358   0.01676   0.00000  Uiso   1.00
C223   C     0.18153   0.59995   0.25138   0.00000  Uiso   1.00
C224   C     0.20511   0.50502   0.16656   0.00000  Uiso   1.00
C225   C     0.10487   0.48142   0.38023   0.00000  Uiso   1.00
C226   C     0.22894   0.50998   0.11792   0.00000  Uiso   1.00
C227   C     0.03470   0.42456   0.43831   0.00000  Uiso   1.00
C228   C     0.31536   0.53369   0.05279   0.00000  Uiso   1.00
C229   C     0.04984   0.44316   0.39480   0.00000  Uiso   1.00
C230   C     0.29310   0.53050   0.09913   0.00000  Uiso   1.00
C231   C     0.14290   0.50182   0.40934   0.00000  Uiso   1.00
C232   C     0.18679   0.49558   0.09021   0.00000  Uiso   1.00
C233   C     0.13739   0.47368   0.44774   0.00000  Uiso   1.00
C234   C     0.15193   0.40006   0.24838   0.00000  Uiso   1.00
C235   C     0.20963   0.49270   0.04391   0.00000  Uiso   1.00
C236   C     0.08124   0.43576   0.46320   0.00000  Uiso   1.00
C237   C     0.27274   0.51751   0.02517   0.00000  Uiso   1.00
C238   C     0.18550   0.48314   0.47157   0.00000  Uiso   1.00
C239   C     0.16985   0.46795   0.01576   0.00000  Uiso   1.00
C240   C     0.00265   0.60142   0.13652   0.00000  Uiso   1.00
C241   C     0.01688   0.37533   0.35059   0.00000  Uiso   1.00
C242   C     0.32561   0.57429   0.31440   0.00000  Uiso   1.00
C243   C     0.01097   0.42478   0.18542   0.00000  Uiso   1.00
C244   C     0.11704   0.42604   0.02925   0.00000  Uiso   1.00
C245   C     0.24950   0.50492   0.45242   0.00000  Uiso   1.00
C246   C     0.07364   0.40993   0.00309   0.00000  Uiso   1.00
C247   C     0.29172   0.52392   0.47889   0.00000  Uiso   1.00
C248   C     0.18978   0.65586   0.25230   0.00000  Uiso   1.00
C249   C     0.14379   0.34415   0.24725   0.00000  Uiso   1.00
C250   C     0.12823   0.49484   0.33321   0.00000  Uiso   1.00
Cu251  Cu    0.10737   0.49441   0.24517   0.00000  Uiso   1.00
Cu252  Cu    0.22596   0.50559   0.25484   0.00000  Uiso   1.00
H253   H     0.23411   0.34599   0.25729   0.00000  Uiso   1.00
H254   H     0.06690   0.37448   0.33511   0.00000  Uiso   1.00
H255   H     0.32330   0.36406   0.32476   0.00000  Uiso   1.00
H256   H     0.33104   0.34568   0.37689   0.00000  Uiso   1.00
H257   H     0.27970   0.39736   0.43787   0.00000  Uiso   1.00
H258   H     0.06939   0.56202   0.05659   0.00000  Uiso   1.00
H259   H     0.15178   0.39698   0.07063   0.00000  Uiso   1.00
H260   H     0.24901   0.47488   0.39413   0.00000  Uiso   1.00
H261   H     0.32500   0.54095   0.33463   0.00000  Uiso   1.00
H262   H     0.27904   0.58521   0.32224   0.00000  Uiso   1.00
H263   H     0.02708   0.60793   0.32327   0.00000  Uiso   1.00
H264   H     0.09944   0.65402   0.24229   0.00000  Uiso   1.00
H265   H     0.31338   0.38822   0.17652   0.00000  Uiso   1.00
H266   H     0.05899   0.41710   0.17921   0.00000  Uiso   1.00
H267   H     0.00971   0.45624   0.16375   0.00000  Uiso   1.00
H268   H     0.02284   0.34346   0.49068   0.00000  Uiso   1.00
H269   H     0.02538   0.58465   0.47244   0.00000  Uiso   1.00
H270   H     0.10194   0.49878   0.08830   0.00000  Uiso   1.00
H271   H     0.18965   0.56778   0.42797   0.00000  Uiso   1.00
H272   H     0.28909   0.60800   0.15495   0.00000  Uiso   1.00
H273   H     0.01971   0.62577   0.10651   0.00000  Uiso   1.00
H274   H     0.03581   0.61509   0.15811   0.00000  Uiso   1.00
N275   N     0.31506   0.51401   0.26212   0.00000  Uiso   1.00
N276   N     0.01827   0.48599   0.23788   0.00000  Uiso   1.00
O277   O     0.12815   0.57142   0.24686   0.00000  Uiso   1.00
O278   O     0.01782   0.54943   0.45807   0.00000  Uiso   1.00
O279   O     0.12313   0.48737   0.10900   0.00000  Uiso   1.00
O280   O     0.18335   0.54998   0.39984   0.00000  Uiso   1.00
O281   O     0.00121   0.54760   0.12602   0.00000  Uiso   1.00
O282   O     0.00965   0.42589   0.36710   0.00000  Uiso   1.00
O283   O     0.30869   0.39597   0.45684   0.00000  Uiso   1.00
O284   O     0.04540   0.55031   0.03380   0.00000  Uiso   1.00
O285   O     0.10977   0.39582   0.06532   0.00000  Uiso   1.00
O286   O     0.27394   0.50508   0.40759   0.00000  Uiso   1.00
O287   O     0.01157   0.56324   0.26925   0.00000  Uiso   1.00
O288   O     0.20518   0.42858   0.25314   0.00000  Uiso   1.00
O289   O     0.32160   0.43692   0.23009   0.00000  Uiso   1.00
O290   O     0.22829   0.58086   0.25503   0.00000  Uiso   1.00
O291   O     0.10504   0.41914   0.24498   0.00000  Uiso   1.00
O292   O     0.08851   0.49263   0.30855   0.00000  Uiso   1.00
O293   O     0.24482   0.50737   0.19146   0.00000  Uiso   1.00
O294   O     0.18866   0.50207   0.31671   0.00000  Uiso   1.00
O295   O     0.14468   0.49793   0.18329   0.00000  Uiso   1.00
O296   O     0.02606   0.36691   0.01676   0.00000  Uiso   1.00
C297   C     0.51486   0.59995   0.25138   0.00000  Uiso   1.00
C298   C     0.53844   0.50502   0.16656   0.00000  Uiso   1.00
C299   C     0.43820   0.48142   0.38023   0.00000  Uiso   1.00
C300   C     0.56227   0.50998   0.11792   0.00000  Uiso   1.00
C301   C     0.36803   0.42456   0.43831   0.00000  Uiso   1.00
C302   C     0.64870   0.53369   0.05279   0.00000  Uiso   1.00
C303   C     0.38317   0.44316   0.39480   0.00000  Uiso   1.00
C304   C     0.62643   0.53050   0.09913   0.00000  Uiso   1.00
C305   C     0.47624   0.50182   0.40934   0.00000  Uiso   1.00
C306   C     0.52012   0.49558   0.09021   0.00000  Uiso   1.00
C307   C     0.47072   0.47368   0.44774   0.00000  Uiso   1.00
C308   C     0.48526   0.40006   0.24838   0.00000  Uiso   1.00
C309   C     0.54296   0.49270   0.04391   0.00000  Uiso   1.00
C310   C     0.41458   0.43576   0.46320   0.00000  Uiso   1.00
C311   C     0.60607   0.51751   0.02517   0.00000  Uiso   1.00
C312   C     0.51884   0.48314   0.47157   0.00000  Uiso   1.00
C313   C     0.50318   0.46795   0.01576   0.00000  Uiso   1.00
C314   C     0.33598   0.60142   0.13652   0.00000  Uiso   1.00
C315   C     0.35021   0.37533   0.35059   0.00000  Uiso   1.00
C316   C     0.65894   0.57429   0.31440   0.00000  Uiso   1.00
C317   C     0.34431   0.42478   0.18542   0.00000  Uiso   1.00
C318   C     0.45037   0.42604   0.02925   0.00000  Uiso   1.00
C319   C     0.58283   0.50492   0.45242   0.00000  Uiso   1.00
C320   C     0.40697   0.40993   0.00309   0.00000  Uiso   1.00
C321   C     0.62506   0.52392   0.47889   0.00000  Uiso   1.00
C322   C     0.52311   0.65586   0.25230   0.00000  Uiso   1.00
C323   C     0.47713   0.34415   0.24725   0.00000  Uiso   1.00
C324   C     0.46156   0.49484   0.33321   0.00000  Uiso   1.00
Cu325  Cu    0.44071   0.49441   0.24517   0.00000  Uiso   1.00
Cu326  Cu    0.55929   0.50559   0.25484   0.00000  Uiso   1.00
H327   H     0.56744   0.34599   0.25729   0.00000  Uiso   1.00
H328   H     0.40024   0.37448   0.33511   0.00000  Uiso   1.00
H329   H     0.65664   0.36406   0.32476   0.00000  Uiso   1.00
H330   H     0.66437   0.34568   0.37689   0.00000  Uiso   1.00
H331   H     0.61303   0.39736   0.43787   0.00000  Uiso   1.00
H332   H     0.40272   0.56202   0.05659   0.00000  Uiso   1.00
H333   H     0.48512   0.39698   0.07063   0.00000  Uiso   1.00
H334   H     0.58234   0.47488   0.39413   0.00000  Uiso   1.00
H335   H     0.65833   0.54095   0.33463   0.00000  Uiso   1.00
H336   H     0.61237   0.58521   0.32224   0.00000  Uiso   1.00
H337   H     0.36041   0.60793   0.32327   0.00000  Uiso   1.00
H338   H     0.43278   0.65402   0.24229   0.00000  Uiso   1.00
H339   H     0.64671   0.38822   0.17652   0.00000  Uiso   1.00
H340   H     0.39232   0.41710   0.17921   0.00000  Uiso   1.00
H341   H     0.34304   0.45624   0.16375   0.00000  Uiso   1.00
H342   H     0.35617   0.34346   0.49068   0.00000  Uiso   1.00
H343   H     0.35871   0.58465   0.47244   0.00000  Uiso   1.00
H344   H     0.43527   0.49878   0.08830   0.00000  Uiso   1.00
H345   H     0.52298   0.56778   0.42797   0.00000  Uiso   1.00
H346   H     0.62242   0.60800   0.15495   0.00000  Uiso   1.00
H347   H     0.35304   0.62577   0.10651   0.00000  Uiso   1.00
H348   H     0.36914   0.61509   0.15811   0.00000  Uiso   1.00
N349   N     0.64839   0.51401   0.26212   0.00000  Uiso   1.00
N350   N     0.35161   0.48599   0.23788   0.00000  Uiso   1.00
O351   O     0.46148   0.57142   0.24686   0.00000  Uiso   1.00
O352   O     0.35115   0.54943   0.45807   0.00000  Uiso   1.00
O353   O     0.45646   0.48737   0.10900   0.00000  Uiso   1.00
O354   O     0.51668   0.54998   0.39984   0.00000  Uiso   1.00
O355   O     0.33454   0.54760   0.12602   0.00000  Uiso   1.00
O356   O     0.34299   0.42589   0.36710   0.00000  Uiso   1.00
O357   O     0.64203   0.39597   0.45684   0.00000  Uiso   1.00
O358   O     0.37873   0.55031   0.03380   0.00000  Uiso   1.00
O359   O     0.44310   0.39582   0.06532   0.00000  Uiso   1.00
O360   O     0.60727   0.50508   0.40759   0.00000  Uiso   1.00
O361   O     0.34490   0.56324   0.26925   0.00000  Uiso   1.00
O362   O     0.53852   0.42858   0.25314   0.00000  Uiso   1.00
O363   O     0.65494   0.43692   0.23009   0.00000  Uiso   1.00
O364   O     0.56163   0.58086   0.25503   0.00000  Uiso   1.00
O365   O     0.43837   0.41914   0.24498   0.00000  Uiso   1.00
O366   O     0.42185   0.49263   0.30855   0.00000  Uiso   1.00
O367   O     0.57815   0.50737   0.19146   0.00000  Uiso   1.00
O368   O     0.52199   0.50207   0.31671   0.00000  Uiso   1.00
O369   O     0.47801   0.49793   0.18329   0.00000  Uiso   1.00
O370   O     0.35939   0.36691   0.01676   0.00000  Uiso   1.00
C371   C     0.84820   0.59995   0.25138   0.00000  Uiso   1.00
C372   C     0.87178   0.50502   0.16656   0.00000  Uiso   1.00
C373   C     0.77154   0.48142   0.38023   0.00000  Uiso   1.00
C374   C     0.89561   0.50998   0.11792   0.00000  Uiso   1.00
C375   C     0.70137   0.42456   0.43831   0.00000  Uiso   1.00
C376   C     0.98203   0.53369   0.05279   0.00000  Uiso   1.00
C377   C     0.71651   0.44316   0.39480   0.00000  Uiso   1.00
C378   C     0.95977   0.53050   0.09913   0.00000  Uiso   1.00
C379   C     0.80957   0.50182   0.40934   0.00000  Uiso   1.00
C380   C     0.85346   0.49558   0.09021   0.00000  Uiso   1.00
C381   C     0.80405   0.47368   0.44774   0.00000  Uiso   1.00
C382   C     0.81859   0.40006   0.24838   0.00000  Uiso   1.00
C383   C     0.87629   0.49270   0.04391   0.00000  Uiso   1.00
C384   C     0.74791   0.43576   0.46320   0.00000  Uiso   1.00
C385   C     0.93941   0.51751   0.02517   0.00000  Uiso   1.00
C386   C     0.85217   0.48314   0.47157   0.00000  Uiso   1.00
C387   C     0.83651   0.46795   0.01576   0.00000  Uiso   1.00
C388   C     0.66932   0.60142   0.13652   0.00000  Uiso   1.00
C389   C     0.68355   0.37533   0.35059   0.00000  Uiso   1.00
C390   C     0.99228   0.57429   0.31440   0.00000  Uiso   1.00
C391   C     0.67764   0.42478   0.18542   0.00000  Uiso   1.00
C392   C     0.78370   0.42604   0.02925   0.00000  Uiso   1.00
C393   C     0.91616   0.50492   0.45242   0.00000  Uiso   1.00
C394   C     0.74030   0.40993   0.00309   0.00000  Uiso   1.00
C395   C     0.95839   0.52392   0.47889   0.00000  Uiso   1.00
C396   C     0.85645   0.65586   0.25230   0.00000  Uiso   1.00
C397   C     0.81046   0.34415   0.24725   0.00000  Uiso   1.00
C398   C     0.79490   0.49484   0.33321   0.00000  Uiso   1.00
Cu399  Cu    0.77404   0.49441   0.24517   0.00000  Uiso   1.00
Cu400  Cu    0.89263   0.50559   0.25484   0.00000  Uiso   1.00
H401   H     0.90078   0.34599   0.25729   0.00000  Uiso   1.00
H402   H     0.73357   0.37448   0.33511   0.00000  Uiso   1.00
H403   H     0.98997   0.36406   0.32476   0.00000  Uiso   1.00
H404   H     0.99770   0.34568   0.37689   0.00000  Uiso   1.00
H405   H     0.94636   0.39736   0.43787   0.00000  Uiso   1.00
H406   H     0.73606   0.56202   0.05659   0.00000  Uiso   1.00
H407   H     0.81845   0.39698   0.07063   0.00000  Uiso   1.00
H408   H     0.91568   0.47488   0.39413   0.00000  Uiso   1.00
H409   H     0.99166   0.54095   0.33463   0.00000  Uiso   1.00
H410   H     0.94570   0.58521   0.32224   0.00000  Uiso   1.00
H411   H     0.69375   0.60793   0.32327   0.00000  Uiso   1.00
H412   H     0.76611   0.65402   0.24229   0.00000  Uiso   1.00
H413   H     0.98005   0.38822   0.17652   0.00000  Uiso   1.00
H414   H     0.72566   0.41710   0.17921   0.00000  Uiso   1.00
H415   H     0.67638   0.45624   0.16375   0.00000  Uiso   1.00
H416   H     0.68950   0.34346   0.49068   0.00000  Uiso   1.00
H417   H     0.69205   0.58465   0.47244   0.00000  Uiso   1.00
H418   H     0.76861   0.49878   0.08830   0.00000  Uiso   1.00
H419   H     0.85631   0.56778   0.42797   0.00000  Uiso   1.00
H420   H     0.95575   0.60800   0.15495   0.00000  Uiso   1.00
H421   H     0.68638   0.62577   0.10651   0.00000  Uiso   1.00
H422   H     0.70247   0.61509   0.15811   0.00000  Uiso   1.00
N423   N     0.98173   0.51401   0.26212   0.00000  Uiso   1.00
N424   N     0.68494   0.48599   0.23788   0.00000  Uiso   1.00
O425   O     0.79482   0.57142   0.24686   0.00000  Uiso   1.00
O426   O     0.68448   0.54943   0.45807   0.00000  Uiso   1.00
O427   O     0.78980   0.48737   0.10900   0.00000  Uiso   1.00
O428   O     0.85002   0.54998   0.39984   0.00000  Uiso   1.00
O429   O     0.66788   0.54760   0.12602   0.00000  Uiso   1.00
O430   O     0.67632   0.42589   0.36710   0.00000  Uiso   1.00
O431   O     0.97536   0.39597   0.45684   0.00000  Uiso   1.00
O432   O     0.71207   0.55031   0.03380   0.00000  Uiso   1.00
O433   O     0.77644   0.39582   0.06532   0.00000  Uiso   1.00
O434   O     0.94061   0.50508   0.40759   0.00000  Uiso   1.00
O435   O     0.67824   0.56324   0.26925   0.00000  Uiso   1.00
O436   O     0.87185   0.42858   0.25314   0.00000  Uiso   1.00
O437   O     0.98827   0.43692   0.23009   0.00000  Uiso   1.00
O438   O     0.89496   0.58086   0.25503   0.00000  Uiso   1.00
O439   O     0.77171   0.41914   0.24498   0.00000  Uiso   1.00
O440   O     0.75518   0.49263   0.30855   0.00000  Uiso   1.00
O441   O     0.91149   0.50737   0.19146   0.00000  Uiso   1.00
O442   O     0.85532   0.50207   0.31671   0.00000  Uiso   1.00
O443   O     0.81134   0.49793   0.18329   0.00000  Uiso   1.00
O444   O     0.69272   0.36691   0.01676   0.00000  Uiso   1.00
C445   C     0.18153   0.93328   0.25138   0.00000  Uiso   1.00
C446   C     0.20511   0.83835   0.16656   0.00000  Uiso   1.00
C447   C     0.10487   0.81476   0.38023   0.00000  Uiso   1.00
C448   C     0.22894   0.84331   0.11792   0.00000  Uiso   1.00
C449   C     0.03470   0.75790   0.43831   0.00000  Uiso   1.00
C450   C     0.31536   0.86703   0.05279   0.00000  Uiso   1.00
C451   C     0.04984   0.77650   0.39480   0.00000  Uiso   1.00
C452   C     0.29310   0.86383   0.09913   0.00000  Uiso   1.00
C453   C     0.14290   0.83515   0.40934   0.00000  Uiso   1.00
C454   C     0.18679   0.82891   0.09021   0.00000  Uiso   1.00
C455   C     0.13739   0.80702   0.44774   0.00000  Uiso   1.00
C456   C     0.15193   0.73339   0.24838   0.00000  Uiso   1.00
C457   C     0.20963   0.82603   0.04391   0.00000  Uiso   1.00
C458   C     0.08124   0.76909   0.46320   0.00000  Uiso   1.00
C459   C     0.27274   0.85084   0.02517   0.00000  Uiso   1.00
C460   C     0.18550   0.81647   0.47157   0.00000  Uiso   1.00
C461   C     0.16985   0.80128   0.01576   0.00000  Uiso   1.00
C462   C     0.00265   0.93475   0.13652   0.00000  Uiso   1.00
C463   C     0.01688   0.70866   0.35059   0.00000  Uiso   1.00
C464   C     0.32561   0.90762   0.31440   0.00000  Uiso   1.00
C465   C     0.01097   0.75811   0.18542   0.00000  Uiso   1.00
C466   C     0.11704   0.75938   0.02925   0.00000  Uiso   1.00
C467   C     0.24950   0.83825   0.45242   0.00000  Uiso   1.00
C468   C     0.07364   0.74326   0.00309   0.00000  Uiso   1.00
C469   C     0.29172   0.85725   0.47889   0.00000  Uiso   1.00
C470   C     0.18978   0.98919   0.25230   0.00000  Uiso   1.00
C471   C     0.14379   0.67748   0.24725   0.00000  Uiso   1.00
C472   C     0.12823   0.82817   0.33321   0.00000  Uiso   1.00
Cu473  Cu    0.10737   0.82775   0.24517   0.00000  Uiso   1.00
Cu474  Cu    0.22596   0.83892   0.25484   0.00000  Uiso   1.00
H475   H     0.23411   0.67932   0.25729   0.00000  Uiso   1.00
H476   H     0.06690   0.70781   0.33511   0.00000  Uiso   1.00
H477   H     0.32330   0.69739   0.32476   0.00000  Uiso   1.00
H478   H     0.33104   0.67901   0.37689   0.00000  Uiso   1.00
H479   H     0.27970   0.73069   0.43787   0.00000  Uiso   1.00
H480   H     0.06939   0.89535   0.05659   0.00000  Uiso   1.00
H481   H     0.15178   0.73032   0.07063   0.00000  Uiso   1.00
H482   H     0.24901   0.80821   0.39413   0.00000  Uiso   1.00
H483   H     0.32500   0.87428   0.33463   0.00000  Uiso   1.00
H484   H     0.27904   0.91854   0.32224   0.00000  Uiso   1.00
H485   H     0.02708   0.94126   0.32327   0.00000  Uiso   1.00
H486   H     0.09944   0.98735   0.24229   0.00000  Uiso   1.00
H487   H     0.31338   0.72155   0.17652   0.00000  Uiso   1.00
H488   H     0.05899   0.75043   0.17921   0.00000  Uiso   1.00
H489   H     0.00971   0.78957   0.16375   0.00000  Uiso   1.00
H490   H     0.02284   0.67679   0.49068   0.00000  Uiso   1.00
H491   H     0.02538   0.91799   0.47244   0.00000  Uiso   1.00
H492   H     0.10194   0.83212   0.08830   0.00000  Uiso   1.00
H493   H     0.18965   0.90111   0.42797   0.00000  Uiso   1.00
H494   H     0.28909   0.94133   0.15495   0.00000  Uiso   1.00
H495   H     0.01971   0.95910   0.10651   0.00000  Uiso   1.00
H496   H     0.03581   0.94843   0.15811   0.00000  Uiso   1.00
N497   N     0.31506   0.84735   0.26212   0.00000  Uiso   1.00
N498   N     0.01827   0.81932   0.23788   0.00000  Uiso   1.00
O499   O     0.12815   0.90476   0.24686   0.00000  Uiso   1.00
O500   O     0.01782   0.88276   0.45807   0.00000  Uiso   1.00
O501   O     0.12313   0.82070   0.10900   0.00000  Uiso   1.00
O502   O     0.18335   0.88331   0.39984   0.00000  Uiso   1.00
O503   O     0.00121   0.88093   0.12602   0.00000  Uiso   1.00
O504   O     0.00965   0.75922   0.36710   0.00000  Uiso   1.00
O505   O     0.30869   0.72930   0.45684   0.00000  Uiso   1.00
O506   O     0.04540   0.88364   0.03380   0.00000  Uiso   1.00
O507   O     0.10977   0.72916   0.06532   0.00000  Uiso   1.00
O508   O     0.27394   0.83841   0.40759   0.00000  Uiso   1.00
O509   O     0.01157   0.89657   0.26925   0.00000  Uiso   1.00
O510   O     0.20518   0.76191   0.25314   0.00000  Uiso   1.00
O511   O     0.32160   0.77026   0.23009   0.00000  Uiso   1.00
O512   O     0.22829   0.91420   0.25503   0.00000  Uiso   1.00
O513   O     0.10504   0.75247   0.24498   0.00000  Uiso   1.00
O514   O     0.08851   0.82597   0.30855   0.00000  Uiso   1.00
O515   O     0.24482   0.84070   0.19146   0.00000  Uiso   1.00
O516   O     0.18866   0.83540   0.31671   0.00000  Uiso   1.00
O517   O     0.14468   0.83126   0.18329   0.00000  Uiso   1.00
O518   O     0.02606   0.70025   0.01676   0.00000  Uiso   1.00
C519   C     0.51486   0.93328   0.25138   0.00000  Uiso   1.00
C520   C     0.53844   0.83835   0.16656   0.00000  Uiso   1.00
C521   C     0.43820   0.81476   0.38023   0.00000  Uiso   1.00
C522   C     0.56227   0.84331   0.11792   0.00000  Uiso   1.00
C523   C     0.36803   0.75790   0.43831   0.00000  Uiso   1.00
C524   C     0.64870   0.86703   0.05279   0.00000  Uiso   1.00
C525   C     0.38317   0.77650   0.39480   0.00000  Uiso   1.00
C526   C     0.62643   0.86383   0.09913   0.00000  Uiso   1.00
C527   C     0.47624   0.83515   0.40934   0.00000  Uiso   1.00
C528   C     0.52012   0.82891   0.09021   0.00000  Uiso   1.00
C529   C     0.47072   0.80702   0.44774   0.00000  Uiso   1.00
C530   C     0.48526   0.73339   0.24838   0.00000  Uiso   1.00
C531   C     0.54296   0.82603   0.04391   0.00000  Uiso   1.00
C532   C     0.41458   0.76909   0.46320   0.00000  Uiso   1.00
C533   C     0.60607   0.85084   0.02517   0.00000  Uiso   1.00
C534   C     0.51884   0.81647   0.47157   0.00000  Uiso   1.00
C535   C     0.50318   0.80128   0.01576   0.00000  Uiso   1.00
C536   C     0.33598   0.93475   0.13652   0.00000  Uiso   1.00
C537   C     0.35021   0.70866   0.35059   0.00000  Uiso   1.00
C538   C     0.65894   0.90762   0.31440   0.00000  Uiso   1.00
C539   C     0.34431   0.75811   0.18542   0.00000  Uiso   1.00
C540   C     0.45037   0.75938   0.02925   0.00000  Uiso   1.00
C541   C     0.58283   0.83825   0.45242   0.00000  Uiso   1.00
C542   C     0.40697   0.74326   0.00309   0.00000  Uiso   1.00
C543   C     0.62506   0.85725   0.47889   0.00000  Uiso   1.00
C544   C     0.52311   0.98919   0.25230   0.00000  Uiso   1.00
C545   C     0.47713   0.67748   0.24725   0.00000  Uiso   1.00
C546   C     0.46156   0.82817   0.33321   0.00000  Uiso   1.00
Cu547  Cu    0.44071   0.82775   0.24517   0.00000  Uiso   1.00
Cu548  Cu    0.55929   0.83892   0.25484   0.00000  Uiso   1.00
H549   H     0.56744   0.67932   0.25729   0.00000  Uiso   1.00
H550   H     0.40024   0.70781   0.33511   0.00000  Uiso   1.00
H551   H     0.65664   0.69739   0.32476   0.00000  Uiso   1.00
H552   H     0.66437   0.67901   0.37689   0.00000  Uiso   1.00
H553   H     0.61303   0.73069   0.43787   0.00000  Uiso   1.00
H554   H     0.40272   0.89535   0.05659   0.00000  Uiso   1.00
H555   H     0.48512   0.73032   0.07063   0.00000  Uiso   1.00
H556   H     0.58234   0.80821   0.39413   0.00000  Uiso   1.00
H557   H     0.65833   0.87428   0.33463   0.00000  Uiso   1.00
H558   H     0.61237   0.91854   0.32224   0.00000  Uiso   1.00
H559   H     0.36041   0.94126   0.32327   0.00000  Uiso   1.00
H560   H     0.43278   0.98735   0.24229   0.00000  Uiso   1.00
H561   H     0.64671   0.72155   0.17652   0.00000  Uiso   1.00
H562   H     0.39232   0.75043   0.17921   0.00000  Uiso   1.00
H563   H     0.34304   0.78957   0.16375   0.00000  Uiso   1.00
H564   H     0.35617   0.67679   0.49068   0.00000  Uiso   1.00
H565   H     0.35871   0.91799   0.47244   0.00000  Uiso   1.00
H566   H     0.43527   0.83212   0.08830   0.00000  Uiso   1.00
H567   H     0.52298   0.90111   0.42797   0.00000  Uiso   1.00
H568   H     0.62242   0.94133   0.15495   0.00000  Uiso   1.00
H569   H     0.35304   0.95910   0.10651   0.00000  Uiso   1.00
H570   H     0.36914   0.94843   0.15811   0.00000  Uiso   1.00
N571   N     0.64839   0.84735   0.26212   0.00000  Uiso   1.00
N572   N     0.35161   0.81932   0.23788   0.00000  Uiso   1.00
O573   O     0.46148   0.90476   0.24686   0.00000  Uiso   1.00
O574   O     0.35115   0.88276   0.45807   0.00000  Uiso   1.00
O575   O     0.45646   0.82070   0.10900   0.00000  Uiso   1.00
O576   O     0.51668   0.88331   0.39984   0.00000  Uiso   1.00
O577   O     0.33454   0.88093   0.12602   0.00000  Uiso   1.00
O578   O     0.34299   0.75922   0.36710   0.00000  Uiso   1.00
O579   O     0.64203   0.72930   0.45684   0.00000  Uiso   1.00
O580   O     0.37873   0.88364   0.03380   0.00000  Uiso   1.00
O581   O     0.44310   0.72916   0.06532   0.00000  Uiso   1.00
O582   O     0.60727   0.83841   0.40759   0.00000  Uiso   1.00
O583   O     0.34490   0.89657   0.26925   0.00000  Uiso   1.00
O584   O     0.53852   0.76191   0.25314   0.00000  Uiso   1.00
O585   O     0.65494   0.77026   0.23009   0.00000  Uiso   1.00
O586   O     0.56163   0.91420   0.25503   0.00000  Uiso   1.00
O587   O     0.43837   0.75247   0.24498   0.00000  Uiso   1.00
O588   O     0.42185   0.82597   0.30855   0.00000  Uiso   1.00
O589   O     0.57815   0.84070   0.19146   0.00000  Uiso   1.00
O590   O     0.52199   0.83540   0.31671   0.00000  Uiso   1.00
O591   O     0.47801   0.83126   0.18329   0.00000  Uiso   1.00
O592   O     0.35939   0.70025   0.01676   0.00000  Uiso   1.00
C593   C     0.84820   0.93328   0.25138   0.00000  Uiso   1.00
C594   C     0.87178   0.83835   0.16656   0.00000  Uiso   1.00
C595   C     0.77154   0.81476   0.38023   0.00000  Uiso   1.00
C596   C     0.89561   0.84331   0.11792   0.00000  Uiso   1.00
C597   C     0.70137   0.75790   0.43831   0.00000  Uiso   1.00
C598   C     0.98203   0.86703   0.05279   0.00000  Uiso   1.00
C599   C     0.71651   0.77650   0.39480   0.00000  Uiso   1.00
C600   C     0.95977   0.86383   0.09913   0.00000  Uiso   1.00
C601   C     0.80957   0.83515   0.40934   0.00000  Uiso   1.00
C602   C     0.85346   0.82891   0.09021   0.00000  Uiso   1.00
C603   C     0.80405   0.80702   0.44774   0.00000  Uiso   1.00
C604   C     0.81859   0.73339   0.24838   0.00000  Uiso   1.00
C605   C     0.87629   0.82603   0.04391   0.00000  Uiso   1.00
C606   C     0.74791   0.76909   0.46320   0.00000  Uiso   1.00
C607   C     0.93941   0.85084   0.02517   0.00000  Uiso   1.00
C608   C     0.85217   0.81647   0.47157   0.00000  Uiso   1.00
C609   C     0.83651   0.80128   0.01576   0.00000  Uiso   1.00
C610   C     0.66932   0.93475   0.13652   0.00000  Uiso   1.00
C611   C     0.68355   0.70866   0.35059   0.00000  Uiso   1.00
C612   C     0.99228   0.90762   0.31440   0.00000  Uiso   1.00
C613   C     0.67764   0.75811   0.18542   0.00000  Uiso   1.00
C614   C     0.78370   0.75938   0.02925   0.00000  Uiso   1.00
C615   C     0.91616   0.83825   0.45242   0.00000  Uiso   1.00
C616   C     0.74030   0.74326   0.00309   0.00000  Uiso   1.00
C617   C     0.95839   0.85725   0.47889   0.00000  Uiso   1.00
C618   C     0.85645   0.98919   0.25230   0.00000  Uiso   1.00
C619   C     0.81046   0.67748   0.24725   0.00000  Uiso   1.00
C620   C     0.79490   0.82817   0.33321   0.00000  Uiso   1.00
Cu621  Cu    0.77404   0.82775   0.24517   0.00000  Uiso   1.00
Cu622  Cu    0.89263   0.83892   0.25484   0.00000  Uiso   1.00
H623   H     0.90078   0.67932   0.25729   0.00000  Uiso   1.00
H624   H     0.73357   0.70781   0.33511   0.00000  Uiso   1.00
H625   H     0.98997   0.69739   0.32476   0.00000  Uiso   1.00
H626   H     0.99770   0.67901   0.37689   0.00000  Uiso   1.00
H627   H     0.94636   0.73069   0.43787   0.00000  Uiso   1.00
H628   H     0.73606   0.89535   0.05659   0.00000  Uiso   1.00
H629   H     0.81845   0.73032   0.07063   0.00000  Uiso   1.00
H630   H     0.91568   0.80821   0.39413   0.00000  Uiso   1.00
H631   H     0.99166   0.87428   0.33463   0.00000  Uiso   1.00
H632   H     0.94570   0.91854   0.32224   0.00000  Uiso   1.00
H633   H     0.69375   0.94126   0.32327   0.00000  Uiso   1.00
H634   H     0.76611   0.98735   0.24229   0.00000  Uiso   1.00
H635   H     0.98005   0.72155   0.17652   0.00000  Uiso   1.00
H636   H     0.72566   0.75043   0.17921   0.00000  Uiso   1.00
H637   H     0.67638   0.78957   0.16375   0.00000  Uiso   1.00
H638   H     0.68950   0.67679   0.49068   0.00000  Uiso   1.00
H639   H     0.69205   0.91799   0.47244   0.00000  Uiso   1.00
H640   H     0.76861   0.83212   0.08830   0.00000  Uiso   1.00
H641   H     0.85631   0.90111   0.42797   0.00000  Uiso   1.00
H642   H     0.95575   0.94133   0.15495   0.00000  Uiso   1.00
H643   H     0.68638   0.95910   0.10651   0.00000  Uiso   1.00
H644   H     0.70247   0.94843   0.15811   0.00000  Uiso   1.00
N645   N     0.98173   0.84735   0.26212   0.00000  Uiso   1.00
N646   N     0.68494   0.81932   0.23788   0.00000  Uiso   1.00
O647   O     0.79482   0.90476   0.24686   0.00000  Uiso   1.00
O648   O     0.68448   0.88276   0.45807   0.00000  Uiso   1.00
O649   O     0.78980   0.82070   0.10900   0.00000  Uiso   1.00
O650   O     0.85002   0.88331   0.39984   0.00000  Uiso   1.00
O651   O     0.66788   0.88093   0.12602   0.00000  Uiso   1.00
O652   O     0.67632   0.75922   0.36710   0.00000  Uiso   1.00
O653   O     0.97536   0.72930   0.45684   0.00000  Uiso   1.00
O654   O     0.71207   0.88364   0.03380   0.00000  Uiso   1.00
O655   O     0.77644   0.72916   0.06532   0.00000  Uiso   1.00
O656   O     0.94061   0.83841   0.40759   0.00000  Uiso   1.00
O657   O     0.67824   0.89657   0.26925   0.00000  Uiso   1.00
O658   O     0.87185   0.76191   0.25314   0.00000  Uiso   1.00
O659   O     0.98827   0.77026   0.23009   0.00000  Uiso   1.00
O660   O     0.89496   0.91420   0.25503   0.00000  Uiso   1.00
O661   O     0.77171   0.75247   0.24498   0.00000  Uiso   1.00
O662   O     0.75518   0.82597   0.30855   0.00000  Uiso   1.00
O663   O     0.91149   0.84070   0.19146   0.00000  Uiso   1.00
O664   O     0.85532   0.83540   0.31671   0.00000  Uiso   1.00
O665   O     0.81134   0.83126   0.18329   0.00000  Uiso   1.00
O666   O     0.69272   0.70025   0.01676   0.00000  Uiso   1.00
C667   C     0.18153   0.26661   0.75138   0.00000  Uiso   1.00
C668   C     0.20511   0.17169   0.66656   0.00000  Uiso   1.00
C669   C     0.10487   0.14809   0.88023   0.00000  Uiso   1.00
C670   C     0.22894   0.17664   0.61792   0.00000  Uiso   1.00
C671   C     0.03470   0.09123   0.93831   0.00000  Uiso   1.00
C672   C     0.31536   0.20036   0.55279   0.00000  Uiso   1.00
C673   C     0.04984   0.10983   0.89480   0.00000  Uiso   1.00
C674   C     0.29310   0.19717   0.59913   0.00000  Uiso   1.00
C675   C     0.14290   0.16849   0.90934   0.00000  Uiso   1.00
C676   C     0.18679   0.16225   0.59021   0.00000  Uiso   1.00
C677   C     0.13739   0.14035   0.94774   0.00000  Uiso   1.00
C678   C     0.15193   0.06673   0.74838   0.00000  Uiso   1.00
C679   C     0.20963   0.15937   0.54391   0.00000  Uiso   1.00
C680   C     0.08124   0.10243   0.96320   0.00000  Uiso   1.00
C681   C     0.27274   0.18417   0.52517   0.00000  Uiso   1.00
C682   C     0.18550   0.14980   0.97157   0.00000  Uiso   1.00
C683   C     0.16985   0.13462   0.51576   0.00000  Uiso   1.00
C684   C     0.00265   0.26809   0.63652   0.00000  Uiso   1.00
C685   C     0.01688   0.04199   0.85059   0.00000  Uiso   1.00
C686   C     0.32561   0.24096   0.81440   0.00000  Uiso   1.00
C687   C     0.01097   0.09144   0.68542   0.00000  Uiso   1.00
C688   C     0.11704   0.09271   0.52925   0.00000  Uiso   1.00
C689   C     0.24950   0.17158   0.95242   0.00000  Uiso   1.00
C690   C     0.07364   0.07659   0.50309   0.00000  Uiso   1.00
C691   C     0.29172   0.19059   0.97889   0.00000  Uiso   1.00
C692   C     0.18978   0.32252   0.75230   0.00000  Uiso   1.00
C693   C     0.14379   0.01082   0.74725   0.00000  Uiso   1.00
C694   C     0.12823   0.16151   0.83321   0.00000  Uiso   1.00
Cu695  Cu    0.10737   0.16108   0.74517   0.00000  Uiso   1.00
Cu696  Cu    0.22596   0.17225   0.75484   0.00000  Uiso   1.00
H697   H     0.23411   0.01266   0.75729   0.00000  Uiso   1.00
H698   H     0.06690   0.04115   0.83511   0.00000  Uiso   1.00
H699   H     0.32330   0.03073   0.82476   0.00000  Uiso   1.00
H700   H     0.33104   0.01234   0.87689   0.00000  Uiso   1.00
H701   H     0.27970   0.06402   0.93787   0.00000  Uiso   1.00
H702   H     0.06939   0.22869   0.55659   0.00000  Uiso   1.00
H703   H     0.15178   0.06365   0.57063   0.00000  Uiso   1.00
H704   H     0.24901   0.14155   0.89413   0.00000  Uiso   1.00
H705   H     0.32500   0.20762   0.83463   0.00000  Uiso   1.00
H706   H     0.27904   0.25187   0.82224   0.00000  Uiso   1.00
H707   H     0.02708   0.27460   0.82327   0.00000  Uiso   1.00
H708   H     0.09944   0.32069   0.74229   0.00000  Uiso   1.00
H709   H     0.31338   0.05488   0.67652   0.00000  Uiso   1.00
H710   H     0.05899   0.08377   0.67921   0.00000  Uiso   1.00
H711   H     0.00971   0.12290   0.66375   0.00000  Uiso   1.00
H712   H     0.02284   0.01013   0.99068   0.00000  Uiso   1.00
H713   H     0.02538   0.25132   0.97244   0.00000  Uiso   1.00
H714   H     0.10194   0.16545   0.58830   0.00000  Uiso   1.00
H715   H     0.18965   0.23444   0.92797   0.00000  Uiso   1.00
H716   H     0.28909   0.27467   0.65495   0.00000  Uiso   1.00
H717   H     0.01971   0.29244   0.60651   0.00000  Uiso   1.00
H718   H     0.03581   0.28176   0.65811   0.00000  Uiso   1.00
N719   N     0.31506   0.18068   0.76212   0.00000  Uiso   1.00
N720   N     0.01827   0.15265   0.73788   0.00000  Uiso   1.00
O721   O     0.12815   0.23809   0.74686   0.00000  Uiso   1.00
O722   O     0.01782   0.21610   0.95807   0.00000  Uiso   1.00
O723   O     0.12313   0.15404   0.60900   0.00000  Uiso   1.00
O724   O     0.18335   0.21665   0.89984   0.00000  Uiso   1.00
O725   O     0.00121   0.21427   0.62602   0.00000  Uiso   1.00
O726   O     0.00965   0.09255   0.86710   0.00000  Uiso   1.00
O727   O     0.30869   0.06263   0.95684   0.00000  Uiso   1.00
O728   O     0.04540   0.21697   0.53380   0.00000  Uiso   1.00
O729   O     0.10977   0.06249   0.56532   0.00000  Uiso   1.00
O730   O     0.27394   0.17175   0.90759   0.00000  Uiso   1.00
O731   O     0.01157   0.22991   0.76925   0.00000  Uiso   1.00
O732   O     0.20518   0.09524   0.75314   0.00000  Uiso   1.00
O733   O     0.32160   0.10359   0.73009   0.00000  Uiso   1.00
O734   O     0.22829   0.24753   0.75503   0.00000  Uiso   1.00
O735   O     0.10504   0.08580   0.74498   0.00000  Uiso   1.00
O736   O     0.08851   0.15930   0.80855   0.00000  Uiso   1.00
O737   O     0.24482   0.17403   0.69146   0.00000  Uiso   1.00
O738   O     0.18866   0.16874   0.81671   0.00000  Uiso   1.00
O739   O     0.14468   0.16460   0.68329   0.00000  Uiso   1.00
O740   O     0.02606   0.03358   0.51676   0.00000  Uiso   1.00
C741   C     0.51486   0.26661   0.75138   0.00000  Uiso   1.00
C742   C     0.53844   0.17169   0.66656   0.00000  Uiso   1.00
C743   C     0.43820   0.14809   0.88023   0.00000  Uiso   1.00
C744   C     0.56227   0.17664   0.61792   0.00000  Uiso   1.00
C745   C     0.36803   0.09123   0.93831   0.00000  Uiso   1.00
C746   C     0.64870   0.20036   0.55279   0.00000  Uiso   1.00
C747   C     0.38317   0.10983   0.89480   0.00000  Uiso   1.00
C748   C     0.62643   0.19717   0.59913   0.00000  Uiso   1.00
C749   C     0.47624   0.16849   0.90934   0.00000  Uiso   1.00
C750   C     0.52012   0.16225   0.59021   0.00000  Uiso   1.00
C751   C     0.47072   0.14035   0.94774   0.00000  Uiso   1.00
C752   C     0.48526   0.06673   0.74838   0.00000  Uiso   1.00
C753   C     0.54296   0.15937   0.54391   0.00000  Uiso   1.00
C754   C     0.41458   0.10243   0.96320   0.00000  Uiso   1.00
C755   C     0.60607   0.18417   0.52517   0.00000  Uiso   1.00
C756   C     0.51884   0.14980   0.97157   0.00000  Uiso   1.00
C757   C     0.50318   0.13462   0.51576   0.00000  Uiso   1.00
C758   C     0.33598   0.26809   0.63652   0.00000  Uiso   1.00
C759   C     0.35021   0.04199   0.85059   0.00000  Uiso   1.00
C760   C     0.65894   0.24096   0.81440   0.00000  Uiso   1.00
C761   C     0.34431   0.09144   0.68542   0.00000  Uiso   1.00
C762   C     0.45037   0.09271   0.52925   0.00000  Uiso   1.00
C763   C     0.58283   0.17158   0.95242   0.00000  Uiso   1.00
C764   C     0.40697   0.07659   0.50309   0.00000  Uiso   1.00
C765   C     0.62506   0.19059   0.97889   0.00000  Uiso   1.00
C766   C     0.52311   0.32252   0.75230   0.00000  Uiso   1.00
C767   C     0.47713   0.01082   0.74725   0.00000  Uiso   1.00
C768   C     0.46156   0.16151   0.83321   0.00000  Uiso   1.00
Cu769  Cu    0.44071   0.16108   0.74517   0.00000  Uiso   1.00
Cu770  Cu    0.55929   0.17225   0.75484   0.00000  Uiso   1.00
H771   H     0.56744   0.01266   0.75729   0.00000  Uiso   1.00
H772   H     0.40024   0.04115   0.83511   0.00000  Uiso   1.00
H773   H     0.65664   0.03073   0.82476   0.00000  Uiso   1.00
H774   H     0.66437   0.01234   0.87689   0.00000  Uiso   1.00
H775   H     0.61303   0.06402   0.93787   0.00000  Uiso   1.00
H776   H     0.40272   0.22869   0.55659   0.00000  Uiso   1.00
H777   H     0.48512   0.06365   0.57063   0.00000  Uiso   1.00
H778   H     0.58234   0.14155   0.89413   0.00000  Uiso   1.00
H779   H     0.65833   0.20762   0.83463   0.00000  Uiso   1.00
H780   H     0.61237   0.25187   0.82224   0.00000  Uiso   1.00
H781   H     0.36041   0.27460   0.82327   0.00000  Uiso   1.00
H782   H     0.43278   0.32069   0.74229   0.00000  Uiso   1.00
H783   H     0.64671   0.05488   0.67652   0.00000  Uiso   1.00
H784   H     0.39232   0.08377   0.67921   0.00000  Uiso   1.00
H785   H     0.34304   0.12290   0.66375   0.00000  Uiso   1.00
H786   H     0.35617   0.01013   0.99068   0.00000  Uiso   1.00
H787   H     0.35871   0.25132   0.97244   0.00000  Uiso   1.00
H788   H     0.43527   0.16545   0.58830   0.00000  Uiso   1.00
H789   H     0.52298   0.23444   0.92797   0.00000  Uiso   1.00
H790   H     0.62242   0.27467   0.65495   0.00000  Uiso   1.00
H791   H     0.35304   0.29244   0.60651   0.00000  Uiso   1.00
H792   H     0.36914   0.28176   0.65811   0.00000  Uiso   1.00
N793   N     0.64839   0.18068   0.76212   0.00000  Uiso   1.00
N794   N     0.35161   0.15265   0.73788   0.00000  Uiso   1.00
O795   O     0.46148   0.23809   0.74686   0.00000  Uiso   1.00
O796   O     0.35115   0.21610   0.95807   0.00000  Uiso   1.00
O797   O     0.45646   0.15404   0.60900   0.00000  Uiso   1.00
O798   O     0.51668   0.21665   0.89984   0.00000  Uiso   1.00
O799   O     0.33454   0.21427   0.62602   0.00000  Uiso   1.00
O800   O     0.34299   0.09255   0.86710   0.00000  Uiso   1.00
O801   O     0.64203   0.06263   0.95684   0.00000  Uiso   1.00
O802   O     0.37873   0.21697   0.53380   0.00000  Uiso   1.00
O803   O     0.44310   0.06249   0.56532   0.00000  Uiso   1.00
O804   O     0.60727   0.17175   0.90759   0.00000  Uiso   1.00
O805   O     0.34490   0.22991   0.76925   0.00000  Uiso   1.00
O806   O     0.53852   0.09524   0.75314   0.00000  Uiso   1.00
O807   O     0.65494   0.10359   0.73009   0.00000  Uiso   1.00
O808   O     0.56163   0.24753   0.75503   0.00000  Uiso   1.00
O809   O     0.43837   0.08580   0.74498   0.00000  Uiso   1.00
O810   O     0.42185   0.15930   0.80855   0.00000  Uiso   1.00
O811   O     0.57815   0.17403   0.69146   0.00000  Uiso   1.00
O812   O     0.52199   0.16874   0.81671   0.00000  Uiso   1.00
O813   O     0.47801   0.16460   0.68329   0.00000  Uiso   1.00
O814   O     0.35939   0.03358   0.51676   0.00000  Uiso   1.00
C815   C     0.84820   0.26661   0.75138   0.00000  Uiso   1.00
C816   C     0.87178   0.17169   0.66656   0.00000  Uiso   1.00
C817   C     0.77154   0.14809   0.88023   0.00000  Uiso   1.00
C818   C     0.89561   0.17664   0.61792   0.00000  Uiso   1.00
C819   C     0.70137   0.09123   0.93831   0.00000  Uiso   1.00
C820   C     0.98203   0.20036   0.55279   0.00000  Uiso   1.00
C821   C     0.71651   0.10983   0.89480   0.00000  Uiso   1.00
C822   C     0.95977   0.19717   0.59913   0.00000  Uiso   1.00
C823   C     0.80957   0.16849   0.90934   0.00000  Uiso   1.00
C824   C     0.85346   0.16225   0.59021   0.00000  Uiso   1.00
C825   C     0.80405   0.14035   0.94774   0.00000  Uiso   1.00
C826   C     0.81859   0.06673   0.74838   0.00000  Uiso   1.00
C827   C     0.87629   0.15937   0.54391   0.00000  Uiso   1.00
C828   C     0.74791   0.10243   0.96320   0.00000  Uiso   1.00
C829   C     0.93941   0.18417   0.52517   0.00000  Uiso   1.00
C830   C     0.85217   0.14980   0.97157   0.00000  Uiso   1.00
C831   C     0.83651   0.13462   0.51576   0.00000  Uiso   1.00
C832   C     0.66932   0.26809   0.63652   0.00000  Uiso   1.00
C833   C     0.68355   0.04199   0.85059   0.00000  Uiso   1.00
C834   C     0.99228   0.24096   0.81440   0.00000  Uiso   1.00
C835   C     0.67764   0.09144   0.68542   0.00000  Uiso   1.00
C836   C     0.78370   0.09271   0.52925   0.00000  Uiso   1.00
C837   C     0.91616   0.17158   0.95242   0.00000  Uiso   1.00
C838   C     0.74030   0.07659   0.50309   0.00000  Uiso   1.00
C839   C     0.95839   0.19059   0.97889   0.00000  Uiso   1.00
C840   C     0.85645   0.32252   0.75230   0.00000  Uiso   1.00
C841   C     0.81046   0.01082   0.74725   0.00000  Uiso   1.00
C842   C     0.79490   0.16151   0.83321   0.00000  Uiso   1.00
Cu843  Cu    0.77404   0.16108   0.74517   0.00000  Uiso   1.00
Cu844  Cu    0.89263   0.17225   0.75484   0.00000  Uiso   1.00
H845   H     0.90078   0.01266   0.75729   0.00000  Uiso   1.00
H846   H     0.73357   0.04115   0.83511   0.00000  Uiso   1.00
H847   H     0.98997   0.03073   0.82476   0.00000  Uiso   1.00
H848   H     0.99770   0.01234   0.87689   0.00000  Uiso   1.00
H849   H     0.94636   0.06402   0.93787   0.00000  Uiso   1.00
H850   H     0.73606   0.22869   0.55659   0.00000  Uiso   1.00
H851   H     0.81845   0.06365   0.57063   0.00000  Uiso   1.00
H852   H     0.91568   0.14155   0.89413   0.00000  Uiso   1.00
H853   H     0.99166   0.20762   0.83463   0.00000  Uiso   1.00
H854   H     0.94570   0.25187   0.82224   0.00000  Uiso   1.00
H855   H     0.69375   0.27460   0.82327   0.00000  Uiso   1.00
H856   H     0.76611   0.32069   0.74229   0.00000  Uiso   1.00
H857   H     0.98005   0.05488   0.67652   0.00000  Uiso   1.00
H858   H     0.72566   0.08377   0.67921   0.00000  Uiso   1.00
H859   H     0.67638   0.12290   0.66375   0.00000  Uiso   1.00
H860   H     0.68950   0.01013   0.99068   0.00000  Uiso   1.00
H861   H     0.69205   0.25132   0.97244   0.00000  Uiso   1.00
H862   H     0.76861   0.16545   0.58830   0.00000  Uiso   1.00
H863   H     0.85631   0.23444   0.92797   0.00000  Uiso   1.00
H864   H     0.95575   0.27467   0.65495   0.00000  Uiso   1.00
H865   H     0.68638   0.29244   0.60651   0.00000  Uiso   1.00
H866   H     0.70247   0.28176   0.65811   0.00000  Uiso   1.00
N867   N     0.98173   0.18068   0.76212   0.00000  Uiso   1.00
N868   N     0.68494   0.15265   0.73788   0.00000  Uiso   1.00
O869   O     0.79482   0.23809   0.74686   0.00000  Uiso   1.00
O870   O     0.68448   0.21610   0.95807   0.00000  Uiso   1.00
O871   O     0.78980   0.15404   0.60900   0.00000  Uiso   1.00
O872   O     0.85002   0.21665   0.89984   0.00000  Uiso   1.00
O873   O     0.66788   0.21427   0.62602   0.00000  Uiso   1.00
O874   O     0.67632   0.09255   0.86710   0.00000  Uiso   1.00
O875   O     0.97536   0.06263   0.95684   0.00000  Uiso   1.00
O876   O     0.71207   0.21697   0.53380   0.00000  Uiso   1.00
O877   O     0.77644   0.06249   0.56532   0.00000  Uiso   1.00
O878   O     0.94061   0.17175   0.90759   0.00000  Uiso   1.00
O879   O     0.67824   0.22991   0.76925   0.00000  Uiso   1.00
O880   O     0.87185   0.09524   0.75314   0.00000  Uiso   1.00
O881   O     0.98827   0.10359   0.73009   0.00000  Uiso   1.00
O882   O     0.89496   0.24753   0.75503   0.00000  Uiso   1.00
O883   O     0.77171   0.08580   0.74498   0.00000  Uiso   1.00
O884   O     0.75518   0.15930   0.80855   0.00000  Uiso   1.00
O885   O     0.91149   0.17403   0.69146   0.00000  Uiso   1.00
O886   O     0.85532   0.16874   0.81671   0.00000  Uiso   1.00
O887   O     0.81134   0.16460   0.68329   0.00000  Uiso   1.00
O888   O     0.69272   0.03358   0.51676   0.00000  Uiso   1.00
C889   C     0.18153   0.59995   0.75138   0.00000  Uiso   1.00
C890   C     0.20511   0.50502   0.66656   0.00000  Uiso   1.00
C891   C     0.10487   0.48142   0.88023   0.00000  Uiso   1.00
C892   C     0.22894   0.50998   0.61792   0.00000  Uiso   1.00
C893   C     0.03470   0.42456   0.93831   0.00000  Uiso   1.00
C894   C     0.31536   0.53369   0.55279   0.00000  Uiso   1.00
C895   C     0.04984   0.44316   0.89480   0.00000  Uiso   1.00
C896   C     0.29310   0.53050   0.59913   0.00000  Uiso   1.00
C897   C     0.14290   0.50182   0.90934   0.00000  Uiso   1.00
C898   C     0.18679   0.49558   0.59021   0.00000  Uiso   1.00
C899   C     0.13739   0.47368   0.94774   0.00000  Uiso   1.00
C900   C     0.15193   0.40006   0.74838   0.00000  Uiso   1.00
C901   C     0.20963   0.49270   0.54391   0.00000  Uiso   1.00
C902   C     0.08124   0.43576   0.96320   0.00000  Uiso   1.00
C903   C     0.27274   0.51751   0.52517   0.00000  Uiso   1.00
C904   C     0.18550   0.48314   0.97157   0.00000  Uiso   1.00
C905   C     0.16985   0.46795   0.51576   0.00000  Uiso   1.00
C906   C     0.00265   0.60142   0.63652   0.00000  Uiso   1.00
C907   C     0.01688   0.37533   0.85059   0.00000  Uiso   1.00
C908   C     0.32561   0.57429   0.81440   0.00000  Uiso   1.00
C909   C     0.01097   0.42478   0.68542   0.00000  Uiso   1.00
C910   C     0.11704   0.42604   0.52925   0.00000  Uiso   1.00
C911   C     0.24950   0.50492   0.95242   0.00000  Uiso   1.00
C912   C     0.07364   0.40993   0.50309   0.00000  Uiso   1.00
C913   C     0.29172   0.52392   0.97889   0.00000  Uiso   1.00
C914   C     0.18978   0.65586   0.75230   0.00000  Uiso   1.00
C915   C     0.14379   0.34415   0.74725   0.00000  Uiso   1.00
C916   C     0.12823   0.49484   0.83321   0.00000  Uiso   1.00
Cu917  Cu    0.10737   0.49441   0.74517   0.00000  Uiso   1.00
Cu918  Cu    0.22596   0.50559   0.75484   0.00000  Uiso   1.00
H919   H     0.23411   0.34599   0.75729   0.00000  Uiso   1.00
H920   H     0.06690   0.37448   0.83511   0.00000  Uiso   1.00
H921   H     0.32330   0.36406   0.82476   0.00000  Uiso   1.00
H922   H     0.33104   0.34568   0.87689   0.00000  Uiso   1.00
H923   H     0.27970   0.39736   0.93787   0.00000  Uiso   1.00
H924   H     0.06939   0.56202   0.55659   0.00000  Uiso   1.00
H925   H     0.15178   0.39698   0.57063   0.00000  Uiso   1.00
H926   H     0.24901   0.47488   0.89413   0.00000  Uiso   1.00
H927   H     0.32500   0.54095   0.83463   0.00000  Uiso   1.00
H928   H     0.27904   0.58521   0.82224   0.00000  Uiso   1.00
H929   H     0.02708   0.60793   0.82327   0.00000  Uiso   1.00
H930   H     0.09944   0.65402   0.74229   0.00000  Uiso   1.00
H931   H     0.31338   0.38822   0.67652   0.00000  Uiso   1.00
H932   H     0.05899   0.41710   0.67921   0.00000  Uiso   1.00
H933   H     0.00971   0.45624   0.66375   0.00000  Uiso   1.00
H934   H     0.02284   0.34346   0.99068   0.00000  Uiso   1.00
H935   H     0.02538   0.58465   0.97244   0.00000  Uiso   1.00
H936   H     0.10194   0.49878   0.58830   0.00000  Uiso   1.00
H937   H     0.18965   0.56778   0.92797   0.00000  Uiso   1.00
H938   H     0.28909   0.60800   0.65495   0.00000  Uiso   1.00
H939   H     0.01971   0.62577   0.60651   0.00000  Uiso   1.00
H940   H     0.03581   0.61509   0.65811   0.00000  Uiso   1.00
N941   N     0.31506   0.51401   0.76212   0.00000  Uiso   1.00
N942   N     0.01827   0.48599   0.73788   0.00000  Uiso   1.00
O943   O     0.12815   0.57142   0.74686   0.00000  Uiso   1.00
O944   O     0.01782   0.54943   0.95807   0.00000  Uiso   1.00
O945   O     0.12313   0.48737   0.60900   0.00000  Uiso   1.00
O946   O     0.18335   0.54998   0.89984   0.00000  Uiso   1.00
O947   O     0.00121   0.54760   0.62602   0.00000  Uiso   1.00
O948   O     0.00965   0.42589   0.86710   0.00000  Uiso   1.00
O949   O     0.30869   0.39597   0.95684   0.00000  Uiso   1.00
O950   O     0.04540   0.55031   0.53380   0.00000  Uiso   1.00
O951   O     0.10977   0.39582   0.56532   0.00000  Uiso   1.00
O952   O     0.27394   0.50508   0.90759   0.00000  Uiso   1.00
O953   O     0.01157   0.56324   0.76925   0.00000  Uiso   1.00
O954   O     0.20518   0.42858   0.75314   0.00000  Uiso   1.00
O955   O     0.32160   0.43692   0.73009   0.00000  Uiso   1.00
O956   O     0.22829   0.58086   0.75503   0.00000  Uiso   1.00
O957   O     0.10504   0.41914   0.74498   0.00000  Uiso   1.00
O958   O     0.08851   0.49263   0.80855   0.00000  Uiso   1.00
O959   O     0.24482   0.50737   0.69146   0.00000  Uiso   1.00
O960   O     0.18866   0.50207   0.81671   0.00000  Uiso   1.00
O961   O     0.14468   0.49793   0.68329   0.00000  Uiso   1.00
O962   O     0.02606   0.36691   0.51676   0.00000  Uiso   1.00
C963   C     0.51486   0.59995   0.75138   0.00000  Uiso   1.00
C964   C     0.53844   0.50502   0.66656   0.00000  Uiso   1.00
C965   C     0.43820   0.48142   0.88023   0.00000  Uiso   1.00
C966   C     0.56227   0.50998   0.61792   0.00000  Uiso   1.00
C967   C     0.36803   0.42456   0.93831   0.00000  Uiso   1.00
C968   C     0.64870   0.53369   0.55279   0.00000  Uiso   1.00
C969   C     0.38317   0.44316   0.89480   0.00000  Uiso   1.00
C970   C     0.62643   0.53050   0.59913   0.00000  Uiso   1.00
C971   C     0.47624   0.50182   0.90934   0.00000  Uiso   1.00
C972   C     0.52012   0.49558   0.59021   0.00000  Uiso   1.00
C973   C     0.47072   0.47368   0.94774   0.00000  Uiso   1.00
C974   C     0.48526   0.40006   0.74838   0.00000  Uiso   1.00
C975   C     0.54296   0.49270   0.54391   0.00000  Uiso   1.00
C976   C     0.41458   0.43576   0.96320   0.00000  Uiso   1.00
C977   C     0.60607   0.51751   0.52517   0.00000  Uiso   1.00
C978   C     0.51884   0.48314   0.97157   0.00000  Uiso   1.00
C979   C     0.50318   0.46795   0.51576   0.00000  Uiso   1.00
C980   C     0.33598   0.60142   0.63652   0.00000  Uiso   1.00
C981   C     0.35021   0.37533   0.85059   0.00000  Uiso   1.00
C982   C     0.65894   0.57429   0.81440   0.00000  Uiso   1.00
C983   C     0.34431   0.42478   0.68542   0.00000  Uiso   1.00
C984   C     0.45037   0.42604   0.52925   0.00000  Uiso   1.00
C985   C     0.58283   0.50492   0.95242   0.00000  Uiso   1.00
C986   C     0.40697   0.40993   0.50309   0.00000  Uiso   1.00
C987   C     0.62506   0.52392   0.97889   0.00000  Uiso   1.00
C988   C     0.52311   0.65586   0.75230   0.00000  Uiso   1.00
C989   C     0.47713   0.34415   0.74725   0.00000  Uiso   1.00
C990   C     0.46156   0.49484   0.83321   0.00000  Uiso   1.00
Cu991  Cu    0.44071   0.49441   0.74517   0.00000  Uiso   1.00
Cu992  Cu    0.55929   0.50559   0.75484   0.00000  Uiso   1.00
H993   H     0.56744   0.34599   0.75729   0.00000  Uiso   1.00
H994   H     0.40024   0.37448   0.83511   0.00000  Uiso   1.00
H995   H     0.65664   0.36406   0.82476   0.00000  Uiso   1.00
H996   H     0.66437   0.34568   0.87689   0.00000  Uiso   1.00
H997   H     0.61303   0.39736   0.93787   0.00000  Uiso   1.00
H998   H     0.40272   0.56202   0.55659   0.00000  Uiso   1.00
H999   H     0.48512   0.39698   0.57063   0.00000  Uiso   1.00
H1000  H     0.58234   0.47488   0.89413   0.00000  Uiso   1.00
H1001  H     0.65833   0.54095   0.83463   0.00000  Uiso   1.00
H1002  H     0.61237   0.58521   0.82224   0.00000  Uiso   1.00
H1003  H     0.36041   0.60793   0.82327   0.00000  Uiso   1.00
H1004  H     0.43278   0.65402   0.74229   0.00000  Uiso   1.00
H1005  H     0.64671   0.38822   0.67652   0.00000  Uiso   1.00
H1006  H     0.39232   0.41710   0.67921   0.00000  Uiso   1.00
H1007  H     0.34304   0.45624   0.66375   0.00000  Uiso   1.00
H1008  H     0.35617   0.34346   0.99068   0.00000  Uiso   1.00
H1009  H     0.35871   0.58465   0.97244   0.00000  Uiso   1.00
H1010  H     0.43527   0.49878   0.58830   0.00000  Uiso   1.00
H1011  H     0.52298   0.56778   0.92797   0.00000  Uiso   1.00
H1012  H     0.62242   0.60800   0.65495   0.00000  Uiso   1.00
H1013  H     0.35304   0.62577   0.60651   0.00000  Uiso   1.00
H1014  H     0.36914   0.61509   0.65811   0.00000  Uiso   1.00
N1015  N     0.64839   0.51401   0.76212   0.00000  Uiso   1.00
N1016  N     0.35161   0.48599   0.73788   0.00000  Uiso   1.00
O1017  O     0.46148   0.57142   0.74686   0.00000  Uiso   1.00
O1018  O     0.35115   0.54943   0.95807   0.00000  Uiso   1.00
O1019  O     0.45646   0.48737   0.60900   0.00000  Uiso   1.00
O1020  O     0.51668   0.54998   0.89984   0.00000  Uiso   1.00
O1021  O     0.33454   0.54760   0.62602   0.00000  Uiso   1.00
O1022  O     0.34299   0.42589   0.86710   0.00000  Uiso   1.00
O1023  O     0.64203   0.39597   0.95684   0.00000  Uiso   1.00
O1024  O     0.37873   0.55031   0.53380   0.00000  Uiso   1.00
O1025  O     0.44310   0.39582   0.56532   0.00000  Uiso   1.00
O1026  O     0.60727   0.50508   0.90759   0.00000  Uiso   1.00
O1027  O     0.34490   0.56324   0.76925   0.00000  Uiso   1.00
O1028  O     0.53852   0.42858   0.75314   0.00000  Uiso   1.00
O1029  O     0.65494   0.43692   0.73009   0.00000  Uiso   1.00
O1030  O     0.56163   0.58086   0.75503   0.00000  Uiso   1.00
O1031  O     0.43837   0.41914   0.74498   0.00000  Uiso   1.00
O1032  O     0.42185   0.49263   0.80855   0.00000  Uiso   1.00
O1033  O     0.57815   0.50737   0.69146   0.00000  Uiso   1.00
O1034  O     0.52199   0.50207   0.81671   0.00000  Uiso   1.00
O1035  O     0.47801   0.49793   0.68329   0.00000  Uiso   1.00
O1036  O     0.35939   0.36691   0.51676   0.00000  Uiso   1.00
C1037  C     0.84820   0.59995   0.75138   0.00000  Uiso   1.00
C1038  C     0.87178   0.50502   0.66656   0.00000  Uiso   1.00
C1039  C     0.77154   0.48142   0.88023   0.00000  Uiso   1.00
C1040  C     0.89561   0.50998   0.61792   0.00000  Uiso   1.00
C1041  C     0.70137   0.42456   0.93831   0.00000  Uiso   1.00
C1042  C     0.98203   0.53369   0.55279   0.00000  Uiso   1.00
C1043  C     0.71651   0.44316   0.89480   0.00000  Uiso   1.00
C1044  C     0.95977   0.53050   0.59913   0.00000  Uiso   1.00
C1045  C     0.80957   0.50182   0.90934   0.00000  Uiso   1.00
C1046  C     0.85346   0.49558   0.59021   0.00000  Uiso   1.00
C1047  C     0.80405   0.47368   0.94774   0.00000  Uiso   1.00
C1048  C     0.81859   0.40006   0.74838   0.00000  Uiso   1.00
C1049  C     0.87629   0.49270   0.54391   0.00000  Uiso   1.00
C1050  C     0.74791   0.43576   0.96320   0.00000  Uiso   1.00
C1051  C     0.93941   0.51751   0.52517   0.00000  Uiso   1.00
C1052  C     0.85217   0.48314   0.97157   0.00000  Uiso   1.00
C1053  C     0.83651   0.46795   0.51576   0.00000  Uiso   1.00
C1054  C     0.66932   0.60142   0.63652   0.00000  Uiso   1.00
C1055  C     0.68355   0.37533   0.85059   0.00000  Uiso   1.00
C1056  C     0.99228   0.57429   0.81440   0.00000  Uiso   1.00
C1057  C     0.67764   0.42478   0.68542   0.00000  Uiso   1.00
C1058  C     0.78370   0.42604   0.52925   0.00000  Uiso   1.00
C1059  C     0.91616   0.50492   0.95242   0.00000  Uiso   1.00
C1060  C     0.74030   0.40993   0.50309   0.00000  Uiso   1.00
C1061  C     0.95839   0.52392   0.97889   0.00000  Uiso   1.00
C1062  C     0.85645   0.65586   0.75230   0.00000  Uiso   1.00
C1063  C     0.81046   0.34415   0.74725   0.00000  Uiso   1.00
C1064  C     0.79490   0.49484   0.83321   0.00000  Uiso   1.00
Cu1065 Cu    0.77404   0.49441   0.74517   0.00000  Uiso   1.00
Cu1066 Cu    0.89263   0.50559   0.75484   0.00000  Uiso   1.00
H1067  H     0.90078   0.34599   0.75729   0.00000  Uiso   1.00
H1068  H     0.73357   0.37448   0.83511   0.00000  Uiso   1.00
H1069  H     0.98997   0.36406   0.82476   0.00000  Uiso   1.00
H1070  H     0.99770   0.34568   0.87689   0.00000  Uiso   1.00
H1071  H     0.94636   0.39736   0.93787   0.00000  Uiso   1.00
H1072  H     0.73606   0.56202   0.55659   0.00000  Uiso   1.00
H1073  H     0.81845   0.39698   0.57063   0.00000  Uiso   1.00
H1074  H     0.91568   0.47488   0.89413   0.00000  Uiso   1.00
H1075  H     0.99166   0.54095   0.83463   0.00000  Uiso   1.00
H1076  H     0.94570   0.58521   0.82224   0.00000  Uiso   1.00
H1077  H     0.69375   0.60793   0.82327   0.00000  Uiso   1.00
H1078  H     0.76611   0.65402   0.74229   0.00000  Uiso   1.00
H1079  H     0.98005   0.38822   0.67652   0.00000  Uiso   1.00
H1080  H     0.72566   0.41710   0.67921   0.00000  Uiso   1.00
H1081  H     0.67638   0.45624   0.66375   0.00000  Uiso   1.00
H1082  H     0.68950   0.34346   0.99068   0.00000  Uiso   1.00
H1083  H     0.69205   0.58465   0.97244   0.00000  Uiso   1.00
H1084  H     0.76861   0.49878   0.58830   0.00000  Uiso   1.00
H1085  H     0.85631   0.56778   0.92797   0.00000  Uiso   1.00
H1086  H     0.95575   0.60800   0.65495   0.00000  Uiso   1.00
H1087  H     0.68638   0.62577   0.60651   0.00000  Uiso   1.00
H1088  H     0.70247   0.61509   0.65811   0.00000  Uiso   1.00
N1089  N     0.98173   0.51401   0.76212   0.00000  Uiso   1.00
N1090  N     0.68494   0.48599   0.73788   0.00000  Uiso   1.00
O1091  O     0.79482   0.57142   0.74686   0.00000  Uiso   1.00
O1092  O     0.68448   0.54943   0.95807   0.00000  Uiso   1.00
O1093  O     0.78980   0.48737   0.60900   0.00000  Uiso   1.00
O1094  O     0.85002   0.54998   0.89984   0.00000  Uiso   1.00
O1095  O     0.66788   0.54760   0.62602   0.00000  Uiso   1.00
O1096  O     0.67632   0.42589   0.86710   0.00000  Uiso   1.00
O1097  O     0.97536   0.39597   0.95684   0.00000  Uiso   1.00
O1098  O     0.71207   0.55031   0.53380   0.00000  Uiso   1.00
O1099  O     0.77644   0.39582   0.56532   0.00000  Uiso   1.00
O1100  O     0.94061   0.50508   0.90759   0.00000  Uiso   1.00
O1101  O     0.67824   0.56324   0.76925   0.00000  Uiso   1.00
O1102  O     0.87185   0.42858   0.75314   0.00000  Uiso   1.00
O1103  O     0.98827   0.43692   0.73009   0.00000  Uiso   1.00
O1104  O     0.89496   0.58086   0.75503   0.00000  Uiso   1.00
O1105  O     0.77171   0.41914   0.74498   0.00000  Uiso   1.00
O1106  O     0.75518   0.49263   0.80855   0.00000  Uiso   1.00
O1107  O     0.91149   0.50737   0.69146   0.00000  Uiso   1.00
O1108  O     0.85532   0.50207   0.81671   0.00000  Uiso   1.00
O1109  O     0.81134   0.49793   0.68329   0.00000  Uiso   1.00
O1110  O     0.69272   0.36691   0.51676   0.00000  Uiso   1.00
C1111  C     0.18153   0.93328   0.75138   0.00000  Uiso   1.00
C1112  C     0.20511   0.83835   0.66656   0.00000  Uiso   1.00
C1113  C     0.10487   0.81476   0.88023   0.00000  Uiso   1.00
C1114  C     0.22894   0.84331   0.61792   0.00000  Uiso   1.00
C1115  C     0.03470   0.75790   0.93831   0.00000  Uiso   1.00
C1116  C     0.31536   0.86703   0.55279   0.00000  Uiso   1.00
C1117  C     0.04984   0.77650   0.89480   0.00000  Uiso   1.00
C1118  C     0.29310   0.86383   0.59913   0.00000  Uiso   1.00
C1119  C     0.14290   0.83515   0.90934   0.00000  Uiso   1.00
C1120  C     0.18679   0.82891   0.59021   0.00000  Uiso   1.00
C1121  C     0.13739   0.80702   0.94774   0.00000  Uiso   1.00
C1122  C     0.15193   0.73339   0.74838   0.00000  Uiso   1.00
C1123  C     0.20963   0.82603   0.54391   0.00000  Uiso   1.00
C1124  C     0.08124   0.76909   0.96320   0.00000  Uiso   1.00
C1125  C     0.27274   0.85084   0.52517   0.00000  Uiso   1.00
C1126  C     0.18550   0.81647   0.97157   0.00000  Uiso   1.00
C1127  C     0.16985   0.80128   0.51576   0.00000  Uiso   1.00
C1128  C     0.00265   0.93475   0.63652   0.00000  Uiso   1.00
C1129  C     0.01688   0.70866   0.85059   0.00000  Uiso   1.00
C1130  C     0.32561   0.90762   0.81440   0.00000  Uiso   1.00
C1131  C     0.01097   0.75811   0.68542   0.00000  Uiso   1.00
C1132  C     0.11704   0.75938   0.52925   0.00000  Uiso   1.00
C1133  C     0.24950   0.83825   0.95242   0.00000  Uiso   1.00
C1134  C     0.07364   0.74326   0.50309   0.00000  Uiso   1.00
C1135  C     0.29172   0.85725   0.97889   0.00000  Uiso   1.00
C1136  C     0.18978   0.98919   0.75230   0.00000  Uiso   1.00
C1137  C     0.14379   0.67748   0.74725   0.00000  Uiso   1.00
C1138  C     0.12823   0.82817   0.83321   0.00000  Uiso   1.00
Cu1139 Cu    0.10737   0.82775   0.74517   0.00000  Uiso   1.00
Cu1140 Cu    0.22596   0.83892   0.75484   0.00000  Uiso   1.00
H1141  H     0.23411   0.67932   0.75729   0.00000  Uiso   1.00
H1142  H     0.06690   0.70781   0.83511   0.00000  Uiso   1.00
H1143  H     0.32330   0.69739   0.82476   0.00000  Uiso   1.00
H1144  H     0.33104   0.67901   0.87689   0.00000  Uiso   1.00
H1145  H     0.27970   0.73069   0.93787   0.00000  Uiso   1.00
H1146  H     0.06939   0.89535   0.55659   0.00000  Uiso   1.00
H1147  H     0.15178   0.73032   0.57063   0.00000  Uiso   1.00
H1148  H     0.24901   0.80821   0.89413   0.00000  Uiso   1.00
H1149  H     0.32500   0.87428   0.83463   0.00000  Uiso   1.00
H1150  H     0.27904   0.91854   0.82224   0.00000  Uiso   1.00
H1151  H     0.02708   0.94126   0.82327   0.00000  Uiso   1.00
H1152  H     0.09944   0.98735   0.74229   0.00000  Uiso   1.00
H1153  H     0.31338   0.72155   0.67652   0.00000  Uiso   1.00
H1154  H     0.05899   0.75043   0.67921   0.00000  Uiso   1.00
H1155  H     0.00971   0.78957   0.66375   0.00000  Uiso   1.00
H1156  H     0.02284   0.67679   0.99068   0.00000  Uiso   1.00
H1157  H     0.02538   0.91799   0.97244   0.00000  Uiso   1.00
H1158  H     0.10194   0.83212   0.58830   0.00000  Uiso   1.00
H1159  H     0.18965   0.90111   0.92797   0.00000  Uiso   1.00
H1160  H     0.28909   0.94133   0.65495   0.00000  Uiso   1.00
H1161  H     0.01971   0.95910   0.60651   0.00000  Uiso   1.00
H1162  H     0.03581   0.94843   0.65811   0.00000  Uiso   1.00
N1163  N     0.31506   0.84735   0.76212   0.00000  Uiso   1.00
N1164  N     0.01827   0.81932   0.73788   0.00000  Uiso   1.00
O1165  O     0.12815   0.90476   0.74686   0.00000  Uiso   1.00
O1166  O     0.01782   0.88276   0.95807   0.00000  Uiso   1.00
O1167  O     0.12313   0.82070   0.60900   0.00000  Uiso   1.00
O1168  O     0.18335   0.88331   0.89984   0.00000  Uiso   1.00
O1169  O     0.00121   0.88093   0.62602   0.00000  Uiso   1.00
O1170  O     0.00965   0.75922   0.86710   0.00000  Uiso   1.00
O1171  O     0.30869   0.72930   0.95684   0.00000  Uiso   1.00
O1172  O     0.04540   0.88364   0.53380   0.00000  Uiso   1.00
O1173  O     0.10977   0.72916   0.56532   0.00000  Uiso   1.00
O1174  O     0.27394   0.83841   0.90759   0.00000  Uiso   1.00
O1175  O     0.01157   0.89657   0.76925   0.00000  Uiso   1.00
O1176  O     0.20518   0.76191   0.75314   0.00000  Uiso   1.00
O1177  O     0.32160   0.77026   0.73009   0.00000  Uiso   1.00
O1178  O     0.22829   0.91420   0.75503   0.00000  Uiso   1.00
O1179  O     0.10504   0.75247   0.74498   0.00000  Uiso   1.00
O1180  O     0.08851   0.82597   0.80855   0.00000  Uiso   1.00
O1181  O     0.24482   0.84070   0.69146   0.00000  Uiso   1.00
O1182  O     0.18866   0.83540   0.81671   0.00000  Uiso   1.00
O1183  O     0.14468   0.83126   0.68329   0.00000  Uiso   1.00
O1184  O     0.02606   0.70025   0.51676   0.00000  Uiso   1.00
C1185  C     0.51486   0.93328   0.75138   0.00000  Uiso   1.00
C1186  C     0.53844   0.83835   0.66656   0.00000  Uiso   1.00
C1187  C     0.43820   0.81476   0.88023   0.00000  Uiso   1.00
C1188  C     0.56227   0.84331   0.61792   0.00000  Uiso   1.00
C1189  C     0.36803   0.75790   0.93831   0.00000  Uiso   1.00
C1190  C     0.64870   0.86703   0.55279   0.00000  Uiso   1.00
C1191  C     0.38317   0.77650   0.89480   0.00000  Uiso   1.00
C1192  C     0.62643   0.86383   0.59913   0.00000  Uiso   1.00
C1193  C     0.47624   0.83515   0.90934   0.00000  Uiso   1.00
C1194  C     0.52012   0.82891   0.59021   0.00000  Uiso   1.00
C1195  C     0.47072   0.80702   0.94774   0.00000  Uiso   1.00
C1196  C     0.48526   0.73339   0.74838   0.00000  Uiso   1.00
C1197  C     0.54296   0.82603   0.54391   0.00000  Uiso   1.00
C1198  C     0.41458   0.76909   0.96320   0.00000  Uiso   1.00
C1199  C     0.60607   0.85084   0.52517   0.00000  Uiso   1.00
C1200  C     0.51884   0.81647   0.97157   0.00000  Uiso   1.00
C1201  C     0.50318   0.80128   0.51576   0.00000  Uiso   1.00
C1202  C     0.33598   0.93475   0.63652   0.00000  Uiso   1.00
C1203  C     0.35021   0.70866   0.85059   0.00000  Uiso   1.00
C1204  C     0.65894   0.90762   0.81440   0.00000  Uiso   1.00
C1205  C     0.34431   0.75811   0.68542   0.00000  Uiso   1.00
C1206  C     0.45037   0.75938   0.52925   0.00000  Uiso   1.00
C1207  C     0.58283   0.83825   0.95242   0.00000  Uiso   1.00
C1208  C     0.40697   0.74326   0.50309   0.00000  Uiso   1.00
C1209  C     0.62506   0.85725   0.97889   0.00000  Uiso   1.00
C1210  C     0.52311   0.98919   0.75230   0.00000  Uiso   1.00
C1211  C     0.47713   0.67748   0.74725   0.00000  Uiso   1.00
C1212  C     0.46156   0.82817   0.83321   0.00000  Uiso   1.00
Cu1213 Cu    0.44071   0.82775   0.74517   0.00000  Uiso   1.00
Cu1214 Cu    0.55929   0.83892   0.75484   0.00000  Uiso   1.00
H1215  H     0.56744   0.67932   0.75729   0.00000  Uiso   1.00
H1216  H     0.40024   0.70781   0.83511   0.00000  Uiso   1.00
H1217  H     0.65664   0.69739   0.82476   0.00000  Uiso   1.00
H1218  H     0.66437   0.67901   0.87689   0.00000  Uiso   1.00
H1219  H     0.61303   0.73069   0.93787   0.00000  Uiso   1.00
H1220  H     0.40272   0.89535   0.55659   0.00000  Uiso   1.00
H1221  H     0.48512   0.73032   0.57063   0.00000  Uiso   1.00
H1222  H     0.58234   0.80821   0.89413   0.00000  Uiso   1.00
H1223  H     0.65833   0.87428   0.83463   0.00000  Uiso   1.00
H1224  H     0.61237   0.91854   0.82224   0.00000  Uiso   1.00
H1225  H     0.36041   0.94126   0.82327   0.00000  Uiso   1.00
H1226  H     0.43278   0.98735   0.74229   0.00000  Uiso   1.00
H1227  H     0.64671   0.72155   0.67652   0.00000  Uiso   1.00
H1228  H     0.39232   0.75043   0.67921   0.00000  Uiso   1.00
H1229  H     0.34304   0.78957   0.66375   0.00000  Uiso   1.00
H1230  H     0.35617   0.67679   0.99068   0.00000  Uiso   1.00
H1231  H     0.35871   0.91799   0.97244   0.00000  Uiso   1.00
H1232  H     0.43527   0.83212   0.58830   0.00000  Uiso   1.00
H1233  H     0.52298   0.90111   0.92797   0.00000  Uiso   1.00
H1234  H     0.62242   0.94133   0.65495   0.00000  Uiso   1.00
H1235  H     0.35304   0.95910   0.60651   0.00000  Uiso   1.00
H1236  H     0.36914   0.94843   0.65811   0.00000  Uiso   1.00
N1237  N     0.64839   0.84735   0.76212   0.00000  Uiso   1.00
N1238  N     0.35161   0.81932   0.73788   0.00000  Uiso   1.00
O1239  O     0.46148   0.90476   0.74686   0.00000  Uiso   1.00
O1240  O     0.35115   0.88276   0.95807   0.00000  Uiso   1.00
O1241  O     0.45646   0.82070   0.60900   0.00000  Uiso   1.00
O1242  O     0.51668   0.88331   0.89984   0.00000  Uiso   1.00
O1243  O     0.33454   0.88093   0.62602   0.00000  Uiso   1.00
O1244  O     0.34299   0.75922   0.86710   0.00000  Uiso   1.00
O1245  O     0.64203   0.72930   0.95684   0.00000  Uiso   1.00
O1246  O     0.37873   0.88364   0.53380   0.00000  Uiso   1.00
O1247  O     0.44310   0.72916   0.56532   0.00000  Uiso   1.00
O1248  O     0.60727   0.83841   0.90759   0.00000  Uiso   1.00
O1249  O     0.34490   0.89657   0.76925   0.00000  Uiso   1.00
O1250  O     0.53852   0.76191   0.75314   0.00000  Uiso   1.00
O1251  O     0.65494   0.77026   0.73009   0.00000  Uiso   1.00
O1252  O     0.56163   0.91420   0.75503   0.00000  Uiso   1.00
O1253  O     0.43837   0.75247   0.74498   0.00000  Uiso   1.00
O1254  O     0.42185   0.82597   0.80855   0.00000  Uiso   1.00
O1255  O     0.57815   0.84070   0.69146   0.00000  Uiso   1.00
O1256  O     0.52199   0.83540   0.81671   0.00000  Uiso   1.00
O1257  O     0.47801   0.83126   0.68329   0.00000  Uiso   1.00
O1258  O     0.35939   0.70025   0.51676   0.00000  Uiso   1.00
C1259  C     0.84820   0.93328   0.75138   0.00000  Uiso   1.00
C1260  C     0.87178   0.83835   0.66656   0.00000  Uiso   1.00
C1261  C     0.77154   0.81476   0.88023   0.00000  Uiso   1.00
C1262  C     0.89561   0.84331   0.61792   0.00000  Uiso   1.00
C1263  C     0.70137   0.75790   0.93831   0.00000  Uiso   1.00
C1264  C     0.98203   0.86703   0.55279   0.00000  Uiso   1.00
C1265  C     0.71651   0.77650   0.89480   0.00000  Uiso   1.00
C1266  C     0.95977   0.86383   0.59913   0.00000  Uiso   1.00
C1267  C     0.80957   0.83515   0.90934   0.00000  Uiso   1.00
C1268  C     0.85346   0.82891   0.59021   0.00000  Uiso   1.00
C1269  C     0.80405   0.80702   0.94774   0.00000  Uiso   1.00
C1270  C     0.81859   0.73339   0.74838   0.00000  Uiso   1.00
C1271  C     0.87629   0.82603   0.54391   0.00000  Uiso   1.00
C1272  C     0.74791   0.76909   0.96320   0.00000  Uiso   1.00
C1273  C     0.93941   0.85084   0.52517   0.00000  Uiso   1.00
C1274  C     0.85217   0.81647   0.97157   0.00000  Uiso   1.00
C1275  C     0.83651   0.80128   0.51576   0.00000  Uiso   1.00
C1276  C     0.66932   0.93475   0.63652   0.00000  Uiso   1.00
C1277  C     0.68355   0.70866   0.85059   0.00000  Uiso   1.00
C1278  C     0.99228   0.90762   0.81440   0.00000  Uiso   1.00
C1279  C     0.67764   0.75811   0.68542   0.00000  Uiso   1.00
C1280  C     0.78370   0.75938   0.52925   0.00000  Uiso   1.00
C1281  C     0.91616   0.83825   0.95242   0.00000  Uiso   1.00
C1282  C     0.74030   0.74326   0.50309   0.00000  Uiso   1.00
C1283  C     0.95839   0.85725   0.97889   0.00000  Uiso   1.00
C1284  C     0.85645   0.98919   0.75230   0.00000  Uiso   1.00
C1285  C     0.81046   0.67748   0.74725   0.00000  Uiso   1.00
C1286  C     0.79490   0.82817   0.83321   0.00000  Uiso   1.00
Cu1287 Cu    0.77404   0.82775   0.74517   0.00000  Uiso   1.00
Cu1288 Cu    0.89263   0.83892   0.75484   0.00000  Uiso   1.00
H1289  H     0.90078   0.67932   0.75729   0.00000  Uiso   1.00
H1290  H     0.73357   0.70781   0.83511   0.00000  Uiso   1.00
H1291  H     0.98997   0.69739   0.82476   0.00000  Uiso   1.00
H1292  H     0.99770   0.67901   0.87689   0.00000  Uiso   1.00
H1293  H     0.94636   0.73069   0.93787   0.00000  Uiso   1.00
H1294  H     0.73606   0.89535   0.55659   0.00000  Uiso   1.00
H1295  H     0.81845   0.73032   0.57063   0.00000  Uiso   1.00
H1296  H     0.91568   0.80821   0.89413   0.00000  Uiso   1.00
H1297  H     0.99166   0.87428   0.83463   0.00000  Uiso   1.00
H1298  H     0.94570   0.91854   0.82224   0.00000  Uiso   1.00
H1299  H     0.69375   0.94126   0.82327   0.00000  Uiso   1.00
H1300  H     0.76611   0.98735   0.74229   0.00000  Uiso   1.00
H1301  H     0.98005   0.72155   0.67652   0.00000  Uiso   1.00
H1302  H     0.72566   0.75043   0.67921   0.00000  Uiso   1.00
H1303  H     0.67638   0.78957   0.66375   0.00000  Uiso   1.00
H1304  H     0.68950   0.67679   0.99068   0.00000  Uiso   1.00
H1305  H     0.69205   0.91799   0.97244   0.00000  Uiso   1.00
H1306  H     0.76861   0.83212   0.58830   0.00000  Uiso   1.00
H1307  H     0.85631   0.90111   0.92797   0.00000  Uiso   1.00
H1308  H     0.95575   0.94133   0.65495   0.00000  Uiso   1.00
H1309  H     0.68638   0.95910   0.60651   0.00000  Uiso   1.00
H1310  H     0.70247   0.94843   0.65811   0.00000  Uiso   1.00
N1311  N     0.98173   0.84735   0.76212   0.00000  Uiso   1.00
N1312  N     0.68494   0.81932   0.73788   0.00000  Uiso   1.00
O1313  O     0.79482   0.90476   0.74686   0.00000  Uiso   1.00
O1314  O     0.68448   0.88276   0.95807   0.00000  Uiso   1.00
O1315  O     0.78980   0.82070   0.60900   0.00000  Uiso   1.00
O1316  O     0.85002   0.88331   0.89984   0.00000  Uiso   1.00
O1317  O     0.66788   0.88093   0.62602   0.00000  Uiso   1.00
O1318  O     0.67632   0.75922   0.86710   0.00000  Uiso   1.00
O1319  O     0.97536   0.72930   0.95684   0.00000  Uiso   1.00
O1320  O     0.71207   0.88364   0.53380   0.00000  Uiso   1.00
O1321  O     0.77644   0.72916   0.56532   0.00000  Uiso   1.00
O1322  O     0.94061   0.83841   0.90759   0.00000  Uiso   1.00
O1323  O     0.67824   0.89657   0.76925   0.00000  Uiso   1.00
O1324  O     0.87185   0.76191   0.75314   0.00000  Uiso   1.00
O1325  O     0.98827   0.77026   0.73009   0.00000  Uiso   1.00
O1326  O     0.89496   0.91420   0.75503   0.00000  Uiso   1.00
O1327  O     0.77171   0.75247   0.74498   0.00000  Uiso   1.00
O1328  O     0.75518   0.82597   0.80855   0.00000  Uiso   1.00
O1329  O     0.91149   0.84070   0.69146   0.00000  Uiso   1.00
O1330  O     0.85532   0.83540   0.81671   0.00000  Uiso   1.00
O1331  O     0.81134   0.83126   0.68329   0.00000  Uiso   1.00
O1332  O     0.69272   0.70025   0.51676   0.00000  Uiso   1.00
loop_
_geom_bond_atom_site_label_1
_geom_bond_atom_site_label_2
_geom_bond_distance
_geom_bond_site_symmetry_2
_ccdc_geom_bond_type
C1     O55     1.297   .     A
C1     C26     1.427   .     S
C1     O68     1.289   .     A
C2     C4      1.491   .     S
C2     O73     1.306   .     A
C2     O71     1.310   .     A
C3     C9      1.397   .     A
C3     C7      1.406   .     A
C3     C28     1.478   .     S
C4     C8      1.414   .     A
C4     C10     1.409   .     A
C5     C14     1.419   .     A
C5     C7      1.417   .     A
C5     O209    1.384   1_455 S
C6     C8      1.417   .     A
C6     C15     1.419   .     A
C6     O136    1.385   .     S
C7     O60     1.384   .     S
C8     O133    1.385   .     S
C9     C11     1.421   .     A
C9     O58     1.382   .     S
C10    O57     1.381   .     S
C10    C13     1.417   .     A
C11    C16     1.426   .     A
C11    C14     1.422   .     A
C12    O69     1.289   .     A
C12    O66     1.297   .     A
C12    C27     1.427   .     S
C13    C17     1.427   .     A
C13    C15     1.420   .     A
C14    C690    1.419   .     S
C15    C691    1.419   1_554 S
C16    C23     1.420   .     A
C16    C683    1.407   .     S
C17    C22     1.424   .     A
C17    C682    1.407   1_554 S
C18    O59     1.412   .     S
C18    H52     1.110   .     S
C18    H51     1.113   .     S
C18    H198    1.113   1_455 S
C19    O60     1.408   .     S
C19    H32     1.113   .     S
C19    H181    1.110   1_455 S
C19    H182    1.112   1_455 S
C20    H40     1.109   .     S
C20    H39     1.109   .     S
C20    H115    1.106   .     S
C20    O139    1.402   .     S
C21    H44     1.108   .     S
C21    H45     1.112   .     S
C21    H191    1.109   1_455 S
C21    O215    1.405   1_455 S
C22    C24     1.398   .     A
C22    O63     1.382   .     S
C23    C25     1.395   .     A
C23    O64     1.377   .     S
C24    O74     1.379   .     S
C24    C680    1.419   1_554 S
C25    C681    1.419   .     S
C25    O130    1.376   .     S
C26    C249    1.327   .     S
C26    H253    1.087   .     S
C27    C470    1.327   1_545 S
C27    H486    1.087   1_545 S
C28    O72     1.304   .     A
C28    O70     1.305   .     A
Cu29   Cu30    2.702   .     S
Cu29   O69     1.951   .     S
Cu29   O73     1.914   .     S
Cu29   N54     2.030   .     S
Cu29   O55     1.958   .     S
Cu29   O70     1.928   .     S
Cu30   O68     1.951   .     S
Cu30   O66     1.958   .     S
Cu30   O71     1.928   .     S
Cu30   N53     2.030   .     S
Cu30   O72     1.914   .     S
H31    C470    1.087   1_545 S
H33    C93     1.110   .     S
H34    C93     1.112   .     S
H35    O61     0.990   .     S
H36    O62     0.988   .     S
H37    O63     0.991   .     S
H38    O64     0.991   .     S
H41    C168    1.106   1_455 S
H42    C249    1.087   .     S
H43    C95     1.109   .     S
H46    O740    0.991   .     S
H47    O56     0.991   .     S
H48    O57     0.989   .     S
H49    O58     0.991   .     S
H50    C92     1.113   .     S
N53    N128    1.289   .     S
N53    O139    1.340   .     S
N54    N201    1.289   1_455 S
N54    O215    1.343   1_455 S
O56    C173    1.376   1_455 S
O59    C156    1.385   1_455 S
O61    C79     1.384   .     S
O62    C154    1.385   1_455 S
O65    N201    1.340   1_455 S
O65    C168    1.402   1_455 S
O67    N128    1.343   .     S
O67    C95     1.405   .     S
O74    H712    0.991   1_554 S
C75    O129    1.297   .     A
C75    C100    1.427   .     S
C75    O142    1.289   .     A
C76    C78     1.491   .     S
C76    O147    1.306   .     A
C76    O145    1.310   .     A
C77    C83     1.397   .     A
C77    C81     1.406   .     A
C77    C102    1.478   .     S
C78    C82     1.414   .     A
C78    C84     1.409   .     A
C79    C88     1.419   .     A
C79    C81     1.417   .     A
C80    C82     1.417   .     A
C80    C89     1.419   .     A
C80    O210    1.385   .     S
C81    O134    1.384   .     S
C82    O207    1.385   .     S
C83    C85     1.421   .     A
C83    O132    1.382   .     S
C84    O131    1.381   .     S
C84    C87     1.417   .     A
C85    C90     1.426   .     A
C85    C88     1.422   .     A
C86    O143    1.289   .     A
C86    O140    1.297   .     A
C86    C101    1.427   .     S
C87    C91     1.427   .     A
C87    C89     1.420   .     A
C88    C764    1.419   .     S
C89    C765    1.419   1_554 S
C90    C97     1.420   .     A
C90    C757    1.407   .     S
C91    C96     1.424   .     A
C91    C756    1.407   1_554 S
C92    O133    1.412   .     S
C92    H126    1.110   .     S
C92    H125    1.113   .     S
C93    O134    1.408   .     S
C93    H106    1.113   .     S
C94    H114    1.109   .     S
C94    H113    1.109   .     S
C94    H189    1.106   .     S
C94    O213    1.402   .     S
C95    H118    1.108   .     S
C95    H119    1.112   .     S
C96    C98     1.398   .     A
C96    O137    1.382   .     S
C97    C99     1.395   .     A
C97    O138    1.377   .     S
C98    O148    1.379   .     S
C98    C754    1.419   1_554 S
C99    C755    1.419   .     S
C99    O204    1.376   .     S
C100   C323    1.327   .     S
C100   H327    1.087   .     S
C101   C544    1.327   1_545 S
C101   H560    1.087   1_545 S
C102   O146    1.304   .     A
C102   O144    1.305   .     A
Cu103  Cu104   2.702   .     S
Cu103  O143    1.951   .     S
Cu103  O147    1.914   .     S
Cu103  N128    2.030   .     S
Cu103  O129    1.958   .     S
Cu103  O144    1.928   .     S
Cu104  O142    1.951   .     S
Cu104  O140    1.958   .     S
Cu104  O145    1.928   .     S
Cu104  N127    2.030   .     S
Cu104  O146    1.914   .     S
H105   C544    1.087   1_545 S
H107   C167    1.110   .     S
H108   C167    1.112   .     S
H109   O135    0.990   .     S
H110   O136    0.988   .     S
H111   O137    0.991   .     S
H112   O138    0.991   .     S
H116   C323    1.087   .     S
H117   C169    1.109   .     S
H120   O814    0.991   .     S
H121   O130    0.991   .     S
H122   O131    0.989   .     S
H123   O132    0.991   .     S
H124   C166    1.113   .     S
N127   N202    1.289   .     S
N127   O213    1.340   .     S
O135   C153    1.384   .     S
O141   N202    1.343   .     S
O141   C169    1.405   .     S
O148   H786    0.991   1_554 S
C149   O203    1.297   .     A
C149   C174    1.427   .     S
C149   O216    1.289   .     A
C150   C152    1.491   .     S
C150   O221    1.306   .     A
C150   O219    1.310   .     A
C151   C157    1.397   .     A
C151   C155    1.406   .     A
C151   C176    1.478   .     S
C152   C156    1.414   .     A
C152   C158    1.409   .     A
C153   C162    1.419   .     A
C153   C155    1.417   .     A
C154   C156    1.417   .     A
C154   C163    1.419   .     A
C154   O62     1.385   1_655 S
C155   O208    1.384   .     S
C156   O59     1.385   1_655 S
C157   C159    1.421   .     A
C157   O206    1.382   .     S
C158   O205    1.381   .     S
C158   C161    1.417   .     A
C159   C164    1.426   .     A
C159   C162    1.422   .     A
C160   O217    1.289   .     A
C160   O214    1.297   .     A
C160   C175    1.427   .     S
C161   C165    1.427   .     A
C161   C163    1.420   .     A
C162   C838    1.419   .     S
C163   C839    1.419   1_554 S
C164   C171    1.420   .     A
C164   C831    1.407   .     S
C165   C170    1.424   .     A
C165   C830    1.407   1_554 S
C166   O207    1.412   .     S
C166   H200    1.110   .     S
C166   H199    1.113   .     S
C167   O208    1.408   .     S
C167   H180    1.113   .     S
C168   H188    1.109   .     S
C168   H187    1.109   .     S
C168   H41     1.106   1_655 S
C168   O65     1.402   1_655 S
C169   H192    1.108   .     S
C169   H193    1.112   .     S
C170   C172    1.398   .     A
C170   O211    1.382   .     S
C171   C173    1.395   .     A
C171   O212    1.377   .     S
C172   O222    1.379   .     S
C172   C828    1.419   1_554 S
C173   C829    1.419   .     S
C173   O56     1.376   1_655 S
C174   C397    1.327   .     S
C174   H401    1.087   .     S
C175   C618    1.327   1_545 S
C175   H634    1.087   1_545 S
C176   O220    1.304   .     A
C176   O218    1.305   .     A
Cu177  Cu178   2.702   .     S
Cu177  O217    1.951   .     S
Cu177  O221    1.914   .     S
Cu177  N202    2.030   .     S
Cu177  O203    1.958   .     S
Cu177  O218    1.928   .     S
Cu178  O216    1.951   .     S
Cu178  O214    1.958   .     S
Cu178  O219    1.928   .     S
Cu178  N201    2.030   .     S
Cu178  O220    1.914   .     S
H179   C618    1.087   1_545 S
H181   C19     1.110   1_655 S
H182   C19     1.112   1_655 S
H183   O209    0.990   .     S
H184   O210    0.988   .     S
H185   O211    0.991   .     S
H186   O212    0.991   .     S
H190   C397    1.087   .     S
H191   C21     1.109   1_655 S
H194   O888    0.991   .     S
H195   O204    0.991   .     S
H196   O205    0.989   .     S
H197   O206    0.991   .     S
H198   C18     1.113   1_655 S
N201   N54     1.289   1_655 S
N201   O65     1.340   1_655 S
O209   C5      1.384   1_655 S
O215   N54     1.343   1_655 S
O215   C21     1.405   1_655 S
O222   H860    0.991   1_554 S
C223   O277    1.297   .     A
C223   C248    1.427   .     S
C223   O290    1.289   .     A
C224   C226    1.491   .     S
C224   O295    1.306   .     A
C224   O293    1.310   .     A
C225   C231    1.397   .     A
C225   C229    1.406   .     A
C225   C250    1.478   .     S
C226   C230    1.414   .     A
C226   C232    1.409   .     A
C227   C236    1.419   .     A
C227   C229    1.417   .     A
C227   O431    1.384   1_455 S
C228   C230    1.417   .     A
C228   C237    1.419   .     A
C228   O358    1.385   .     S
C229   O282    1.384   .     S
C230   O355    1.385   .     S
C231   C233    1.421   .     A
C231   O280    1.382   .     S
C232   O279    1.381   .     S
C232   C235    1.417   .     A
C233   C238    1.426   .     A
C233   C236    1.422   .     A
C234   O291    1.289   .     A
C234   O288    1.297   .     A
C234   C249    1.427   .     S
C235   C239    1.427   .     A
C235   C237    1.420   .     A
C236   C912    1.419   .     S
C237   C913    1.419   1_554 S
C238   C245    1.420   .     A
C238   C905    1.407   .     S
C239   C244    1.424   .     A
C239   C904    1.407   1_554 S
C240   O281    1.412   .     S
C240   H274    1.110   .     S
C240   H273    1.113   .     S
C240   H420    1.113   1_455 S
C241   O282    1.408   .     S
C241   H254    1.113   .     S
C241   H403    1.110   1_455 S
C241   H404    1.112   1_455 S
C242   H262    1.109   .     S
C242   H261    1.109   .     S
C242   H337    1.106   .     S
C242   O361    1.402   .     S
C243   H266    1.108   .     S
C243   H267    1.112   .     S
C243   H413    1.109   1_455 S
C243   O437    1.405   1_455 S
C244   C246    1.398   .     A
C244   O285    1.382   .     S
C245   C247    1.395   .     A
C245   O286    1.377   .     S
C246   O296    1.379   .     S
C246   C902    1.419   1_554 S
C247   C903    1.419   .     S
C247   O352    1.376   .     S
C248   C471    1.327   .     S
C248   H475    1.087   .     S
C250   O294    1.304   .     A
C250   O292    1.305   .     A
Cu251  Cu252   2.702   .     S
Cu251  O291    1.951   .     S
Cu251  O295    1.914   .     S
Cu251  N276    2.030   .     S
Cu251  O277    1.958   .     S
Cu251  O292    1.928   .     S
Cu252  O290    1.951   .     S
Cu252  O288    1.958   .     S
Cu252  O293    1.928   .     S
Cu252  N275    2.030   .     S
Cu252  O294    1.914   .     S
H255   C315    1.110   .     S
H256   C315    1.112   .     S
H257   O283    0.990   .     S
H258   O284    0.988   .     S
H259   O285    0.991   .     S
H260   O286    0.991   .     S
H263   C390    1.106   1_455 S
H264   C471    1.087   .     S
H265   C317    1.109   .     S
H268   O962    0.991   .     S
H269   O278    0.991   .     S
H270   O279    0.989   .     S
H271   O280    0.991   .     S
H272   C314    1.113   .     S
N275   N350    1.289   .     S
N275   O361    1.340   .     S
N276   N423    1.289   1_455 S
N276   O437    1.343   1_455 S
O278   C395    1.376   1_455 S
O281   C378    1.385   1_455 S
O283   C301    1.384   .     S
O284   C376    1.385   1_455 S
O287   N423    1.340   1_455 S
O287   C390    1.402   1_455 S
O289   N350    1.343   .     S
O289   C317    1.405   .     S
O296   H934    0.991   1_554 S
C297   O351    1.297   .     A
C297   C322    1.427   .     S
C297   O364    1.289   .     A
C298   C300    1.491   .     S
C298   O369    1.306   .     A
C298   O367    1.310   .     A
C299   C305    1.397   .     A
C299   C303    1.406   .     A
C299   C324    1.478   .     S
C300   C304    1.414   .     A
C300   C306    1.409   .     A
C301   C310    1.419   .     A
C301   C303    1.417   .     A
C302   C304    1.417   .     A
C302   C311    1.419   .     A
C302   O432    1.385   .     S
C303   O356    1.384   .     S
C304   O429    1.385   .     S
C305   C307    1.421   .     A
C305   O354    1.382   .     S
C306   O353    1.381   .     S
C306   C309    1.417   .     A
C307   C312    1.426   .     A
C307   C310    1.422   .     A
C308   O365    1.289   .     A
C308   O362    1.297   .     A
C308   C323    1.427   .     S
C309   C313    1.427   .     A
C309   C311    1.420   .     A
C310   C986    1.419   .     S
C311   C987    1.419   1_554 S
C312   C319    1.420   .     A
C312   C979    1.407   .     S
C313   C318    1.424   .     A
C313   C978    1.407   1_554 S
C314   O355    1.412   .     S
C314   H348    1.110   .     S
C314   H347    1.113   .     S
C315   O356    1.408   .     S
C315   H328    1.113   .     S
C316   H336    1.109   .     S
C316   H335    1.109   .     S
C316   H411    1.106   .     S
C316   O435    1.402   .     S
C317   H340    1.108   .     S
C317   H341    1.112   .     S
C318   C320    1.398   .     A
C318   O359    1.382   .     S
C319   C321    1.395   .     A
C319   O360    1.377   .     S
C320   O370    1.379   .     S
C320   C976    1.419   1_554 S
C321   C977    1.419   .     S
C321   O426    1.376   .     S
C322   C545    1.327   .     S
C322   H549    1.087   .     S
C324   O368    1.304   .     A
C324   O366    1.305   .     A
Cu325  Cu326   2.702   .     S
Cu325  O365    1.951   .     S
Cu325  O369    1.914   .     S
Cu325  N350    2.030   .     S
Cu325  O351    1.958   .     S
Cu325  O366    1.928   .     S
Cu326  O364    1.951   .     S
Cu326  O362    1.958   .     S
Cu326  O367    1.928   .     S
Cu326  N349    2.030   .     S
Cu326  O368    1.914   .     S
H329   C389    1.110   .     S
H330   C389    1.112   .     S
H331   O357    0.990   .     S
H332   O358    0.988   .     S
H333   O359    0.991   .     S
H334   O360    0.991   .     S
H338   C545    1.087   .     S
H339   C391    1.109   .     S
H342   O1036   0.991   .     S
H343   O352    0.991   .     S
H344   O353    0.989   .     S
H345   O354    0.991   .     S
H346   C388    1.113   .     S
N349   N424    1.289   .     S
N349   O435    1.340   .     S
O357   C375    1.384   .     S
O363   N424    1.343   .     S
O363   C391    1.405   .     S
O370   H1008   0.991   1_554 S
C371   O425    1.297   .     A
C371   C396    1.427   .     S
C371   O438    1.289   .     A
C372   C374    1.491   .     S
C372   O443    1.306   .     A
C372   O441    1.310   .     A
C373   C379    1.397   .     A
C373   C377    1.406   .     A
C373   C398    1.478   .     S
C374   C378    1.414   .     A
C374   C380    1.409   .     A
C375   C384    1.419   .     A
C375   C377    1.417   .     A
C376   C378    1.417   .     A
C376   C385    1.419   .     A
C376   O284    1.385   1_655 S
C377   O430    1.384   .     S
C378   O281    1.385   1_655 S
C379   C381    1.421   .     A
C379   O428    1.382   .     S
C380   O427    1.381   .     S
C380   C383    1.417   .     A
C381   C386    1.426   .     A
C381   C384    1.422   .     A
C382   O439    1.289   .     A
C382   O436    1.297   .     A
C382   C397    1.427   .     S
C383   C387    1.427   .     A
C383   C385    1.420   .     A
C384   C1060   1.419   .     S
C385   C1061   1.419   1_554 S
C386   C393    1.420   .     A
C386   C1053   1.407   .     S
C387   C392    1.424   .     A
C387   C1052   1.407   1_554 S
C388   O429    1.412   .     S
C388   H422    1.110   .     S
C388   H421    1.113   .     S
C389   O430    1.408   .     S
C389   H402    1.113   .     S
C390   H410    1.109   .     S
C390   H409    1.109   .     S
C390   H263    1.106   1_655 S
C390   O287    1.402   1_655 S
C391   H414    1.108   .     S
C391   H415    1.112   .     S
C392   C394    1.398   .     A
C392   O433    1.382   .     S
C393   C395    1.395   .     A
C393   O434    1.377   .     S
C394   O444    1.379   .     S
C394   C1050   1.419   1_554 S
C395   C1051   1.419   .     S
C395   O278    1.376   1_655 S
C396   C619    1.327   .     S
C396   H623    1.087   .     S
C398   O442    1.304   .     A
C398   O440    1.305   .     A
Cu399  Cu400   2.702   .     S
Cu399  O439    1.951   .     S
Cu399  O443    1.914   .     S
Cu399  N424    2.030   .     S
Cu399  O425    1.958   .     S
Cu399  O440    1.928   .     S
Cu400  O438    1.951   .     S
Cu400  O436    1.958   .     S
Cu400  O441    1.928   .     S
Cu400  N423    2.030   .     S
Cu400  O442    1.914   .     S
H403   C241    1.110   1_655 S
H404   C241    1.112   1_655 S
H405   O431    0.990   .     S
H406   O432    0.988   .     S
H407   O433    0.991   .     S
H408   O434    0.991   .     S
H412   C619    1.087   .     S
H413   C243    1.109   1_655 S
H416   O1110   0.991   .     S
H417   O426    0.991   .     S
H418   O427    0.989   .     S
H419   O428    0.991   .     S
H420   C240    1.113   1_655 S
N423   N276    1.289   1_655 S
N423   O287    1.340   1_655 S
O431   C227    1.384   1_655 S
O437   N276    1.343   1_655 S
O437   C243    1.405   1_655 S
O444   H1082   0.991   1_554 S
C445   O499    1.297   .     A
C445   C470    1.427   .     S
C445   O512    1.289   .     A
C446   C448    1.491   .     S
C446   O517    1.306   .     A
C446   O515    1.310   .     A
C447   C453    1.397   .     A
C447   C451    1.406   .     A
C447   C472    1.478   .     S
C448   C452    1.414   .     A
C448   C454    1.409   .     A
C449   C458    1.419   .     A
C449   C451    1.417   .     A
C449   O653    1.384   1_455 S
C450   C452    1.417   .     A
C450   C459    1.419   .     A
C450   O580    1.385   .     S
C451   O504    1.384   .     S
C452   O577    1.385   .     S
C453   C455    1.421   .     A
C453   O502    1.382   .     S
C454   O501    1.381   .     S
C454   C457    1.417   .     A
C455   C460    1.426   .     A
C455   C458    1.422   .     A
C456   O513    1.289   .     A
C456   O510    1.297   .     A
C456   C471    1.427   .     S
C457   C461    1.427   .     A
C457   C459    1.420   .     A
C458   C1134   1.419   .     S
C459   C1135   1.419   1_554 S
C460   C467    1.420   .     A
C460   C1127   1.407   .     S
C461   C466    1.424   .     A
C461   C1126   1.407   1_554 S
C462   O503    1.412   .     S
C462   H496    1.110   .     S
C462   H495    1.113   .     S
C462   H642    1.113   1_455 S
C463   O504    1.408   .     S
C463   H476    1.113   .     S
C463   H625    1.110   1_455 S
C463   H626    1.112   1_455 S
C464   H484    1.109   .     S
C464   H483    1.109   .     S
C464   H559    1.106   .     S
C464   O583    1.402   .     S
C465   H488    1.108   .     S
C465   H489    1.112   .     S
C465   H635    1.109   1_455 S
C465   O659    1.405   1_455 S
C466   C468    1.398   .     A
C466   O507    1.382   .     S
C467   C469    1.395   .     A
C467   O508    1.377   .     S
C468   O518    1.379   .     S
C468   C1124   1.419   1_554 S
C469   C1125   1.419   .     S
C469   O574    1.376   .     S
C470   C27     1.327   1_565 S
C470   H31     1.087   1_565 S
C472   O516    1.304   .     A
C472   O514    1.305   .     A
Cu473  Cu474   2.702   .     S
Cu473  O513    1.951   .     S
Cu473  O517    1.914   .     S
Cu473  N498    2.030   .     S
Cu473  O499    1.958   .     S
Cu473  O514    1.928   .     S
Cu474  O512    1.951   .     S
Cu474  O510    1.958   .     S
Cu474  O515    1.928   .     S
Cu474  N497    2.030   .     S
Cu474  O516    1.914   .     S
H477   C537    1.110   .     S
H478   C537    1.112   .     S
H479   O505    0.990   .     S
H480   O506    0.988   .     S
H481   O507    0.991   .     S
H482   O508    0.991   .     S
H485   C612    1.106   1_455 S
H486   C27     1.087   1_565 S
H487   C539    1.109   .     S
H490   O1184   0.991   .     S
H491   O500    0.991   .     S
H492   O501    0.989   .     S
H493   O502    0.991   .     S
H494   C536    1.113   .     S
N497   N572    1.289   .     S
N497   O583    1.340   .     S
N498   N645    1.289   1_455 S
N498   O659    1.343   1_455 S
O500   C617    1.376   1_455 S
O503   C600    1.385   1_455 S
O505   C523    1.384   .     S
O506   C598    1.385   1_455 S
O509   N645    1.340   1_455 S
O509   C612    1.402   1_455 S
O511   N572    1.343   .     S
O511   C539    1.405   .     S
O518   H1156   0.991   1_554 S
C519   O573    1.297   .     A
C519   C544    1.427   .     S
C519   O586    1.289   .     A
C520   C522    1.491   .     S
C520   O591    1.306   .     A
C520   O589    1.310   .     A
C521   C527    1.397   .     A
C521   C525    1.406   .     A
C521   C546    1.478   .     S
C522   C526    1.414   .     A
C522   C528    1.409   .     A
C523   C532    1.419   .     A
C523   C525    1.417   .     A
C524   C526    1.417   .     A
C524   C533    1.419   .     A
C524   O654    1.385   .     S
C525   O578    1.384   .     S
C526   O651    1.385   .     S
C527   C529    1.421   .     A
C527   O576    1.382   .     S
C528   O575    1.381   .     S
C528   C531    1.417   .     A
C529   C534    1.426   .     A
C529   C532    1.422   .     A
C530   O587    1.289   .     A
C530   O584    1.297   .     A
C530   C545    1.427   .     S
C531   C535    1.427   .     A
C531   C533    1.420   .     A
C532   C1208   1.419   .     S
C533   C1209   1.419   1_554 S
C534   C541    1.420   .     A
C534   C1201   1.407   .     S
C535   C540    1.424   .     A
C535   C1200   1.407   1_554 S
C536   O577    1.412   .     S
C536   H570    1.110   .     S
C536   H569    1.113   .     S
C537   O578    1.408   .     S
C537   H550    1.113   .     S
C538   H558    1.109   .     S
C538   H557    1.109   .     S
C538   H633    1.106   .     S
C538   O657    1.402   .     S
C539   H562    1.108   .     S
C539   H563    1.112   .     S
C540   C542    1.398   .     A
C540   O581    1.382   .     S
C541   C543    1.395   .     A
C541   O582    1.377   .     S
C542   O592    1.379   .     S
C542   C1198   1.419   1_554 S
C543   C1199   1.419   .     S
C543   O648    1.376   .     S
C544   C101    1.327   1_565 S
C544   H105    1.087   1_565 S
C546   O590    1.304   .     A
C546   O588    1.305   .     A
Cu547  Cu548   2.702   .     S
Cu547  O587    1.951   .     S
Cu547  O591    1.914   .     S
Cu547  N572    2.030   .     S
Cu547  O573    1.958   .     S
Cu547  O588    1.928   .     S
Cu548  O586    1.951   .     S
Cu548  O584    1.958   .     S
Cu548  O589    1.928   .     S
Cu548  N571    2.030   .     S
Cu548  O590    1.914   .     S
H551   C611    1.110   .     S
H552   C611    1.112   .     S
H553   O579    0.990   .     S
H554   O580    0.988   .     S
H555   O581    0.991   .     S
H556   O582    0.991   .     S
H560   C101    1.087   1_565 S
H561   C613    1.109   .     S
H564   O1258   0.991   .     S
H565   O574    0.991   .     S
H566   O575    0.989   .     S
H567   O576    0.991   .     S
H568   C610    1.113   .     S
N571   N646    1.289   .     S
N571   O657    1.340   .     S
O579   C597    1.384   .     S
O585   N646    1.343   .     S
O585   C613    1.405   .     S
O592   H1230   0.991   1_554 S
C593   O647    1.297   .     A
C593   C618    1.427   .     S
C593   O660    1.289   .     A
C594   C596    1.491   .     S
C594   O665    1.306   .     A
C594   O663    1.310   .     A
C595   C601    1.397   .     A
C595   C599    1.406   .     A
C595   C620    1.478   .     S
C596   C600    1.414   .     A
C596   C602    1.409   .     A
C597   C606    1.419   .     A
C597   C599    1.417   .     A
C598   C600    1.417   .     A
C598   C607    1.419   .     A
C598   O506    1.385   1_655 S
C599   O652    1.384   .     S
C600   O503    1.385   1_655 S
C601   C603    1.421   .     A
C601   O650    1.382   .     S
C602   O649    1.381   .     S
C602   C605    1.417   .     A
C603   C608    1.426   .     A
C603   C606    1.422   .     A
C604   O661    1.289   .     A
C604   O658    1.297   .     A
C604   C619    1.427   .     S
C605   C609    1.427   .     A
C605   C607    1.420   .     A
C606   C1282   1.419   .     S
C607   C1283   1.419   1_554 S
C608   C615    1.420   .     A
C608   C1275   1.407   .     S
C609   C614    1.424   .     A
C609   C1274   1.407   1_554 S
C610   O651    1.412   .     S
C610   H644    1.110   .     S
C610   H643    1.113   .     S
C611   O652    1.408   .     S
C611   H624    1.113   .     S
C612   H632    1.109   .     S
C612   H631    1.109   .     S
C612   H485    1.106   1_655 S
C612   O509    1.402   1_655 S
C613   H636    1.108   .     S
C613   H637    1.112   .     S
C614   C616    1.398   .     A
C614   O655    1.382   .     S
C615   C617    1.395   .     A
C615   O656    1.377   .     S
C616   O666    1.379   .     S
C616   C1272   1.419   1_554 S
C617   C1273   1.419   .     S
C617   O500    1.376   1_655 S
C618   C175    1.327   1_565 S
C618   H179    1.087   1_565 S
C620   O664    1.304   .     A
C620   O662    1.305   .     A
Cu621  Cu622   2.702   .     S
Cu621  O661    1.951   .     S
Cu621  O665    1.914   .     S
Cu621  N646    2.030   .     S
Cu621  O647    1.958   .     S
Cu621  O662    1.928   .     S
Cu622  O660    1.951   .     S
Cu622  O658    1.958   .     S
Cu622  O663    1.928   .     S
Cu622  N645    2.030   .     S
Cu622  O664    1.914   .     S
H625   C463    1.110   1_655 S
H626   C463    1.112   1_655 S
H627   O653    0.990   .     S
H628   O654    0.988   .     S
H629   O655    0.991   .     S
H630   O656    0.991   .     S
H634   C175    1.087   1_565 S
H635   C465    1.109   1_655 S
H638   O1332   0.991   .     S
H639   O648    0.991   .     S
H640   O649    0.989   .     S
H641   O650    0.991   .     S
H642   C462    1.113   1_655 S
N645   N498    1.289   1_655 S
N645   O509    1.340   1_655 S
O653   C449    1.384   1_655 S
O659   N498    1.343   1_655 S
O659   C465    1.405   1_655 S
O666   H1304   0.991   1_554 S
C667   O721    1.297   .     A
C667   C692    1.427   .     S
C667   O734    1.289   .     A
C668   C670    1.491   .     S
C668   O739    1.306   .     A
C668   O737    1.310   .     A
C669   C675    1.397   .     A
C669   C673    1.406   .     A
C669   C694    1.478   .     S
C670   C674    1.414   .     A
C670   C676    1.409   .     A
C671   C680    1.419   .     A
C671   C673    1.417   .     A
C671   O875    1.384   1_455 S
C672   C674    1.417   .     A
C672   C681    1.419   .     A
C672   O802    1.385   .     S
C673   O726    1.384   .     S
C674   O799    1.385   .     S
C675   C677    1.421   .     A
C675   O724    1.382   .     S
C676   O723    1.381   .     S
C676   C679    1.417   .     A
C677   C682    1.426   .     A
C677   C680    1.422   .     A
C678   O735    1.289   .     A
C678   O732    1.297   .     A
C678   C693    1.427   .     S
C679   C683    1.427   .     A
C679   C681    1.420   .     A
C680   C24     1.419   1_556 S
C682   C689    1.420   .     A
C682   C17     1.407   1_556 S
C683   C688    1.424   .     A
C684   O725    1.412   .     S
C684   H718    1.110   .     S
C684   H717    1.113   .     S
C684   H864    1.113   1_455 S
C685   O726    1.408   .     S
C685   H698    1.113   .     S
C685   H847    1.110   1_455 S
C685   H848    1.112   1_455 S
C686   H706    1.109   .     S
C686   H705    1.109   .     S
C686   H781    1.106   .     S
C686   O805    1.402   .     S
C687   H710    1.108   .     S
C687   H711    1.112   .     S
C687   H857    1.109   1_455 S
C687   O881    1.405   1_455 S
C688   C690    1.398   .     A
C688   O729    1.382   .     S
C689   C691    1.395   .     A
C689   O730    1.377   .     S
C690   O740    1.379   .     S
C691   C15     1.419   1_556 S
C691   O796    1.376   .     S
C692   C915    1.327   .     S
C692   H919    1.087   .     S
C693   C1136   1.327   1_545 S
C693   H1152   1.087   1_545 S
C694   O738    1.304   .     A
C694   O736    1.305   .     A
Cu695  Cu696   2.702   .     S
Cu695  O735    1.951   .     S
Cu695  O739    1.914   .     S
Cu695  N720    2.030   .     S
Cu695  O721    1.958   .     S
Cu695  O736    1.928   .     S
Cu696  O734    1.951   .     S
Cu696  O732    1.958   .     S
Cu696  O737    1.928   .     S
Cu696  N719    2.030   .     S
Cu696  O738    1.914   .     S
H697   C1136   1.087   1_545 S
H699   C759    1.110   .     S
H700   C759    1.112   .     S
H701   O727    0.990   .     S
H702   O728    0.988   .     S
H703   O729    0.991   .     S
H704   O730    0.991   .     S
H707   C834    1.106   1_455 S
H708   C915    1.087   .     S
H709   C761    1.109   .     S
H712   O74     0.991   1_556 S
H713   O722    0.991   .     S
H714   O723    0.989   .     S
H715   O724    0.991   .     S
H716   C758    1.113   .     S
N719   N794    1.289   .     S
N719   O805    1.340   .     S
N720   N867    1.289   1_455 S
N720   O881    1.343   1_455 S
O722   C839    1.376   1_455 S
O725   C822    1.385   1_455 S
O727   C745    1.384   .     S
O728   C820    1.385   1_455 S
O731   N867    1.340   1_455 S
O731   C834    1.402   1_455 S
O733   N794    1.343   .     S
O733   C761    1.405   .     S
C741   O795    1.297   .     A
C741   C766    1.427   .     S
C741   O808    1.289   .     A
C742   C744    1.491   .     S
C742   O813    1.306   .     A
C742   O811    1.310   .     A
C743   C749    1.397   .     A
C743   C747    1.406   .     A
C743   C768    1.478   .     S
C744   C748    1.414   .     A
C744   C750    1.409   .     A
C745   C754    1.419   .     A
C745   C747    1.417   .     A
C746   C748    1.417   .     A
C746   C755    1.419   .     A
C746   O876    1.385   .     S
C747   O800    1.384   .     S
C748   O873    1.385   .     S
C749   C751    1.421   .     A
C749   O798    1.382   .     S
C750   O797    1.381   .     S
C750   C753    1.417   .     A
C751   C756    1.426   .     A
C751   C754    1.422   .     A
C752   O809    1.289   .     A
C752   O806    1.297   .     A
C752   C767    1.427   .     S
C753   C757    1.427   .     A
C753   C755    1.420   .     A
C754   C98     1.419   1_556 S
C756   C763    1.420   .     A
C756   C91     1.407   1_556 S
C757   C762    1.424   .     A
C758   O799    1.412   .     S
C758   H792    1.110   .     S
C758   H791    1.113   .     S
C759   O800    1.408   .     S
C759   H772    1.113   .     S
C760   H780    1.109   .     S
C760   H779    1.109   .     S
C760   H855    1.106   .     S
C760   O879    1.402   .     S
C761   H784    1.108   .     S
C761   H785    1.112   .     S
C762   C764    1.398   .     A
C762   O803    1.382   .     S
C763   C765    1.395   .     A
C763   O804    1.377   .     S
C764   O814    1.379   .     S
C765   C89     1.419   1_556 S
C765   O870    1.376   .     S
C766   C989    1.327   .     S
C766   H993    1.087   .     S
C767   C1210   1.327   1_545 S
C767   H1226   1.087   1_545 S
C768   O812    1.304   .     A
C768   O810    1.305   .     A
Cu769  Cu770   2.702   .     S
Cu769  O809    1.951   .     S
Cu769  O813    1.914   .     S
Cu769  N794    2.030   .     S
Cu769  O795    1.958   .     S
Cu769  O810    1.928   .     S
Cu770  O808    1.951   .     S
Cu770  O806    1.958   .     S
Cu770  O811    1.928   .     S
Cu770  N793    2.030   .     S
Cu770  O812    1.914   .     S
H771   C1210   1.087   1_545 S
H773   C833    1.110   .     S
H774   C833    1.112   .     S
H775   O801    0.990   .     S
H776   O802    0.988   .     S
H777   O803    0.991   .     S
H778   O804    0.991   .     S
H782   C989    1.087   .     S
H783   C835    1.109   .     S
H786   O148    0.991   1_556 S
H787   O796    0.991   .     S
H788   O797    0.989   .     S
H789   O798    0.991   .     S
H790   C832    1.113   .     S
N793   N868    1.289   .     S
N793   O879    1.340   .     S
O801   C819    1.384   .     S
O807   N868    1.343   .     S
O807   C835    1.405   .     S
C815   O869    1.297   .     A
C815   C840    1.427   .     S
C815   O882    1.289   .     A
C816   C818    1.491   .     S
C816   O887    1.306   .     A
C816   O885    1.310   .     A
C817   C823    1.397   .     A
C817   C821    1.406   .     A
C817   C842    1.478   .     S
C818   C822    1.414   .     A
C818   C824    1.409   .     A
C819   C828    1.419   .     A
C819   C821    1.417   .     A
C820   C822    1.417   .     A
C820   C829    1.419   .     A
C820   O728    1.385   1_655 S
C821   O874    1.384   .     S
C822   O725    1.385   1_655 S
C823   C825    1.421   .     A
C823   O872    1.382   .     S
C824   O871    1.381   .     S
C824   C827    1.417   .     A
C825   C830    1.426   .     A
C825   C828    1.422   .     A
C826   O883    1.289   .     A
C826   O880    1.297   .     A
C826   C841    1.427   .     S
C827   C831    1.427   .     A
C827   C829    1.420   .     A
C828   C172    1.419   1_556 S
C830   C837    1.420   .     A
C830   C165    1.407   1_556 S
C831   C836    1.424   .     A
C832   O873    1.412   .     S
C832   H866    1.110   .     S
C832   H865    1.113   .     S
C833   O874    1.408   .     S
C833   H846    1.113   .     S
C834   H854    1.109   .     S
C834   H853    1.109   .     S
C834   H707    1.106   1_655 S
C834   O731    1.402   1_655 S
C835   H858    1.108   .     S
C835   H859    1.112   .     S
C836   C838    1.398   .     A
C836   O877    1.382   .     S
C837   C839    1.395   .     A
C837   O878    1.377   .     S
C838   O888    1.379   .     S
C839   C163    1.419   1_556 S
C839   O722    1.376   1_655 S
C840   C1063   1.327   .     S
C840   H1067   1.087   .     S
C841   C1284   1.327   1_545 S
C841   H1300   1.087   1_545 S
C842   O886    1.304   .     A
C842   O884    1.305   .     A
Cu843  Cu844   2.702   .     S
Cu843  O883    1.951   .     S
Cu843  O887    1.914   .     S
Cu843  N868    2.030   .     S
Cu843  O869    1.958   .     S
Cu843  O884    1.928   .     S
Cu844  O882    1.951   .     S
Cu844  O880    1.958   .     S
Cu844  O885    1.928   .     S
Cu844  N867    2.030   .     S
Cu844  O886    1.914   .     S
H845   C1284   1.087   1_545 S
H847   C685    1.110   1_655 S
H848   C685    1.112   1_655 S
H849   O875    0.990   .     S
H850   O876    0.988   .     S
H851   O877    0.991   .     S
H852   O878    0.991   .     S
H856   C1063   1.087   .     S
H857   C687    1.109   1_655 S
H860   O222    0.991   1_556 S
H861   O870    0.991   .     S
H862   O871    0.989   .     S
H863   O872    0.991   .     S
H864   C684    1.113   1_655 S
N867   N720    1.289   1_655 S
N867   O731    1.340   1_655 S
O875   C671    1.384   1_655 S
O881   N720    1.343   1_655 S
O881   C687    1.405   1_655 S
C889   O943    1.297   .     A
C889   C914    1.427   .     S
C889   O956    1.289   .     A
C890   C892    1.491   .     S
C890   O961    1.306   .     A
C890   O959    1.310   .     A
C891   C897    1.397   .     A
C891   C895    1.406   .     A
C891   C916    1.478   .     S
C892   C896    1.414   .     A
C892   C898    1.409   .     A
C893   C902    1.419   .     A
C893   C895    1.417   .     A
C893   O1097   1.384   1_455 S
C894   C896    1.417   .     A
C894   C903    1.419   .     A
C894   O1024   1.385   .     S
C895   O948    1.384   .     S
C896   O1021   1.385   .     S
C897   C899    1.421   .     A
C897   O946    1.382   .     S
C898   O945    1.381   .     S
C898   C901    1.417   .     A
C899   C904    1.426   .     A
C899   C902    1.422   .     A
C900   O957    1.289   .     A
C900   O954    1.297   .     A
C900   C915    1.427   .     S
C901   C905    1.427   .     A
C901   C903    1.420   .     A
C902   C246    1.419   1_556 S
C904   C911    1.420   .     A
C904   C239    1.407   1_556 S
C905   C910    1.424   .     A
C906   O947    1.412   .     S
C906   H940    1.110   .     S
C906   H939    1.113   .     S
C906   H1086   1.113   1_455 S
C907   O948    1.408   .     S
C907   H920    1.113   .     S
C907   H1069   1.110   1_455 S
C907   H1070   1.112   1_455 S
C908   H928    1.109   .     S
C908   H927    1.109   .     S
C908   H1003   1.106   .     S
C908   O1027   1.402   .     S
C909   H932    1.108   .     S
C909   H933    1.112   .     S
C909   H1079   1.109   1_455 S
C909   O1103   1.405   1_455 S
C910   C912    1.398   .     A
C910   O951    1.382   .     S
C911   C913    1.395   .     A
C911   O952    1.377   .     S
C912   O962    1.379   .     S
C913   C237    1.419   1_556 S
C913   O1018   1.376   .     S
C914   C1137   1.327   .     S
C914   H1141   1.087   .     S
C916   O960    1.304   .     A
C916   O958    1.305   .     A
Cu917  Cu918   2.702   .     S
Cu917  O957    1.951   .     S
Cu917  O961    1.914   .     S
Cu917  N942    2.030   .     S
Cu917  O943    1.958   .     S
Cu917  O958    1.928   .     S
Cu918  O956    1.951   .     S
Cu918  O954    1.958   .     S
Cu918  O959    1.928   .     S
Cu918  N941    2.030   .     S
Cu918  O960    1.914   .     S
H921   C981    1.110   .     S
H922   C981    1.112   .     S
H923   O949    0.990   .     S
H924   O950    0.988   .     S
H925   O951    0.991   .     S
H926   O952    0.991   .     S
H929   C1056   1.106   1_455 S
H930   C1137   1.087   .     S
H931   C983    1.109   .     S
H934   O296    0.991   1_556 S
H935   O944    0.991   .     S
H936   O945    0.989   .     S
H937   O946    0.991   .     S
H938   C980    1.113   .     S
N941   N1016   1.289   .     S
N941   O1027   1.340   .     S
N942   N1089   1.289   1_455 S
N942   O1103   1.343   1_455 S
O944   C1061   1.376   1_455 S
O947   C1044   1.385   1_455 S
O949   C967    1.384   .     S
O950   C1042   1.385   1_455 S
O953   N1089   1.340   1_455 S
O953   C1056   1.402   1_455 S
O955   N1016   1.343   .     S
O955   C983    1.405   .     S
C963   O1017   1.297   .     A
C963   C988    1.427   .     S
C963   O1030   1.289   .     A
C964   C966    1.491   .     S
C964   O1035   1.306   .     A
C964   O1033   1.310   .     A
C965   C971    1.397   .     A
C965   C969    1.406   .     A
C965   C990    1.478   .     S
C966   C970    1.414   .     A
C966   C972    1.409   .     A
C967   C976    1.419   .     A
C967   C969    1.417   .     A
C968   C970    1.417   .     A
C968   C977    1.419   .     A
C968   O1098   1.385   .     S
C969   O1022   1.384   .     S
C970   O1095   1.385   .     S
C971   C973    1.421   .     A
C971   O1020   1.382   .     S
C972   O1019   1.381   .     S
C972   C975    1.417   .     A
C973   C978    1.426   .     A
C973   C976    1.422   .     A
C974   O1031   1.289   .     A
C974   O1028   1.297   .     A
C974   C989    1.427   .     S
C975   C979    1.427   .     A
C975   C977    1.420   .     A
C976   C320    1.419   1_556 S
C978   C985    1.420   .     A
C978   C313    1.407   1_556 S
C979   C984    1.424   .     A
C980   O1021   1.412   .     S
C980   H1014   1.110   .     S
C980   H1013   1.113   .     S
C981   O1022   1.408   .     S
C981   H994    1.113   .     S
C982   H1002   1.109   .     S
C982   H1001   1.109   .     S
C982   H1077   1.106   .     S
C982   O1101   1.402   .     S
C983   H1006   1.108   .     S
C983   H1007   1.112   .     S
C984   C986    1.398   .     A
C984   O1025   1.382   .     S
C985   C987    1.395   .     A
C985   O1026   1.377   .     S
C986   O1036   1.379   .     S
C987   C311    1.419   1_556 S
C987   O1092   1.376   .     S
C988   C1211   1.327   .     S
C988   H1215   1.087   .     S
C990   O1034   1.304   .     A
C990   O1032   1.305   .     A
Cu991  Cu992   2.702   .     S
Cu991  O1031   1.951   .     S
Cu991  O1035   1.914   .     S
Cu991  N1016   2.030   .     S
Cu991  O1017   1.958   .     S
Cu991  O1032   1.928   .     S
Cu992  O1030   1.951   .     S
Cu992  O1028   1.958   .     S
Cu992  O1033   1.928   .     S
Cu992  N1015   2.030   .     S
Cu992  O1034   1.914   .     S
H995   C1055   1.110   .     S
H996   C1055   1.112   .     S
H997   O1023   0.990   .     S
H998   O1024   0.988   .     S
H999   O1025   0.991   .     S
H1000  O1026   0.991   .     S
H1004  C1211   1.087   .     S
H1005  C1057   1.109   .     S
H1008  O370    0.991   1_556 S
H1009  O1018   0.991   .     S
H1010  O1019   0.989   .     S
H1011  O1020   0.991   .     S
H1012  C1054   1.113   .     S
N1015  N1090   1.289   .     S
N1015  O1101   1.340   .     S
O1023  C1041   1.384   .     S
O1029  N1090   1.343   .     S
O1029  C1057   1.405   .     S
C1037  O1091   1.297   .     A
C1037  C1062   1.427   .     S
C1037  O1104   1.289   .     A
C1038  C1040   1.491   .     S
C1038  O1109   1.306   .     A
C1038  O1107   1.310   .     A
C1039  C1045   1.397   .     A
C1039  C1043   1.406   .     A
C1039  C1064   1.478   .     S
C1040  C1044   1.414   .     A
C1040  C1046   1.409   .     A
C1041  C1050   1.419   .     A
C1041  C1043   1.417   .     A
C1042  C1044   1.417   .     A
C1042  C1051   1.419   .     A
C1042  O950    1.385   1_655 S
C1043  O1096   1.384   .     S
C1044  O947    1.385   1_655 S
C1045  C1047   1.421   .     A
C1045  O1094   1.382   .     S
C1046  O1093   1.381   .     S
C1046  C1049   1.417   .     A
C1047  C1052   1.426   .     A
C1047  C1050   1.422   .     A
C1048  O1105   1.289   .     A
C1048  O1102   1.297   .     A
C1048  C1063   1.427   .     S
C1049  C1053   1.427   .     A
C1049  C1051   1.420   .     A
C1050  C394    1.419   1_556 S
C1052  C1059   1.420   .     A
C1052  C387    1.407   1_556 S
C1053  C1058   1.424   .     A
C1054  O1095   1.412   .     S
C1054  H1088   1.110   .     S
C1054  H1087   1.113   .     S
C1055  O1096   1.408   .     S
C1055  H1068   1.113   .     S
C1056  H1076   1.109   .     S
C1056  H1075   1.109   .     S
C1056  H929    1.106   1_655 S
C1056  O953    1.402   1_655 S
C1057  H1080   1.108   .     S
C1057  H1081   1.112   .     S
C1058  C1060   1.398   .     A
C1058  O1099   1.382   .     S
C1059  C1061   1.395   .     A
C1059  O1100   1.377   .     S
C1060  O1110   1.379   .     S
C1061  C385    1.419   1_556 S
C1061  O944    1.376   1_655 S
C1062  C1285   1.327   .     S
C1062  H1289   1.087   .     S
C1064  O1108   1.304   .     A
C1064  O1106   1.305   .     A
Cu1065 Cu1066  2.702   .     S
Cu1065 O1105   1.951   .     S
Cu1065 O1109   1.914   .     S
Cu1065 N1090   2.030   .     S
Cu1065 O1091   1.958   .     S
Cu1065 O1106   1.928   .     S
Cu1066 O1104   1.951   .     S
Cu1066 O1102   1.958   .     S
Cu1066 O1107   1.928   .     S
Cu1066 N1089   2.030   .     S
Cu1066 O1108   1.914   .     S
H1069  C907    1.110   1_655 S
H1070  C907    1.112   1_655 S
H1071  O1097   0.990   .     S
H1072  O1098   0.988   .     S
H1073  O1099   0.991   .     S
H1074  O1100   0.991   .     S
H1078  C1285   1.087   .     S
H1079  C909    1.109   1_655 S
H1082  O444    0.991   1_556 S
H1083  O1092   0.991   .     S
H1084  O1093   0.989   .     S
H1085  O1094   0.991   .     S
H1086  C906    1.113   1_655 S
N1089  N942    1.289   1_655 S
N1089  O953    1.340   1_655 S
O1097  C893    1.384   1_655 S
O1103  N942    1.343   1_655 S
O1103  C909    1.405   1_655 S
C1111  O1165   1.297   .     A
C1111  C1136   1.427   .     S
C1111  O1178   1.289   .     A
C1112  C1114   1.491   .     S
C1112  O1183   1.306   .     A
C1112  O1181   1.310   .     A
C1113  C1119   1.397   .     A
C1113  C1117   1.406   .     A
C1113  C1138   1.478   .     S
C1114  C1118   1.414   .     A
C1114  C1120   1.409   .     A
C1115  C1124   1.419   .     A
C1115  C1117   1.417   .     A
C1115  O1319   1.384   1_455 S
C1116  C1118   1.417   .     A
C1116  C1125   1.419   .     A
C1116  O1246   1.385   .     S
C1117  O1170   1.384   .     S
C1118  O1243   1.385   .     S
C1119  C1121   1.421   .     A
C1119  O1168   1.382   .     S
C1120  O1167   1.381   .     S
C1120  C1123   1.417   .     A
C1121  C1126   1.426   .     A
C1121  C1124   1.422   .     A
C1122  O1179   1.289   .     A
C1122  O1176   1.297   .     A
C1122  C1137   1.427   .     S
C1123  C1127   1.427   .     A
C1123  C1125   1.420   .     A
C1124  C468    1.419   1_556 S
C1126  C1133   1.420   .     A
C1126  C461    1.407   1_556 S
C1127  C1132   1.424   .     A
C1128  O1169   1.412   .     S
C1128  H1162   1.110   .     S
C1128  H1161   1.113   .     S
C1128  H1308   1.113   1_455 S
C1129  O1170   1.408   .     S
C1129  H1142   1.113   .     S
C1129  H1291   1.110   1_455 S
C1129  H1292   1.112   1_455 S
C1130  H1150   1.109   .     S
C1130  H1149   1.109   .     S
C1130  H1225   1.106   .     S
C1130  O1249   1.402   .     S
C1131  H1154   1.108   .     S
C1131  H1155   1.112   .     S
C1131  H1301   1.109   1_455 S
C1131  O1325   1.405   1_455 S
C1132  C1134   1.398   .     A
C1132  O1173   1.382   .     S
C1133  C1135   1.395   .     A
C1133  O1174   1.377   .     S
C1134  O1184   1.379   .     S
C1135  C459    1.419   1_556 S
C1135  O1240   1.376   .     S
C1136  C693    1.327   1_565 S
C1136  H697    1.087   1_565 S
C1138  O1182   1.304   .     A
C1138  O1180   1.305   .     A
Cu1139 Cu1140  2.702   .     S
Cu1139 O1179   1.951   .     S
Cu1139 O1183   1.914   .     S
Cu1139 N1164   2.030   .     S
Cu1139 O1165   1.958   .     S
Cu1139 O1180   1.928   .     S
Cu1140 O1178   1.951   .     S
Cu1140 O1176   1.958   .     S
Cu1140 O1181   1.928   .     S
Cu1140 N1163   2.030   .     S
Cu1140 O1182   1.914   .     S
H1143  C1203   1.110   .     S
H1144  C1203   1.112   .     S
H1145  O1171   0.990   .     S
H1146  O1172   0.988   .     S
H1147  O1173   0.991   .     S
H1148  O1174   0.991   .     S
H1151  C1278   1.106   1_455 S
H1152  C693    1.087   1_565 S
H1153  C1205   1.109   .     S
H1156  O518    0.991   1_556 S
H1157  O1166   0.991   .     S
H1158  O1167   0.989   .     S
H1159  O1168   0.991   .     S
H1160  C1202   1.113   .     S
N1163  N1238   1.289   .     S
N1163  O1249   1.340   .     S
N1164  N1311   1.289   1_455 S
N1164  O1325   1.343   1_455 S
O1166  C1283   1.376   1_455 S
O1169  C1266   1.385   1_455 S
O1171  C1189   1.384   .     S
O1172  C1264   1.385   1_455 S
O1175  N1311   1.340   1_455 S
O1175  C1278   1.402   1_455 S
O1177  N1238   1.343   .     S
O1177  C1205   1.405   .     S
C1185  O1239   1.297   .     A
C1185  C1210   1.427   .     S
C1185  O1252   1.289   .     A
C1186  C1188   1.491   .     S
C1186  O1257   1.306   .     A
C1186  O1255   1.310   .     A
C1187  C1193   1.397   .     A
C1187  C1191   1.406   .     A
C1187  C1212   1.478   .     S
C1188  C1192   1.414   .     A
C1188  C1194   1.409   .     A
C1189  C1198   1.419   .     A
C1189  C1191   1.417   .     A
C1190  C1192   1.417   .     A
C1190  C1199   1.419   .     A
C1190  O1320   1.385   .     S
C1191  O1244   1.384   .     S
C1192  O1317   1.385   .     S
C1193  C1195   1.421   .     A
C1193  O1242   1.382   .     S
C1194  O1241   1.381   .     S
C1194  C1197   1.417   .     A
C1195  C1200   1.426   .     A
C1195  C1198   1.422   .     A
C1196  O1253   1.289   .     A
C1196  O1250   1.297   .     A
C1196  C1211   1.427   .     S
C1197  C1201   1.427   .     A
C1197  C1199   1.420   .     A
C1198  C542    1.419   1_556 S
C1200  C1207   1.420   .     A
C1200  C535    1.407   1_556 S
C1201  C1206   1.424   .     A
C1202  O1243   1.412   .     S
C1202  H1236   1.110   .     S
C1202  H1235   1.113   .     S
C1203  O1244   1.408   .     S
C1203  H1216   1.113   .     S
C1204  H1224   1.109   .     S
C1204  H1223   1.109   .     S
C1204  H1299   1.106   .     S
C1204  O1323   1.402   .     S
C1205  H1228   1.108   .     S
C1205  H1229   1.112   .     S
C1206  C1208   1.398   .     A
C1206  O1247   1.382   .     S
C1207  C1209   1.395   .     A
C1207  O1248   1.377   .     S
C1208  O1258   1.379   .     S
C1209  C533    1.419   1_556 S
C1209  O1314   1.376   .     S
C1210  C767    1.327   1_565 S
C1210  H771    1.087   1_565 S
C1212  O1256   1.304   .     A
C1212  O1254   1.305   .     A
Cu1213 Cu1214  2.702   .     S
Cu1213 O1253   1.951   .     S
Cu1213 O1257   1.914   .     S
Cu1213 N1238   2.030   .     S
Cu1213 O1239   1.958   .     S
Cu1213 O1254   1.928   .     S
Cu1214 O1252   1.951   .     S
Cu1214 O1250   1.958   .     S
Cu1214 O1255   1.928   .     S
Cu1214 N1237   2.030   .     S
Cu1214 O1256   1.914   .     S
H1217  C1277   1.110   .     S
H1218  C1277   1.112   .     S
H1219  O1245   0.990   .     S
H1220  O1246   0.988   .     S
H1221  O1247   0.991   .     S
H1222  O1248   0.991   .     S
H1226  C767    1.087   1_565 S
H1227  C1279   1.109   .     S
H1230  O592    0.991   1_556 S
H1231  O1240   0.991   .     S
H1232  O1241   0.989   .     S
H1233  O1242   0.991   .     S
H1234  C1276   1.113   .     S
N1237  N1312   1.289   .     S
N1237  O1323   1.340   .     S
O1245  C1263   1.384   .     S
O1251  N1312   1.343   .     S
O1251  C1279   1.405   .     S
C1259  O1313   1.297   .     A
C1259  C1284   1.427   .     S
C1259  O1326   1.289   .     A
C1260  C1262   1.491   .     S
C1260  O1331   1.306   .     A
C1260  O1329   1.310   .     A
C1261  C1267   1.397   .     A
C1261  C1265   1.406   .     A
C1261  C1286   1.478   .     S
C1262  C1266   1.414   .     A
C1262  C1268   1.409   .     A
C1263  C1272   1.419   .     A
C1263  C1265   1.417   .     A
C1264  C1266   1.417   .     A
C1264  C1273   1.419   .     A
C1264  O1172   1.385   1_655 S
C1265  O1318   1.384   .     S
C1266  O1169   1.385   1_655 S
C1267  C1269   1.421   .     A
C1267  O1316   1.382   .     S
C1268  O1315   1.381   .     S
C1268  C1271   1.417   .     A
C1269  C1274   1.426   .     A
C1269  C1272   1.422   .     A
C1270  O1327   1.289   .     A
C1270  O1324   1.297   .     A
C1270  C1285   1.427   .     S
C1271  C1275   1.427   .     A
C1271  C1273   1.420   .     A
C1272  C616    1.419   1_556 S
C1274  C1281   1.420   .     A
C1274  C609    1.407   1_556 S
C1275  C1280   1.424   .     A
C1276  O1317   1.412   .     S
C1276  H1310   1.110   .     S
C1276  H1309   1.113   .     S
C1277  O1318   1.408   .     S
C1277  H1290   1.113   .     S
C1278  H1298   1.109   .     S
C1278  H1297   1.109   .     S
C1278  H1151   1.106   1_655 S
C1278  O1175   1.402   1_655 S
C1279  H1302   1.108   .     S
C1279  H1303   1.112   .     S
C1280  C1282   1.398   .     A
C1280  O1321   1.382   .     S
C1281  C1283   1.395   .     A
C1281  O1322   1.377   .     S
C1282  O1332   1.379   .     S
C1283  C607    1.419   1_556 S
C1283  O1166   1.376   1_655 S
C1284  C841    1.327   1_565 S
C1284  H845    1.087   1_565 S
C1286  O1330   1.304   .     A
C1286  O1328   1.305   .     A
Cu1287 Cu1288  2.702   .     S
Cu1287 O1327   1.951   .     S
Cu1287 O1331   1.914   .     S
Cu1287 N1312   2.030   .     S
Cu1287 O1313   1.958   .     S
Cu1287 O1328   1.928   .     S
Cu1288 O1326   1.951   .     S
Cu1288 O1324   1.958   .     S
Cu1288 O1329   1.928   .     S
Cu1288 N1311   2.030   .     S
Cu1288 O1330   1.914   .     S
H1291  C1129   1.110   1_655 S
H1292  C1129   1.112   1_655 S
H1293  O1319   0.990   .     S
H1294  O1320   0.988   .     S
H1295  O1321   0.991   .     S
H1296  O1322   0.991   .     S
H1300  C841    1.087   1_565 S
H1301  C1131   1.109   1_655 S
H1304  O666    0.991   1_556 S
H1305  O1314   0.991   .     S
H1306  O1315   0.989   .     S
H1307  O1316   0.991   .     S
H1308  C1128   1.113   1_655 S
N1311  N1164   1.289   1_655 S
N1311  O1175   1.340   1_655 S
O1319  C1115   1.384   1_655 S
O1325  N1164   1.343   1_655 S
O1325  C1131   1.405   1_655 S
