data_str_m3_o1_o18_pcu_sym.48
_audit_creation_date              2020-01-03
_audit_creation_method            'Materials Studio'
_symmetry_space_group_name_H-M    'P1'
_symmetry_Int_Tables_number       1
_symmetry_cell_setting            triclinic
loop_
_symmetry_equiv_pos_as_xyz
  x,y,z
_cell_length_a                    29.7751
_cell_length_b                    32.0168
_cell_length_c                    30.9284
_cell_angle_alpha                 91.6769
_cell_angle_beta                  67.3908
_cell_angle_gamma                 91.2217
loop_
_atom_site_label
_atom_site_type_symbol
_atom_site_fract_x
_atom_site_fract_y
_atom_site_fract_z
_atom_site_U_iso_or_equiv
_atom_site_adp_type
_atom_site_occupancy
C1     C     0.16687   0.24661   0.25033   0.00000  Uiso   1.00
C2     C     0.12250   0.31155   0.26927   0.00000  Uiso   1.00
C3     C     0.16635   0.04253   0.24931   0.00000  Uiso   1.00
C4     C     0.16698   0.29080   0.25069   0.00000  Uiso   1.00
C5     C     0.31678   0.13556   0.22792   0.00000  Uiso   1.00
C6     C     0.01655   0.19777   0.27208   0.00000  Uiso   1.00
C7     C     0.03154   0.13509   0.22726   0.00000  Uiso   1.00
C8     C     0.30179   0.19825   0.27274   0.00000  Uiso   1.00
C9     C     0.13604   0.16684   0.33796   0.00000  Uiso   1.00
C10    C     0.19729   0.16649   0.16204   0.00000  Uiso   1.00
C11    C     0.11665   0.16458   0.38867   0.00000  Uiso   1.00
C12    C     0.16647   0.08673   0.24967   0.00000  Uiso   1.00
C13    C     0.21668   0.16876   0.11133   0.00000  Uiso   1.00
C14    C     0.05714   0.14164   0.46242   0.00000  Uiso   1.00
C15    C     0.27619   0.19169   0.03758   0.00000  Uiso   1.00
C16    C     0.07100   0.14694   0.41437   0.00000  Uiso   1.00
C17    C     0.26233   0.18640   0.08563   0.00000  Uiso   1.00
C18    C     0.14755   0.17641   0.41098   0.00000  Uiso   1.00
C19    C     0.18579   0.15692   0.08902   0.00000  Uiso   1.00
C20    C     0.13844   0.16372   0.45602   0.00000  Uiso   1.00
C21    C     0.19489   0.16962   0.04398   0.00000  Uiso   1.00
C22    C     0.09055   0.15074   0.48357   0.00000  Uiso   1.00
C23    C     0.10727   0.16496   0.05311   0.00000  Uiso   1.00
C24    C     0.24278   0.18260   0.01643   0.00000  Uiso   1.00
C25    C     0.17462   0.16654   0.47513   0.00000  Uiso   1.00
C26    C     0.15872   0.16679   0.02487   0.00000  Uiso   1.00
C27    C     0.08309   0.18355   0.10280   0.00000  Uiso   1.00
C28    C     0.09743   0.22956   0.10580   0.00000  Uiso   1.00
C29    C     0.07267   0.24733   0.15558   0.00000  Uiso   1.00
C30    C     0.25024   0.14979   0.39720   0.00000  Uiso   1.00
C31    C     0.23591   0.10377   0.39420   0.00000  Uiso   1.00
C32    C     0.26067   0.08601   0.34442   0.00000  Uiso   1.00
C33    C     0.06372   0.09815   0.20370   0.00000  Uiso   1.00
C34    C     0.22606   0.16837   0.44689   0.00000  Uiso   1.00
C35    C     0.05114   0.07382   0.16604   0.00000  Uiso   1.00
C36    C     0.09168   0.04366   0.13822   0.00000  Uiso   1.00
C37    C     0.26961   0.23518   0.29630   0.00000  Uiso   1.00
C38    C     0.28220   0.25951   0.33396   0.00000  Uiso   1.00
C39    C     0.24166   0.28968   0.36177   0.00000  Uiso   1.00
C40    C     0.07544   0.15131   0.03195   0.00000  Uiso   1.00
C41    C     0.25789   0.18203   0.46805   0.00000  Uiso   1.00
C42    C     0.21114   0.31234   0.23141   0.00000  Uiso   1.00
C43    C     0.12220   0.02100   0.26859   0.00000  Uiso   1.00
C44    C     0.21083   0.02178   0.23073   0.00000  Uiso   1.00
H45    H     0.03727   0.14584   0.05312   0.00000  Uiso   1.00
H46    H     0.08784   0.03714   0.28383   0.00000  Uiso   1.00
H47    H     0.24513   0.03855   0.21542   0.00000  Uiso   1.00
H48    H     0.08820   0.29478   0.28458   0.00000  Uiso   1.00
H49    H     0.30339   0.11103   0.21126   0.00000  Uiso   1.00
H50    H     0.02994   0.22231   0.28874   0.00000  Uiso   1.00
H51    H     0.03246   0.24462   0.16746   0.00000  Uiso   1.00
H52    H     0.08477   0.23038   0.17992   0.00000  Uiso   1.00
H53    H     0.08270   0.28079   0.15655   0.00000  Uiso   1.00
H54    H     0.13735   0.23302   0.09527   0.00000  Uiso   1.00
H55    H     0.08648   0.24809   0.08167   0.00000  Uiso   1.00
H56    H     0.29606   0.18749   0.44688   0.00000  Uiso   1.00
H57    H     0.04281   0.18257   0.11397   0.00000  Uiso   1.00
H58    H     0.08899   0.16526   0.12969   0.00000  Uiso   1.00
H59    H     0.24856   0.10296   0.32008   0.00000  Uiso   1.00
H60    H     0.30087   0.08872   0.33254   0.00000  Uiso   1.00
H61    H     0.25064   0.05254   0.34346   0.00000  Uiso   1.00
H62    H     0.24685   0.08524   0.41833   0.00000  Uiso   1.00
H63    H     0.19598   0.10032   0.40473   0.00000  Uiso   1.00
H64    H     0.24434   0.16807   0.37031   0.00000  Uiso   1.00
H65    H     0.29052   0.15076   0.38603   0.00000  Uiso   1.00
H66    H     0.12541   0.06122   0.11777   0.00000  Uiso   1.00
H67    H     0.15518   0.13688   0.10684   0.00000  Uiso   1.00
H68    H     0.09938   0.02247   0.16229   0.00000  Uiso   1.00
H69    H     0.08039   0.02456   0.11349   0.00000  Uiso   1.00
H70    H     0.01727   0.05513   0.18295   0.00000  Uiso   1.00
H71    H     0.04575   0.09579   0.14131   0.00000  Uiso   1.00
H72    H     0.10136   0.10930   0.18613   0.00000  Uiso   1.00
H73    H     0.06173   0.07594   0.23123   0.00000  Uiso   1.00
H74    H     0.23395   0.31086   0.33771   0.00000  Uiso   1.00
H75    H     0.20793   0.27211   0.38223   0.00000  Uiso   1.00
H76    H     0.25294   0.30878   0.38650   0.00000  Uiso   1.00
H77    H     0.28759   0.23755   0.35869   0.00000  Uiso   1.00
H78    H     0.17816   0.19646   0.39316   0.00000  Uiso   1.00
H79    H     0.31606   0.27820   0.31705   0.00000  Uiso   1.00
H80    H     0.27160   0.25739   0.26876   0.00000  Uiso   1.00
H81    H     0.23197   0.22404   0.31387   0.00000  Uiso   1.00
H82    H     0.28710   0.19552   0.10239   0.00000  Uiso   1.00
H83    H     0.04624   0.13781   0.39761   0.00000  Uiso   1.00
H84    H     0.02074   0.13041   0.48287   0.00000  Uiso   1.00
H85    H     0.31260   0.20292   0.01713   0.00000  Uiso   1.00
H86    H     0.24550   0.29619   0.21617   0.00000  Uiso   1.00
N87    N     0.04759   0.16668   0.25001   0.00000  Uiso   1.00
N88    N     0.28574   0.16666   0.24999   0.00000  Uiso   1.00
O89    O     0.12846   0.22775   0.25001   0.00000  Uiso   1.00
O90    O     0.20488   0.10558   0.25000   0.00000  Uiso   1.00
O91    O     0.20490   0.22774   0.25000   0.00000  Uiso   1.00
O92    O     0.12843   0.10559   0.25000   0.00000  Uiso   1.00
O93    O     0.10661   0.16667   0.31612   0.00000  Uiso   1.00
O94    O     0.22672   0.16666   0.18388   0.00000  Uiso   1.00
O95    O     0.18305   0.16666   0.31612   0.00000  Uiso   1.00
O96    O     0.15028   0.16667   0.18388   0.00000  Uiso   1.00
Zn97   Zn    0.11562   0.16667   0.25000   0.00000  Uiso   1.00
Zn98   Zn    0.21771   0.16666   0.25000   0.00000  Uiso   1.00
C99    C     0.50020   0.24661   0.25033   0.00000  Uiso   1.00
C100   C     0.45583   0.31155   0.26927   0.00000  Uiso   1.00
C101   C     0.49968   0.04253   0.24931   0.00000  Uiso   1.00
C102   C     0.50031   0.29080   0.25069   0.00000  Uiso   1.00
C103   C     0.65012   0.13556   0.22792   0.00000  Uiso   1.00
C104   C     0.34988   0.19777   0.27208   0.00000  Uiso   1.00
C105   C     0.36488   0.13509   0.22726   0.00000  Uiso   1.00
C106   C     0.63512   0.19825   0.27274   0.00000  Uiso   1.00
C107   C     0.46937   0.16684   0.33796   0.00000  Uiso   1.00
C108   C     0.53063   0.16649   0.16204   0.00000  Uiso   1.00
C109   C     0.44999   0.16458   0.38867   0.00000  Uiso   1.00
C110   C     0.49980   0.08673   0.24967   0.00000  Uiso   1.00
C111   C     0.55001   0.16876   0.11133   0.00000  Uiso   1.00
C112   C     0.39048   0.14164   0.46242   0.00000  Uiso   1.00
C113   C     0.60952   0.19169   0.03758   0.00000  Uiso   1.00
C114   C     0.40433   0.14694   0.41437   0.00000  Uiso   1.00
C115   C     0.59567   0.18640   0.08563   0.00000  Uiso   1.00
C116   C     0.48088   0.17641   0.41098   0.00000  Uiso   1.00
C117   C     0.51912   0.15692   0.08902   0.00000  Uiso   1.00
C118   C     0.47177   0.16372   0.45602   0.00000  Uiso   1.00
C119   C     0.52823   0.16962   0.04398   0.00000  Uiso   1.00
C120   C     0.42388   0.15074   0.48357   0.00000  Uiso   1.00
C121   C     0.44061   0.16496   0.05311   0.00000  Uiso   1.00
C122   C     0.57612   0.18260   0.01643   0.00000  Uiso   1.00
C123   C     0.50795   0.16654   0.47513   0.00000  Uiso   1.00
C124   C     0.49205   0.16679   0.02487   0.00000  Uiso   1.00
C125   C     0.41643   0.18355   0.10280   0.00000  Uiso   1.00
C126   C     0.43076   0.22956   0.10580   0.00000  Uiso   1.00
C127   C     0.40600   0.24733   0.15558   0.00000  Uiso   1.00
C128   C     0.58357   0.14979   0.39720   0.00000  Uiso   1.00
C129   C     0.56924   0.10377   0.39420   0.00000  Uiso   1.00
C130   C     0.59400   0.08601   0.34442   0.00000  Uiso   1.00
C131   C     0.39705   0.09815   0.20370   0.00000  Uiso   1.00
C132   C     0.55939   0.16837   0.44689   0.00000  Uiso   1.00
C133   C     0.38447   0.07382   0.16604   0.00000  Uiso   1.00
C134   C     0.42501   0.04366   0.13822   0.00000  Uiso   1.00
C135   C     0.60294   0.23518   0.29630   0.00000  Uiso   1.00
C136   C     0.61553   0.25951   0.33396   0.00000  Uiso   1.00
C137   C     0.57499   0.28968   0.36177   0.00000  Uiso   1.00
C138   C     0.40878   0.15131   0.03195   0.00000  Uiso   1.00
C139   C     0.59122   0.18203   0.46805   0.00000  Uiso   1.00
C140   C     0.54447   0.31234   0.23141   0.00000  Uiso   1.00
C141   C     0.45553   0.02100   0.26859   0.00000  Uiso   1.00
C142   C     0.54417   0.02178   0.23073   0.00000  Uiso   1.00
H143   H     0.37061   0.14584   0.05312   0.00000  Uiso   1.00
H144   H     0.42117   0.03714   0.28383   0.00000  Uiso   1.00
H145   H     0.57847   0.03855   0.21542   0.00000  Uiso   1.00
H146   H     0.42153   0.29478   0.28458   0.00000  Uiso   1.00
H147   H     0.63672   0.11103   0.21126   0.00000  Uiso   1.00
H148   H     0.36327   0.22231   0.28874   0.00000  Uiso   1.00
H149   H     0.36580   0.24462   0.16746   0.00000  Uiso   1.00
H150   H     0.41810   0.23038   0.17992   0.00000  Uiso   1.00
H151   H     0.41603   0.28079   0.15655   0.00000  Uiso   1.00
H152   H     0.47069   0.23302   0.09527   0.00000  Uiso   1.00
H153   H     0.41982   0.24809   0.08167   0.00000  Uiso   1.00
H154   H     0.62939   0.18749   0.44688   0.00000  Uiso   1.00
H155   H     0.37615   0.18257   0.11397   0.00000  Uiso   1.00
H156   H     0.42233   0.16526   0.12969   0.00000  Uiso   1.00
H157   H     0.58190   0.10296   0.32008   0.00000  Uiso   1.00
H158   H     0.63420   0.08872   0.33254   0.00000  Uiso   1.00
H159   H     0.58397   0.05254   0.34346   0.00000  Uiso   1.00
H160   H     0.58019   0.08524   0.41833   0.00000  Uiso   1.00
H161   H     0.52931   0.10032   0.40473   0.00000  Uiso   1.00
H162   H     0.57767   0.16807   0.37031   0.00000  Uiso   1.00
H163   H     0.62385   0.15076   0.38603   0.00000  Uiso   1.00
H164   H     0.45874   0.06122   0.11777   0.00000  Uiso   1.00
H165   H     0.48851   0.13688   0.10684   0.00000  Uiso   1.00
H166   H     0.43271   0.02247   0.16229   0.00000  Uiso   1.00
H167   H     0.41373   0.02456   0.11349   0.00000  Uiso   1.00
H168   H     0.35061   0.05513   0.18295   0.00000  Uiso   1.00
H169   H     0.37908   0.09579   0.14131   0.00000  Uiso   1.00
H170   H     0.43469   0.10930   0.18613   0.00000  Uiso   1.00
H171   H     0.39506   0.07594   0.23123   0.00000  Uiso   1.00
H172   H     0.56729   0.31086   0.33771   0.00000  Uiso   1.00
H173   H     0.54126   0.27211   0.38223   0.00000  Uiso   1.00
H174   H     0.58627   0.30878   0.38650   0.00000  Uiso   1.00
H175   H     0.62092   0.23755   0.35869   0.00000  Uiso   1.00
H176   H     0.51149   0.19646   0.39316   0.00000  Uiso   1.00
H177   H     0.64940   0.27820   0.31705   0.00000  Uiso   1.00
H178   H     0.60494   0.25739   0.26876   0.00000  Uiso   1.00
H179   H     0.56531   0.22404   0.31387   0.00000  Uiso   1.00
H180   H     0.62043   0.19552   0.10239   0.00000  Uiso   1.00
H181   H     0.37957   0.13781   0.39761   0.00000  Uiso   1.00
H182   H     0.35407   0.13041   0.48287   0.00000  Uiso   1.00
H183   H     0.64593   0.20292   0.01713   0.00000  Uiso   1.00
H184   H     0.57883   0.29619   0.21617   0.00000  Uiso   1.00
N185   N     0.38093   0.16668   0.25001   0.00000  Uiso   1.00
N186   N     0.61907   0.16666   0.24999   0.00000  Uiso   1.00
O187   O     0.46179   0.22775   0.25001   0.00000  Uiso   1.00
O188   O     0.53821   0.10558   0.25000   0.00000  Uiso   1.00
O189   O     0.53823   0.22774   0.25000   0.00000  Uiso   1.00
O190   O     0.46177   0.10559   0.25000   0.00000  Uiso   1.00
O191   O     0.43994   0.16667   0.31612   0.00000  Uiso   1.00
O192   O     0.56006   0.16666   0.18388   0.00000  Uiso   1.00
O193   O     0.51639   0.16666   0.31612   0.00000  Uiso   1.00
O194   O     0.48361   0.16667   0.18388   0.00000  Uiso   1.00
Zn195  Zn    0.44896   0.16667   0.25000   0.00000  Uiso   1.00
Zn196  Zn    0.55104   0.16666   0.25000   0.00000  Uiso   1.00
C197   C     0.83353   0.24661   0.25033   0.00000  Uiso   1.00
C198   C     0.78917   0.31155   0.26927   0.00000  Uiso   1.00
C199   C     0.83302   0.04253   0.24931   0.00000  Uiso   1.00
C200   C     0.83365   0.29080   0.25069   0.00000  Uiso   1.00
C201   C     0.98345   0.13556   0.22792   0.00000  Uiso   1.00
C202   C     0.68322   0.19777   0.27208   0.00000  Uiso   1.00
C203   C     0.69821   0.13509   0.22726   0.00000  Uiso   1.00
C204   C     0.96846   0.19825   0.27274   0.00000  Uiso   1.00
C205   C     0.80271   0.16684   0.33796   0.00000  Uiso   1.00
C206   C     0.86396   0.16649   0.16204   0.00000  Uiso   1.00
C207   C     0.78332   0.16458   0.38867   0.00000  Uiso   1.00
C208   C     0.83313   0.08673   0.24967   0.00000  Uiso   1.00
C209   C     0.88335   0.16876   0.11133   0.00000  Uiso   1.00
C210   C     0.72381   0.14164   0.46242   0.00000  Uiso   1.00
C211   C     0.94286   0.19169   0.03758   0.00000  Uiso   1.00
C212   C     0.73767   0.14694   0.41437   0.00000  Uiso   1.00
C213   C     0.92900   0.18640   0.08563   0.00000  Uiso   1.00
C214   C     0.81421   0.17641   0.41098   0.00000  Uiso   1.00
C215   C     0.85245   0.15692   0.08902   0.00000  Uiso   1.00
C216   C     0.80511   0.16372   0.45602   0.00000  Uiso   1.00
C217   C     0.86156   0.16962   0.04398   0.00000  Uiso   1.00
C218   C     0.75722   0.15074   0.48357   0.00000  Uiso   1.00
C219   C     0.77394   0.16496   0.05311   0.00000  Uiso   1.00
C220   C     0.90945   0.18260   0.01643   0.00000  Uiso   1.00
C221   C     0.84128   0.16654   0.47513   0.00000  Uiso   1.00
C222   C     0.82538   0.16679   0.02487   0.00000  Uiso   1.00
C223   C     0.74976   0.18355   0.10280   0.00000  Uiso   1.00
C224   C     0.76409   0.22956   0.10580   0.00000  Uiso   1.00
C225   C     0.73933   0.24733   0.15558   0.00000  Uiso   1.00
C226   C     0.91691   0.14979   0.39720   0.00000  Uiso   1.00
C227   C     0.90258   0.10377   0.39420   0.00000  Uiso   1.00
C228   C     0.92733   0.08601   0.34442   0.00000  Uiso   1.00
C229   C     0.73039   0.09815   0.20370   0.00000  Uiso   1.00
C230   C     0.89273   0.16837   0.44689   0.00000  Uiso   1.00
C231   C     0.71780   0.07382   0.16604   0.00000  Uiso   1.00
C232   C     0.75834   0.04366   0.13822   0.00000  Uiso   1.00
C233   C     0.93628   0.23518   0.29630   0.00000  Uiso   1.00
C234   C     0.94886   0.25951   0.33396   0.00000  Uiso   1.00
C235   C     0.90833   0.28968   0.36177   0.00000  Uiso   1.00
C236   C     0.74211   0.15131   0.03195   0.00000  Uiso   1.00
C237   C     0.92456   0.18203   0.46805   0.00000  Uiso   1.00
C238   C     0.87780   0.31234   0.23141   0.00000  Uiso   1.00
C239   C     0.78886   0.02100   0.26859   0.00000  Uiso   1.00
C240   C     0.87750   0.02178   0.23073   0.00000  Uiso   1.00
H241   H     0.70394   0.14584   0.05312   0.00000  Uiso   1.00
H242   H     0.75450   0.03714   0.28383   0.00000  Uiso   1.00
H243   H     0.91180   0.03855   0.21542   0.00000  Uiso   1.00
H244   H     0.75487   0.29478   0.28458   0.00000  Uiso   1.00
H245   H     0.97006   0.11103   0.21126   0.00000  Uiso   1.00
H246   H     0.69661   0.22231   0.28874   0.00000  Uiso   1.00
H247   H     0.69913   0.24462   0.16746   0.00000  Uiso   1.00
H248   H     0.75143   0.23038   0.17992   0.00000  Uiso   1.00
H249   H     0.74936   0.28079   0.15655   0.00000  Uiso   1.00
H250   H     0.80402   0.23302   0.09527   0.00000  Uiso   1.00
H251   H     0.75315   0.24809   0.08167   0.00000  Uiso   1.00
H252   H     0.96273   0.18749   0.44688   0.00000  Uiso   1.00
H253   H     0.70948   0.18257   0.11397   0.00000  Uiso   1.00
H254   H     0.75566   0.16526   0.12969   0.00000  Uiso   1.00
H255   H     0.91523   0.10296   0.32008   0.00000  Uiso   1.00
H256   H     0.96754   0.08872   0.33254   0.00000  Uiso   1.00
H257   H     0.91730   0.05254   0.34346   0.00000  Uiso   1.00
H258   H     0.91352   0.08524   0.41833   0.00000  Uiso   1.00
H259   H     0.86265   0.10032   0.40473   0.00000  Uiso   1.00
H260   H     0.91101   0.16807   0.37031   0.00000  Uiso   1.00
H261   H     0.95719   0.15076   0.38603   0.00000  Uiso   1.00
H262   H     0.79207   0.06122   0.11777   0.00000  Uiso   1.00
H263   H     0.82184   0.13688   0.10684   0.00000  Uiso   1.00
H264   H     0.76605   0.02247   0.16229   0.00000  Uiso   1.00
H265   H     0.74706   0.02456   0.11349   0.00000  Uiso   1.00
H266   H     0.68394   0.05513   0.18295   0.00000  Uiso   1.00
H267   H     0.71241   0.09579   0.14131   0.00000  Uiso   1.00
H268   H     0.76803   0.10930   0.18613   0.00000  Uiso   1.00
H269   H     0.72840   0.07594   0.23123   0.00000  Uiso   1.00
H270   H     0.90062   0.31086   0.33771   0.00000  Uiso   1.00
H271   H     0.87459   0.27211   0.38223   0.00000  Uiso   1.00
H272   H     0.91961   0.30878   0.38650   0.00000  Uiso   1.00
H273   H     0.95425   0.23755   0.35869   0.00000  Uiso   1.00
H274   H     0.84482   0.19646   0.39316   0.00000  Uiso   1.00
H275   H     0.98273   0.27820   0.31705   0.00000  Uiso   1.00
H276   H     0.93827   0.25739   0.26876   0.00000  Uiso   1.00
H277   H     0.89864   0.22404   0.31387   0.00000  Uiso   1.00
H278   H     0.95376   0.19552   0.10239   0.00000  Uiso   1.00
H279   H     0.71290   0.13781   0.39761   0.00000  Uiso   1.00
H280   H     0.68740   0.13041   0.48287   0.00000  Uiso   1.00
H281   H     0.97926   0.20292   0.01713   0.00000  Uiso   1.00
H282   H     0.91216   0.29619   0.21617   0.00000  Uiso   1.00
N283   N     0.71426   0.16668   0.25001   0.00000  Uiso   1.00
N284   N     0.95241   0.16666   0.24999   0.00000  Uiso   1.00
O285   O     0.79512   0.22775   0.25001   0.00000  Uiso   1.00
O286   O     0.87154   0.10558   0.25000   0.00000  Uiso   1.00
O287   O     0.87157   0.22774   0.25000   0.00000  Uiso   1.00
O288   O     0.79510   0.10559   0.25000   0.00000  Uiso   1.00
O289   O     0.77328   0.16667   0.31612   0.00000  Uiso   1.00
O290   O     0.89339   0.16666   0.18388   0.00000  Uiso   1.00
O291   O     0.84972   0.16666   0.31612   0.00000  Uiso   1.00
O292   O     0.81695   0.16667   0.18388   0.00000  Uiso   1.00
Zn293  Zn    0.78229   0.16667   0.25000   0.00000  Uiso   1.00
Zn294  Zn    0.88438   0.16666   0.25000   0.00000  Uiso   1.00
C295   C     0.16687   0.57994   0.25033   0.00000  Uiso   1.00
C296   C     0.12250   0.64488   0.26927   0.00000  Uiso   1.00
C297   C     0.16635   0.37587   0.24931   0.00000  Uiso   1.00
C298   C     0.16698   0.62413   0.25069   0.00000  Uiso   1.00
C299   C     0.31678   0.46889   0.22792   0.00000  Uiso   1.00
C300   C     0.01655   0.53111   0.27208   0.00000  Uiso   1.00
C301   C     0.03154   0.46842   0.22726   0.00000  Uiso   1.00
C302   C     0.30179   0.53158   0.27274   0.00000  Uiso   1.00
C303   C     0.13604   0.50017   0.33796   0.00000  Uiso   1.00
C304   C     0.19729   0.49983   0.16204   0.00000  Uiso   1.00
C305   C     0.11665   0.49791   0.38867   0.00000  Uiso   1.00
C306   C     0.16647   0.42006   0.24967   0.00000  Uiso   1.00
C307   C     0.21668   0.50209   0.11133   0.00000  Uiso   1.00
C308   C     0.05714   0.47498   0.46242   0.00000  Uiso   1.00
C309   C     0.27619   0.52503   0.03758   0.00000  Uiso   1.00
C310   C     0.07100   0.48027   0.41437   0.00000  Uiso   1.00
C311   C     0.26233   0.51973   0.08563   0.00000  Uiso   1.00
C312   C     0.14755   0.50975   0.41098   0.00000  Uiso   1.00
C313   C     0.18579   0.49026   0.08902   0.00000  Uiso   1.00
C314   C     0.13844   0.49705   0.45602   0.00000  Uiso   1.00
C315   C     0.19489   0.50295   0.04398   0.00000  Uiso   1.00
C316   C     0.09055   0.48407   0.48357   0.00000  Uiso   1.00
C317   C     0.10727   0.49830   0.05311   0.00000  Uiso   1.00
C318   C     0.24278   0.51593   0.01643   0.00000  Uiso   1.00
C319   C     0.17462   0.49988   0.47513   0.00000  Uiso   1.00
C320   C     0.15872   0.50013   0.02487   0.00000  Uiso   1.00
C321   C     0.08309   0.51688   0.10280   0.00000  Uiso   1.00
C322   C     0.09743   0.56290   0.10580   0.00000  Uiso   1.00
C323   C     0.07267   0.58066   0.15558   0.00000  Uiso   1.00
C324   C     0.25024   0.48312   0.39720   0.00000  Uiso   1.00
C325   C     0.23591   0.43711   0.39420   0.00000  Uiso   1.00
C326   C     0.26067   0.41934   0.34442   0.00000  Uiso   1.00
C327   C     0.06372   0.43149   0.20370   0.00000  Uiso   1.00
C328   C     0.22606   0.50171   0.44689   0.00000  Uiso   1.00
C329   C     0.05114   0.40716   0.16604   0.00000  Uiso   1.00
C330   C     0.09168   0.37699   0.13822   0.00000  Uiso   1.00
C331   C     0.26961   0.56851   0.29630   0.00000  Uiso   1.00
C332   C     0.28220   0.59284   0.33396   0.00000  Uiso   1.00
C333   C     0.24166   0.62301   0.36177   0.00000  Uiso   1.00
C334   C     0.07544   0.48464   0.03195   0.00000  Uiso   1.00
C335   C     0.25789   0.51536   0.46805   0.00000  Uiso   1.00
C336   C     0.21114   0.64567   0.23141   0.00000  Uiso   1.00
C337   C     0.12220   0.35433   0.26859   0.00000  Uiso   1.00
C338   C     0.21083   0.35512   0.23073   0.00000  Uiso   1.00
H339   H     0.03727   0.47918   0.05312   0.00000  Uiso   1.00
H340   H     0.08784   0.37047   0.28383   0.00000  Uiso   1.00
H341   H     0.24513   0.37189   0.21542   0.00000  Uiso   1.00
H342   H     0.08820   0.62811   0.28458   0.00000  Uiso   1.00
H343   H     0.30339   0.44436   0.21126   0.00000  Uiso   1.00
H344   H     0.02994   0.55564   0.28874   0.00000  Uiso   1.00
H345   H     0.03246   0.57795   0.16746   0.00000  Uiso   1.00
H346   H     0.08477   0.56371   0.17992   0.00000  Uiso   1.00
H347   H     0.08270   0.61413   0.15655   0.00000  Uiso   1.00
H348   H     0.13735   0.56635   0.09527   0.00000  Uiso   1.00
H349   H     0.08648   0.58143   0.08167   0.00000  Uiso   1.00
H350   H     0.29606   0.52083   0.44688   0.00000  Uiso   1.00
H351   H     0.04281   0.51591   0.11397   0.00000  Uiso   1.00
H352   H     0.08899   0.49860   0.12969   0.00000  Uiso   1.00
H353   H     0.24856   0.43629   0.32008   0.00000  Uiso   1.00
H354   H     0.30087   0.42205   0.33254   0.00000  Uiso   1.00
H355   H     0.25064   0.38587   0.34346   0.00000  Uiso   1.00
H356   H     0.24685   0.41858   0.41833   0.00000  Uiso   1.00
H357   H     0.19598   0.43365   0.40473   0.00000  Uiso   1.00
H358   H     0.24434   0.50141   0.37031   0.00000  Uiso   1.00
H359   H     0.29052   0.48410   0.38603   0.00000  Uiso   1.00
H360   H     0.12541   0.39456   0.11777   0.00000  Uiso   1.00
H361   H     0.15518   0.47021   0.10684   0.00000  Uiso   1.00
H362   H     0.09938   0.35581   0.16229   0.00000  Uiso   1.00
H363   H     0.08039   0.35789   0.11349   0.00000  Uiso   1.00
H364   H     0.01727   0.38846   0.18295   0.00000  Uiso   1.00
H365   H     0.04575   0.42912   0.14131   0.00000  Uiso   1.00
H366   H     0.10136   0.44263   0.18613   0.00000  Uiso   1.00
H367   H     0.06173   0.40928   0.23123   0.00000  Uiso   1.00
H368   H     0.23395   0.64419   0.33771   0.00000  Uiso   1.00
H369   H     0.20793   0.60545   0.38223   0.00000  Uiso   1.00
H370   H     0.25294   0.64211   0.38650   0.00000  Uiso   1.00
H371   H     0.28759   0.57088   0.35869   0.00000  Uiso   1.00
H372   H     0.17816   0.52979   0.39316   0.00000  Uiso   1.00
H373   H     0.31606   0.61154   0.31705   0.00000  Uiso   1.00
H374   H     0.27160   0.59072   0.26876   0.00000  Uiso   1.00
H375   H     0.23197   0.55737   0.31387   0.00000  Uiso   1.00
H376   H     0.28710   0.52885   0.10239   0.00000  Uiso   1.00
H377   H     0.04624   0.47115   0.39761   0.00000  Uiso   1.00
H378   H     0.02074   0.46375   0.48287   0.00000  Uiso   1.00
H379   H     0.31260   0.53626   0.01713   0.00000  Uiso   1.00
H380   H     0.24550   0.62953   0.21617   0.00000  Uiso   1.00
N381   N     0.04759   0.50001   0.25001   0.00000  Uiso   1.00
N382   N     0.28574   0.49999   0.24999   0.00000  Uiso   1.00
O383   O     0.12846   0.56108   0.25001   0.00000  Uiso   1.00
O384   O     0.20488   0.43892   0.25000   0.00000  Uiso   1.00
O385   O     0.20490   0.56107   0.25000   0.00000  Uiso   1.00
O386   O     0.12843   0.43893   0.25000   0.00000  Uiso   1.00
O387   O     0.10661   0.50001   0.31612   0.00000  Uiso   1.00
O388   O     0.22672   0.49999   0.18388   0.00000  Uiso   1.00
O389   O     0.18305   0.50000   0.31612   0.00000  Uiso   1.00
O390   O     0.15028   0.50000   0.18388   0.00000  Uiso   1.00
Zn391  Zn    0.11562   0.50001   0.25000   0.00000  Uiso   1.00
Zn392  Zn    0.21771   0.49999   0.25000   0.00000  Uiso   1.00
C393   C     0.50020   0.57994   0.25033   0.00000  Uiso   1.00
C394   C     0.45583   0.64488   0.26927   0.00000  Uiso   1.00
C395   C     0.49968   0.37587   0.24931   0.00000  Uiso   1.00
C396   C     0.50031   0.62413   0.25069   0.00000  Uiso   1.00
C397   C     0.65012   0.46889   0.22792   0.00000  Uiso   1.00
C398   C     0.34988   0.53111   0.27208   0.00000  Uiso   1.00
C399   C     0.36488   0.46842   0.22726   0.00000  Uiso   1.00
C400   C     0.63512   0.53158   0.27274   0.00000  Uiso   1.00
C401   C     0.46937   0.50017   0.33796   0.00000  Uiso   1.00
C402   C     0.53063   0.49983   0.16204   0.00000  Uiso   1.00
C403   C     0.44999   0.49791   0.38867   0.00000  Uiso   1.00
C404   C     0.49980   0.42006   0.24967   0.00000  Uiso   1.00
C405   C     0.55001   0.50209   0.11133   0.00000  Uiso   1.00
C406   C     0.39048   0.47498   0.46242   0.00000  Uiso   1.00
C407   C     0.60952   0.52503   0.03758   0.00000  Uiso   1.00
C408   C     0.40433   0.48027   0.41437   0.00000  Uiso   1.00
C409   C     0.59567   0.51973   0.08563   0.00000  Uiso   1.00
C410   C     0.48088   0.50975   0.41098   0.00000  Uiso   1.00
C411   C     0.51912   0.49026   0.08902   0.00000  Uiso   1.00
C412   C     0.47177   0.49705   0.45602   0.00000  Uiso   1.00
C413   C     0.52823   0.50295   0.04398   0.00000  Uiso   1.00
C414   C     0.42388   0.48407   0.48357   0.00000  Uiso   1.00
C415   C     0.44061   0.49830   0.05311   0.00000  Uiso   1.00
C416   C     0.57612   0.51593   0.01643   0.00000  Uiso   1.00
C417   C     0.50795   0.49988   0.47513   0.00000  Uiso   1.00
C418   C     0.49205   0.50013   0.02487   0.00000  Uiso   1.00
C419   C     0.41643   0.51688   0.10280   0.00000  Uiso   1.00
C420   C     0.43076   0.56290   0.10580   0.00000  Uiso   1.00
C421   C     0.40600   0.58066   0.15558   0.00000  Uiso   1.00
C422   C     0.58357   0.48312   0.39720   0.00000  Uiso   1.00
C423   C     0.56924   0.43711   0.39420   0.00000  Uiso   1.00
C424   C     0.59400   0.41934   0.34442   0.00000  Uiso   1.00
C425   C     0.39705   0.43149   0.20370   0.00000  Uiso   1.00
C426   C     0.55939   0.50171   0.44689   0.00000  Uiso   1.00
C427   C     0.38447   0.40716   0.16604   0.00000  Uiso   1.00
C428   C     0.42501   0.37699   0.13822   0.00000  Uiso   1.00
C429   C     0.60294   0.56851   0.29630   0.00000  Uiso   1.00
C430   C     0.61553   0.59284   0.33396   0.00000  Uiso   1.00
C431   C     0.57499   0.62301   0.36177   0.00000  Uiso   1.00
C432   C     0.40878   0.48464   0.03195   0.00000  Uiso   1.00
C433   C     0.59122   0.51536   0.46805   0.00000  Uiso   1.00
C434   C     0.54447   0.64567   0.23141   0.00000  Uiso   1.00
C435   C     0.45553   0.35433   0.26859   0.00000  Uiso   1.00
C436   C     0.54417   0.35512   0.23073   0.00000  Uiso   1.00
H437   H     0.37061   0.47918   0.05312   0.00000  Uiso   1.00
H438   H     0.42117   0.37047   0.28383   0.00000  Uiso   1.00
H439   H     0.57847   0.37189   0.21542   0.00000  Uiso   1.00
H440   H     0.42153   0.62811   0.28458   0.00000  Uiso   1.00
H441   H     0.63672   0.44436   0.21126   0.00000  Uiso   1.00
H442   H     0.36327   0.55564   0.28874   0.00000  Uiso   1.00
H443   H     0.36580   0.57795   0.16746   0.00000  Uiso   1.00
H444   H     0.41810   0.56371   0.17992   0.00000  Uiso   1.00
H445   H     0.41603   0.61413   0.15655   0.00000  Uiso   1.00
H446   H     0.47069   0.56635   0.09527   0.00000  Uiso   1.00
H447   H     0.41982   0.58143   0.08167   0.00000  Uiso   1.00
H448   H     0.62939   0.52083   0.44688   0.00000  Uiso   1.00
H449   H     0.37615   0.51591   0.11397   0.00000  Uiso   1.00
H450   H     0.42233   0.49860   0.12969   0.00000  Uiso   1.00
H451   H     0.58190   0.43629   0.32008   0.00000  Uiso   1.00
H452   H     0.63420   0.42205   0.33254   0.00000  Uiso   1.00
H453   H     0.58397   0.38587   0.34346   0.00000  Uiso   1.00
H454   H     0.58019   0.41858   0.41833   0.00000  Uiso   1.00
H455   H     0.52931   0.43365   0.40473   0.00000  Uiso   1.00
H456   H     0.57767   0.50141   0.37031   0.00000  Uiso   1.00
H457   H     0.62385   0.48410   0.38603   0.00000  Uiso   1.00
H458   H     0.45874   0.39456   0.11777   0.00000  Uiso   1.00
H459   H     0.48851   0.47021   0.10684   0.00000  Uiso   1.00
H460   H     0.43271   0.35581   0.16229   0.00000  Uiso   1.00
H461   H     0.41373   0.35789   0.11349   0.00000  Uiso   1.00
H462   H     0.35061   0.38846   0.18295   0.00000  Uiso   1.00
H463   H     0.37908   0.42912   0.14131   0.00000  Uiso   1.00
H464   H     0.43469   0.44263   0.18613   0.00000  Uiso   1.00
H465   H     0.39506   0.40928   0.23123   0.00000  Uiso   1.00
H466   H     0.56729   0.64419   0.33771   0.00000  Uiso   1.00
H467   H     0.54126   0.60545   0.38223   0.00000  Uiso   1.00
H468   H     0.58627   0.64211   0.38650   0.00000  Uiso   1.00
H469   H     0.62092   0.57088   0.35869   0.00000  Uiso   1.00
H470   H     0.51149   0.52979   0.39316   0.00000  Uiso   1.00
H471   H     0.64940   0.61154   0.31705   0.00000  Uiso   1.00
H472   H     0.60494   0.59072   0.26876   0.00000  Uiso   1.00
H473   H     0.56531   0.55737   0.31387   0.00000  Uiso   1.00
H474   H     0.62043   0.52885   0.10239   0.00000  Uiso   1.00
H475   H     0.37957   0.47115   0.39761   0.00000  Uiso   1.00
H476   H     0.35407   0.46375   0.48287   0.00000  Uiso   1.00
H477   H     0.64593   0.53626   0.01713   0.00000  Uiso   1.00
H478   H     0.57883   0.62953   0.21617   0.00000  Uiso   1.00
N479   N     0.38093   0.50001   0.25001   0.00000  Uiso   1.00
N480   N     0.61907   0.49999   0.24999   0.00000  Uiso   1.00
O481   O     0.46179   0.56108   0.25001   0.00000  Uiso   1.00
O482   O     0.53821   0.43892   0.25000   0.00000  Uiso   1.00
O483   O     0.53823   0.56107   0.25000   0.00000  Uiso   1.00
O484   O     0.46177   0.43893   0.25000   0.00000  Uiso   1.00
O485   O     0.43994   0.50001   0.31612   0.00000  Uiso   1.00
O486   O     0.56006   0.49999   0.18388   0.00000  Uiso   1.00
O487   O     0.51639   0.50000   0.31612   0.00000  Uiso   1.00
O488   O     0.48361   0.50000   0.18388   0.00000  Uiso   1.00
Zn489  Zn    0.44896   0.50001   0.25000   0.00000  Uiso   1.00
Zn490  Zn    0.55104   0.49999   0.25000   0.00000  Uiso   1.00
C491   C     0.83353   0.57994   0.25033   0.00000  Uiso   1.00
C492   C     0.78917   0.64488   0.26927   0.00000  Uiso   1.00
C493   C     0.83302   0.37587   0.24931   0.00000  Uiso   1.00
C494   C     0.83365   0.62413   0.25069   0.00000  Uiso   1.00
C495   C     0.98345   0.46889   0.22792   0.00000  Uiso   1.00
C496   C     0.68322   0.53111   0.27208   0.00000  Uiso   1.00
C497   C     0.69821   0.46842   0.22726   0.00000  Uiso   1.00
C498   C     0.96846   0.53158   0.27274   0.00000  Uiso   1.00
C499   C     0.80271   0.50017   0.33796   0.00000  Uiso   1.00
C500   C     0.86396   0.49983   0.16204   0.00000  Uiso   1.00
C501   C     0.78332   0.49791   0.38867   0.00000  Uiso   1.00
C502   C     0.83313   0.42006   0.24967   0.00000  Uiso   1.00
C503   C     0.88335   0.50209   0.11133   0.00000  Uiso   1.00
C504   C     0.72381   0.47498   0.46242   0.00000  Uiso   1.00
C505   C     0.94286   0.52503   0.03758   0.00000  Uiso   1.00
C506   C     0.73767   0.48027   0.41437   0.00000  Uiso   1.00
C507   C     0.92900   0.51973   0.08563   0.00000  Uiso   1.00
C508   C     0.81421   0.50975   0.41098   0.00000  Uiso   1.00
C509   C     0.85245   0.49026   0.08902   0.00000  Uiso   1.00
C510   C     0.80511   0.49705   0.45602   0.00000  Uiso   1.00
C511   C     0.86156   0.50295   0.04398   0.00000  Uiso   1.00
C512   C     0.75722   0.48407   0.48357   0.00000  Uiso   1.00
C513   C     0.77394   0.49830   0.05311   0.00000  Uiso   1.00
C514   C     0.90945   0.51593   0.01643   0.00000  Uiso   1.00
C515   C     0.84128   0.49988   0.47513   0.00000  Uiso   1.00
C516   C     0.82538   0.50013   0.02487   0.00000  Uiso   1.00
C517   C     0.74976   0.51688   0.10280   0.00000  Uiso   1.00
C518   C     0.76409   0.56290   0.10580   0.00000  Uiso   1.00
C519   C     0.73933   0.58066   0.15558   0.00000  Uiso   1.00
C520   C     0.91691   0.48312   0.39720   0.00000  Uiso   1.00
C521   C     0.90258   0.43711   0.39420   0.00000  Uiso   1.00
C522   C     0.92733   0.41934   0.34442   0.00000  Uiso   1.00
C523   C     0.73039   0.43149   0.20370   0.00000  Uiso   1.00
C524   C     0.89273   0.50171   0.44689   0.00000  Uiso   1.00
C525   C     0.71780   0.40716   0.16604   0.00000  Uiso   1.00
C526   C     0.75834   0.37699   0.13822   0.00000  Uiso   1.00
C527   C     0.93628   0.56851   0.29630   0.00000  Uiso   1.00
C528   C     0.94886   0.59284   0.33396   0.00000  Uiso   1.00
C529   C     0.90833   0.62301   0.36177   0.00000  Uiso   1.00
C530   C     0.74211   0.48464   0.03195   0.00000  Uiso   1.00
C531   C     0.92456   0.51536   0.46805   0.00000  Uiso   1.00
C532   C     0.87780   0.64567   0.23141   0.00000  Uiso   1.00
C533   C     0.78886   0.35433   0.26859   0.00000  Uiso   1.00
C534   C     0.87750   0.35512   0.23073   0.00000  Uiso   1.00
H535   H     0.70394   0.47918   0.05312   0.00000  Uiso   1.00
H536   H     0.75450   0.37047   0.28383   0.00000  Uiso   1.00
H537   H     0.91180   0.37189   0.21542   0.00000  Uiso   1.00
H538   H     0.75487   0.62811   0.28458   0.00000  Uiso   1.00
H539   H     0.97006   0.44436   0.21126   0.00000  Uiso   1.00
H540   H     0.69661   0.55564   0.28874   0.00000  Uiso   1.00
H541   H     0.69913   0.57795   0.16746   0.00000  Uiso   1.00
H542   H     0.75143   0.56371   0.17992   0.00000  Uiso   1.00
H543   H     0.74936   0.61413   0.15655   0.00000  Uiso   1.00
H544   H     0.80402   0.56635   0.09527   0.00000  Uiso   1.00
H545   H     0.75315   0.58143   0.08167   0.00000  Uiso   1.00
H546   H     0.96273   0.52083   0.44688   0.00000  Uiso   1.00
H547   H     0.70948   0.51591   0.11397   0.00000  Uiso   1.00
H548   H     0.75566   0.49860   0.12969   0.00000  Uiso   1.00
H549   H     0.91523   0.43629   0.32008   0.00000  Uiso   1.00
H550   H     0.96754   0.42205   0.33254   0.00000  Uiso   1.00
H551   H     0.91730   0.38587   0.34346   0.00000  Uiso   1.00
H552   H     0.91352   0.41858   0.41833   0.00000  Uiso   1.00
H553   H     0.86265   0.43365   0.40473   0.00000  Uiso   1.00
H554   H     0.91101   0.50141   0.37031   0.00000  Uiso   1.00
H555   H     0.95719   0.48410   0.38603   0.00000  Uiso   1.00
H556   H     0.79207   0.39456   0.11777   0.00000  Uiso   1.00
H557   H     0.82184   0.47021   0.10684   0.00000  Uiso   1.00
H558   H     0.76605   0.35581   0.16229   0.00000  Uiso   1.00
H559   H     0.74706   0.35789   0.11349   0.00000  Uiso   1.00
H560   H     0.68394   0.38846   0.18295   0.00000  Uiso   1.00
H561   H     0.71241   0.42912   0.14131   0.00000  Uiso   1.00
H562   H     0.76803   0.44263   0.18613   0.00000  Uiso   1.00
H563   H     0.72840   0.40928   0.23123   0.00000  Uiso   1.00
H564   H     0.90062   0.64419   0.33771   0.00000  Uiso   1.00
H565   H     0.87459   0.60545   0.38223   0.00000  Uiso   1.00
H566   H     0.91961   0.64211   0.38650   0.00000  Uiso   1.00
H567   H     0.95425   0.57088   0.35869   0.00000  Uiso   1.00
H568   H     0.84482   0.52979   0.39316   0.00000  Uiso   1.00
H569   H     0.98273   0.61154   0.31705   0.00000  Uiso   1.00
H570   H     0.93827   0.59072   0.26876   0.00000  Uiso   1.00
H571   H     0.89864   0.55737   0.31387   0.00000  Uiso   1.00
H572   H     0.95376   0.52885   0.10239   0.00000  Uiso   1.00
H573   H     0.71290   0.47115   0.39761   0.00000  Uiso   1.00
H574   H     0.68740   0.46375   0.48287   0.00000  Uiso   1.00
H575   H     0.97926   0.53626   0.01713   0.00000  Uiso   1.00
H576   H     0.91216   0.62953   0.21617   0.00000  Uiso   1.00
N577   N     0.71426   0.50001   0.25001   0.00000  Uiso   1.00
N578   N     0.95241   0.49999   0.24999   0.00000  Uiso   1.00
O579   O     0.79512   0.56108   0.25001   0.00000  Uiso   1.00
O580   O     0.87154   0.43892   0.25000   0.00000  Uiso   1.00
O581   O     0.87157   0.56107   0.25000   0.00000  Uiso   1.00
O582   O     0.79510   0.43893   0.25000   0.00000  Uiso   1.00
O583   O     0.77328   0.50001   0.31612   0.00000  Uiso   1.00
O584   O     0.89339   0.49999   0.18388   0.00000  Uiso   1.00
O585   O     0.84972   0.50000   0.31612   0.00000  Uiso   1.00
O586   O     0.81695   0.50000   0.18388   0.00000  Uiso   1.00
Zn587  Zn    0.78229   0.50001   0.25000   0.00000  Uiso   1.00
Zn588  Zn    0.88438   0.49999   0.25000   0.00000  Uiso   1.00
C589   C     0.16687   0.91327   0.25033   0.00000  Uiso   1.00
C590   C     0.12250   0.97822   0.26927   0.00000  Uiso   1.00
C591   C     0.16635   0.70920   0.24931   0.00000  Uiso   1.00
C592   C     0.16698   0.95747   0.25069   0.00000  Uiso   1.00
C593   C     0.31678   0.80223   0.22792   0.00000  Uiso   1.00
C594   C     0.01655   0.86444   0.27208   0.00000  Uiso   1.00
C595   C     0.03154   0.80175   0.22726   0.00000  Uiso   1.00
C596   C     0.30179   0.86491   0.27274   0.00000  Uiso   1.00
C597   C     0.13604   0.83351   0.33796   0.00000  Uiso   1.00
C598   C     0.19729   0.83316   0.16204   0.00000  Uiso   1.00
C599   C     0.11665   0.83124   0.38867   0.00000  Uiso   1.00
C600   C     0.16647   0.75339   0.24967   0.00000  Uiso   1.00
C601   C     0.21668   0.83542   0.11133   0.00000  Uiso   1.00
C602   C     0.05714   0.80831   0.46242   0.00000  Uiso   1.00
C603   C     0.27619   0.85836   0.03758   0.00000  Uiso   1.00
C604   C     0.07100   0.81360   0.41437   0.00000  Uiso   1.00
C605   C     0.26233   0.85306   0.08563   0.00000  Uiso   1.00
C606   C     0.14755   0.84308   0.41098   0.00000  Uiso   1.00
C607   C     0.18579   0.82359   0.08902   0.00000  Uiso   1.00
C608   C     0.13844   0.83038   0.45602   0.00000  Uiso   1.00
C609   C     0.19489   0.83629   0.04398   0.00000  Uiso   1.00
C610   C     0.09055   0.81740   0.48357   0.00000  Uiso   1.00
C611   C     0.10727   0.83163   0.05311   0.00000  Uiso   1.00
C612   C     0.24278   0.84927   0.01643   0.00000  Uiso   1.00
C613   C     0.17462   0.83321   0.47513   0.00000  Uiso   1.00
C614   C     0.15872   0.83346   0.02487   0.00000  Uiso   1.00
C615   C     0.08309   0.85021   0.10280   0.00000  Uiso   1.00
C616   C     0.09743   0.89623   0.10580   0.00000  Uiso   1.00
C617   C     0.07267   0.91400   0.15558   0.00000  Uiso   1.00
C618   C     0.25024   0.81646   0.39720   0.00000  Uiso   1.00
C619   C     0.23591   0.77044   0.39420   0.00000  Uiso   1.00
C620   C     0.26067   0.75267   0.34442   0.00000  Uiso   1.00
C621   C     0.06372   0.76482   0.20370   0.00000  Uiso   1.00
C622   C     0.22606   0.83504   0.44689   0.00000  Uiso   1.00
C623   C     0.05114   0.74049   0.16604   0.00000  Uiso   1.00
C624   C     0.09168   0.71032   0.13822   0.00000  Uiso   1.00
C625   C     0.26961   0.90185   0.29630   0.00000  Uiso   1.00
C626   C     0.28220   0.92618   0.33396   0.00000  Uiso   1.00
C627   C     0.24166   0.95635   0.36177   0.00000  Uiso   1.00
C628   C     0.07544   0.81797   0.03195   0.00000  Uiso   1.00
C629   C     0.25789   0.84870   0.46805   0.00000  Uiso   1.00
C630   C     0.21114   0.97900   0.23141   0.00000  Uiso   1.00
C631   C     0.12220   0.68766   0.26859   0.00000  Uiso   1.00
C632   C     0.21083   0.68845   0.23073   0.00000  Uiso   1.00
H633   H     0.03727   0.81251   0.05312   0.00000  Uiso   1.00
H634   H     0.08784   0.70381   0.28383   0.00000  Uiso   1.00
H635   H     0.24513   0.70522   0.21542   0.00000  Uiso   1.00
H636   H     0.08820   0.96145   0.28458   0.00000  Uiso   1.00
H637   H     0.30339   0.77769   0.21126   0.00000  Uiso   1.00
H638   H     0.02994   0.88897   0.28874   0.00000  Uiso   1.00
H639   H     0.03246   0.91128   0.16746   0.00000  Uiso   1.00
H640   H     0.08477   0.89705   0.17992   0.00000  Uiso   1.00
H641   H     0.08270   0.94746   0.15655   0.00000  Uiso   1.00
H642   H     0.13735   0.89969   0.09527   0.00000  Uiso   1.00
H643   H     0.08648   0.91476   0.08167   0.00000  Uiso   1.00
H644   H     0.29606   0.85416   0.44688   0.00000  Uiso   1.00
H645   H     0.04281   0.84924   0.11397   0.00000  Uiso   1.00
H646   H     0.08899   0.83193   0.12969   0.00000  Uiso   1.00
H647   H     0.24856   0.76962   0.32008   0.00000  Uiso   1.00
H648   H     0.30087   0.75538   0.33254   0.00000  Uiso   1.00
H649   H     0.25064   0.71921   0.34346   0.00000  Uiso   1.00
H650   H     0.24685   0.75191   0.41833   0.00000  Uiso   1.00
H651   H     0.19598   0.76698   0.40473   0.00000  Uiso   1.00
H652   H     0.24434   0.83474   0.37031   0.00000  Uiso   1.00
H653   H     0.29052   0.81743   0.38603   0.00000  Uiso   1.00
H654   H     0.12541   0.72789   0.11777   0.00000  Uiso   1.00
H655   H     0.15518   0.80354   0.10684   0.00000  Uiso   1.00
H656   H     0.09938   0.68914   0.16229   0.00000  Uiso   1.00
H657   H     0.08039   0.69123   0.11349   0.00000  Uiso   1.00
H658   H     0.01727   0.72180   0.18295   0.00000  Uiso   1.00
H659   H     0.04575   0.76246   0.14131   0.00000  Uiso   1.00
H660   H     0.10136   0.77596   0.18613   0.00000  Uiso   1.00
H661   H     0.06173   0.74261   0.23123   0.00000  Uiso   1.00
H662   H     0.23395   0.97753   0.33771   0.00000  Uiso   1.00
H663   H     0.20793   0.93878   0.38223   0.00000  Uiso   1.00
H664   H     0.25294   0.97544   0.38650   0.00000  Uiso   1.00
H665   H     0.28759   0.90421   0.35869   0.00000  Uiso   1.00
H666   H     0.17816   0.86312   0.39316   0.00000  Uiso   1.00
H667   H     0.31606   0.94487   0.31705   0.00000  Uiso   1.00
H668   H     0.27160   0.92406   0.26876   0.00000  Uiso   1.00
H669   H     0.23197   0.89070   0.31387   0.00000  Uiso   1.00
H670   H     0.28710   0.86219   0.10239   0.00000  Uiso   1.00
H671   H     0.04624   0.80448   0.39761   0.00000  Uiso   1.00
H672   H     0.02074   0.79708   0.48287   0.00000  Uiso   1.00
H673   H     0.31260   0.86959   0.01713   0.00000  Uiso   1.00
H674   H     0.24550   0.96286   0.21617   0.00000  Uiso   1.00
N675   N     0.04759   0.83334   0.25001   0.00000  Uiso   1.00
N676   N     0.28574   0.83332   0.24999   0.00000  Uiso   1.00
O677   O     0.12846   0.89442   0.25001   0.00000  Uiso   1.00
O678   O     0.20488   0.77225   0.25000   0.00000  Uiso   1.00
O679   O     0.20490   0.89441   0.25000   0.00000  Uiso   1.00
O680   O     0.12843   0.77226   0.25000   0.00000  Uiso   1.00
O681   O     0.10661   0.83334   0.31612   0.00000  Uiso   1.00
O682   O     0.22672   0.83333   0.18388   0.00000  Uiso   1.00
O683   O     0.18305   0.83333   0.31612   0.00000  Uiso   1.00
O684   O     0.15028   0.83334   0.18388   0.00000  Uiso   1.00
Zn685  Zn    0.11562   0.83334   0.25000   0.00000  Uiso   1.00
Zn686  Zn    0.21771   0.83333   0.25000   0.00000  Uiso   1.00
C687   C     0.50020   0.91327   0.25033   0.00000  Uiso   1.00
C688   C     0.45583   0.97822   0.26927   0.00000  Uiso   1.00
C689   C     0.49968   0.70920   0.24931   0.00000  Uiso   1.00
C690   C     0.50031   0.95747   0.25069   0.00000  Uiso   1.00
C691   C     0.65012   0.80223   0.22792   0.00000  Uiso   1.00
C692   C     0.34988   0.86444   0.27208   0.00000  Uiso   1.00
C693   C     0.36488   0.80175   0.22726   0.00000  Uiso   1.00
C694   C     0.63512   0.86491   0.27274   0.00000  Uiso   1.00
C695   C     0.46937   0.83351   0.33796   0.00000  Uiso   1.00
C696   C     0.53063   0.83316   0.16204   0.00000  Uiso   1.00
C697   C     0.44999   0.83124   0.38867   0.00000  Uiso   1.00
C698   C     0.49980   0.75339   0.24967   0.00000  Uiso   1.00
C699   C     0.55001   0.83542   0.11133   0.00000  Uiso   1.00
C700   C     0.39048   0.80831   0.46242   0.00000  Uiso   1.00
C701   C     0.60952   0.85836   0.03758   0.00000  Uiso   1.00
C702   C     0.40433   0.81360   0.41437   0.00000  Uiso   1.00
C703   C     0.59567   0.85306   0.08563   0.00000  Uiso   1.00
C704   C     0.48088   0.84308   0.41098   0.00000  Uiso   1.00
C705   C     0.51912   0.82359   0.08902   0.00000  Uiso   1.00
C706   C     0.47177   0.83038   0.45602   0.00000  Uiso   1.00
C707   C     0.52823   0.83629   0.04398   0.00000  Uiso   1.00
C708   C     0.42388   0.81740   0.48357   0.00000  Uiso   1.00
C709   C     0.44061   0.83163   0.05311   0.00000  Uiso   1.00
C710   C     0.57612   0.84927   0.01643   0.00000  Uiso   1.00
C711   C     0.50795   0.83321   0.47513   0.00000  Uiso   1.00
C712   C     0.49205   0.83346   0.02487   0.00000  Uiso   1.00
C713   C     0.41643   0.85021   0.10280   0.00000  Uiso   1.00
C714   C     0.43076   0.89623   0.10580   0.00000  Uiso   1.00
C715   C     0.40600   0.91400   0.15558   0.00000  Uiso   1.00
C716   C     0.58357   0.81646   0.39720   0.00000  Uiso   1.00
C717   C     0.56924   0.77044   0.39420   0.00000  Uiso   1.00
C718   C     0.59400   0.75267   0.34442   0.00000  Uiso   1.00
C719   C     0.39705   0.76482   0.20370   0.00000  Uiso   1.00
C720   C     0.55939   0.83504   0.44689   0.00000  Uiso   1.00
C721   C     0.38447   0.74049   0.16604   0.00000  Uiso   1.00
C722   C     0.42501   0.71032   0.13822   0.00000  Uiso   1.00
C723   C     0.60294   0.90185   0.29630   0.00000  Uiso   1.00
C724   C     0.61553   0.92618   0.33396   0.00000  Uiso   1.00
C725   C     0.57499   0.95635   0.36177   0.00000  Uiso   1.00
C726   C     0.40878   0.81797   0.03195   0.00000  Uiso   1.00
C727   C     0.59122   0.84870   0.46805   0.00000  Uiso   1.00
C728   C     0.54447   0.97900   0.23141   0.00000  Uiso   1.00
C729   C     0.45553   0.68766   0.26859   0.00000  Uiso   1.00
C730   C     0.54417   0.68845   0.23073   0.00000  Uiso   1.00
H731   H     0.37061   0.81251   0.05312   0.00000  Uiso   1.00
H732   H     0.42117   0.70381   0.28383   0.00000  Uiso   1.00
H733   H     0.57847   0.70522   0.21542   0.00000  Uiso   1.00
H734   H     0.42153   0.96145   0.28458   0.00000  Uiso   1.00
H735   H     0.63672   0.77769   0.21126   0.00000  Uiso   1.00
H736   H     0.36327   0.88897   0.28874   0.00000  Uiso   1.00
H737   H     0.36580   0.91128   0.16746   0.00000  Uiso   1.00
H738   H     0.41810   0.89705   0.17992   0.00000  Uiso   1.00
H739   H     0.41603   0.94746   0.15655   0.00000  Uiso   1.00
H740   H     0.47069   0.89969   0.09527   0.00000  Uiso   1.00
H741   H     0.41982   0.91476   0.08167   0.00000  Uiso   1.00
H742   H     0.62939   0.85416   0.44688   0.00000  Uiso   1.00
H743   H     0.37615   0.84924   0.11397   0.00000  Uiso   1.00
H744   H     0.42233   0.83193   0.12969   0.00000  Uiso   1.00
H745   H     0.58190   0.76962   0.32008   0.00000  Uiso   1.00
H746   H     0.63420   0.75538   0.33254   0.00000  Uiso   1.00
H747   H     0.58397   0.71921   0.34346   0.00000  Uiso   1.00
H748   H     0.58019   0.75191   0.41833   0.00000  Uiso   1.00
H749   H     0.52931   0.76698   0.40473   0.00000  Uiso   1.00
H750   H     0.57767   0.83474   0.37031   0.00000  Uiso   1.00
H751   H     0.62385   0.81743   0.38603   0.00000  Uiso   1.00
H752   H     0.45874   0.72789   0.11777   0.00000  Uiso   1.00
H753   H     0.48851   0.80354   0.10684   0.00000  Uiso   1.00
H754   H     0.43271   0.68914   0.16229   0.00000  Uiso   1.00
H755   H     0.41373   0.69123   0.11349   0.00000  Uiso   1.00
H756   H     0.35061   0.72180   0.18295   0.00000  Uiso   1.00
H757   H     0.37908   0.76246   0.14131   0.00000  Uiso   1.00
H758   H     0.43469   0.77596   0.18613   0.00000  Uiso   1.00
H759   H     0.39506   0.74261   0.23123   0.00000  Uiso   1.00
H760   H     0.56729   0.97753   0.33771   0.00000  Uiso   1.00
H761   H     0.54126   0.93878   0.38223   0.00000  Uiso   1.00
H762   H     0.58627   0.97544   0.38650   0.00000  Uiso   1.00
H763   H     0.62092   0.90421   0.35869   0.00000  Uiso   1.00
H764   H     0.51149   0.86312   0.39316   0.00000  Uiso   1.00
H765   H     0.64940   0.94487   0.31705   0.00000  Uiso   1.00
H766   H     0.60494   0.92406   0.26876   0.00000  Uiso   1.00
H767   H     0.56531   0.89070   0.31387   0.00000  Uiso   1.00
H768   H     0.62043   0.86219   0.10239   0.00000  Uiso   1.00
H769   H     0.37957   0.80448   0.39761   0.00000  Uiso   1.00
H770   H     0.35407   0.79708   0.48287   0.00000  Uiso   1.00
H771   H     0.64593   0.86959   0.01713   0.00000  Uiso   1.00
H772   H     0.57883   0.96286   0.21617   0.00000  Uiso   1.00
N773   N     0.38093   0.83334   0.25001   0.00000  Uiso   1.00
N774   N     0.61907   0.83332   0.24999   0.00000  Uiso   1.00
O775   O     0.46179   0.89442   0.25001   0.00000  Uiso   1.00
O776   O     0.53821   0.77225   0.25000   0.00000  Uiso   1.00
O777   O     0.53823   0.89441   0.25000   0.00000  Uiso   1.00
O778   O     0.46177   0.77226   0.25000   0.00000  Uiso   1.00
O779   O     0.43994   0.83334   0.31612   0.00000  Uiso   1.00
O780   O     0.56006   0.83333   0.18388   0.00000  Uiso   1.00
O781   O     0.51639   0.83333   0.31612   0.00000  Uiso   1.00
O782   O     0.48361   0.83334   0.18388   0.00000  Uiso   1.00
Zn783  Zn    0.44896   0.83334   0.25000   0.00000  Uiso   1.00
Zn784  Zn    0.55104   0.83333   0.25000   0.00000  Uiso   1.00
C785   C     0.83353   0.91327   0.25033   0.00000  Uiso   1.00
C786   C     0.78917   0.97822   0.26927   0.00000  Uiso   1.00
C787   C     0.83302   0.70920   0.24931   0.00000  Uiso   1.00
C788   C     0.83365   0.95747   0.25069   0.00000  Uiso   1.00
C789   C     0.98345   0.80223   0.22792   0.00000  Uiso   1.00
C790   C     0.68322   0.86444   0.27208   0.00000  Uiso   1.00
C791   C     0.69821   0.80175   0.22726   0.00000  Uiso   1.00
C792   C     0.96846   0.86491   0.27274   0.00000  Uiso   1.00
C793   C     0.80271   0.83351   0.33796   0.00000  Uiso   1.00
C794   C     0.86396   0.83316   0.16204   0.00000  Uiso   1.00
C795   C     0.78332   0.83124   0.38867   0.00000  Uiso   1.00
C796   C     0.83313   0.75339   0.24967   0.00000  Uiso   1.00
C797   C     0.88335   0.83542   0.11133   0.00000  Uiso   1.00
C798   C     0.72381   0.80831   0.46242   0.00000  Uiso   1.00
C799   C     0.94286   0.85836   0.03758   0.00000  Uiso   1.00
C800   C     0.73767   0.81360   0.41437   0.00000  Uiso   1.00
C801   C     0.92900   0.85306   0.08563   0.00000  Uiso   1.00
C802   C     0.81421   0.84308   0.41098   0.00000  Uiso   1.00
C803   C     0.85245   0.82359   0.08902   0.00000  Uiso   1.00
C804   C     0.80511   0.83038   0.45602   0.00000  Uiso   1.00
C805   C     0.86156   0.83629   0.04398   0.00000  Uiso   1.00
C806   C     0.75722   0.81740   0.48357   0.00000  Uiso   1.00
C807   C     0.77394   0.83163   0.05311   0.00000  Uiso   1.00
C808   C     0.90945   0.84927   0.01643   0.00000  Uiso   1.00
C809   C     0.84128   0.83321   0.47513   0.00000  Uiso   1.00
C810   C     0.82538   0.83346   0.02487   0.00000  Uiso   1.00
C811   C     0.74976   0.85021   0.10280   0.00000  Uiso   1.00
C812   C     0.76409   0.89623   0.10580   0.00000  Uiso   1.00
C813   C     0.73933   0.91400   0.15558   0.00000  Uiso   1.00
C814   C     0.91691   0.81646   0.39720   0.00000  Uiso   1.00
C815   C     0.90258   0.77044   0.39420   0.00000  Uiso   1.00
C816   C     0.92733   0.75267   0.34442   0.00000  Uiso   1.00
C817   C     0.73039   0.76482   0.20370   0.00000  Uiso   1.00
C818   C     0.89273   0.83504   0.44689   0.00000  Uiso   1.00
C819   C     0.71780   0.74049   0.16604   0.00000  Uiso   1.00
C820   C     0.75834   0.71032   0.13822   0.00000  Uiso   1.00
C821   C     0.93628   0.90185   0.29630   0.00000  Uiso   1.00
C822   C     0.94886   0.92618   0.33396   0.00000  Uiso   1.00
C823   C     0.90833   0.95635   0.36177   0.00000  Uiso   1.00
C824   C     0.74211   0.81797   0.03195   0.00000  Uiso   1.00
C825   C     0.92456   0.84870   0.46805   0.00000  Uiso   1.00
C826   C     0.87780   0.97900   0.23141   0.00000  Uiso   1.00
C827   C     0.78886   0.68766   0.26859   0.00000  Uiso   1.00
C828   C     0.87750   0.68845   0.23073   0.00000  Uiso   1.00
H829   H     0.70394   0.81251   0.05312   0.00000  Uiso   1.00
H830   H     0.75450   0.70381   0.28383   0.00000  Uiso   1.00
H831   H     0.91180   0.70522   0.21542   0.00000  Uiso   1.00
H832   H     0.75487   0.96145   0.28458   0.00000  Uiso   1.00
H833   H     0.97006   0.77769   0.21126   0.00000  Uiso   1.00
H834   H     0.69661   0.88897   0.28874   0.00000  Uiso   1.00
H835   H     0.69913   0.91128   0.16746   0.00000  Uiso   1.00
H836   H     0.75143   0.89705   0.17992   0.00000  Uiso   1.00
H837   H     0.74936   0.94746   0.15655   0.00000  Uiso   1.00
H838   H     0.80402   0.89969   0.09527   0.00000  Uiso   1.00
H839   H     0.75315   0.91476   0.08167   0.00000  Uiso   1.00
H840   H     0.96273   0.85416   0.44688   0.00000  Uiso   1.00
H841   H     0.70948   0.84924   0.11397   0.00000  Uiso   1.00
H842   H     0.75566   0.83193   0.12969   0.00000  Uiso   1.00
H843   H     0.91523   0.76962   0.32008   0.00000  Uiso   1.00
H844   H     0.96754   0.75538   0.33254   0.00000  Uiso   1.00
H845   H     0.91730   0.71921   0.34346   0.00000  Uiso   1.00
H846   H     0.91352   0.75191   0.41833   0.00000  Uiso   1.00
H847   H     0.86265   0.76698   0.40473   0.00000  Uiso   1.00
H848   H     0.91101   0.83474   0.37031   0.00000  Uiso   1.00
H849   H     0.95719   0.81743   0.38603   0.00000  Uiso   1.00
H850   H     0.79207   0.72789   0.11777   0.00000  Uiso   1.00
H851   H     0.82184   0.80354   0.10684   0.00000  Uiso   1.00
H852   H     0.76605   0.68914   0.16229   0.00000  Uiso   1.00
H853   H     0.74706   0.69123   0.11349   0.00000  Uiso   1.00
H854   H     0.68394   0.72180   0.18295   0.00000  Uiso   1.00
H855   H     0.71241   0.76246   0.14131   0.00000  Uiso   1.00
H856   H     0.76803   0.77596   0.18613   0.00000  Uiso   1.00
H857   H     0.72840   0.74261   0.23123   0.00000  Uiso   1.00
H858   H     0.90062   0.97753   0.33771   0.00000  Uiso   1.00
H859   H     0.87459   0.93878   0.38223   0.00000  Uiso   1.00
H860   H     0.91961   0.97544   0.38650   0.00000  Uiso   1.00
H861   H     0.95425   0.90421   0.35869   0.00000  Uiso   1.00
H862   H     0.84482   0.86312   0.39316   0.00000  Uiso   1.00
H863   H     0.98273   0.94487   0.31705   0.00000  Uiso   1.00
H864   H     0.93827   0.92406   0.26876   0.00000  Uiso   1.00
H865   H     0.89864   0.89070   0.31387   0.00000  Uiso   1.00
H866   H     0.95376   0.86219   0.10239   0.00000  Uiso   1.00
H867   H     0.71290   0.80448   0.39761   0.00000  Uiso   1.00
H868   H     0.68740   0.79708   0.48287   0.00000  Uiso   1.00
H869   H     0.97926   0.86959   0.01713   0.00000  Uiso   1.00
H870   H     0.91216   0.96286   0.21617   0.00000  Uiso   1.00
N871   N     0.71426   0.83334   0.25001   0.00000  Uiso   1.00
N872   N     0.95241   0.83332   0.24999   0.00000  Uiso   1.00
O873   O     0.79512   0.89442   0.25001   0.00000  Uiso   1.00
O874   O     0.87154   0.77225   0.25000   0.00000  Uiso   1.00
O875   O     0.87157   0.89441   0.25000   0.00000  Uiso   1.00
O876   O     0.79510   0.77226   0.25000   0.00000  Uiso   1.00
O877   O     0.77328   0.83334   0.31612   0.00000  Uiso   1.00
O878   O     0.89339   0.83333   0.18388   0.00000  Uiso   1.00
O879   O     0.84972   0.83333   0.31612   0.00000  Uiso   1.00
O880   O     0.81695   0.83334   0.18388   0.00000  Uiso   1.00
Zn881  Zn    0.78229   0.83334   0.25000   0.00000  Uiso   1.00
Zn882  Zn    0.88438   0.83333   0.25000   0.00000  Uiso   1.00
C883   C     0.16687   0.24661   0.75033   0.00000  Uiso   1.00
C884   C     0.12250   0.31155   0.76927   0.00000  Uiso   1.00
C885   C     0.16635   0.04253   0.74931   0.00000  Uiso   1.00
C886   C     0.16698   0.29080   0.75069   0.00000  Uiso   1.00
C887   C     0.31678   0.13556   0.72792   0.00000  Uiso   1.00
C888   C     0.01655   0.19777   0.77208   0.00000  Uiso   1.00
C889   C     0.03154   0.13509   0.72726   0.00000  Uiso   1.00
C890   C     0.30179   0.19825   0.77274   0.00000  Uiso   1.00
C891   C     0.13604   0.16684   0.83796   0.00000  Uiso   1.00
C892   C     0.19729   0.16649   0.66204   0.00000  Uiso   1.00
C893   C     0.11665   0.16458   0.88867   0.00000  Uiso   1.00
C894   C     0.16647   0.08673   0.74967   0.00000  Uiso   1.00
C895   C     0.21668   0.16876   0.61133   0.00000  Uiso   1.00
C896   C     0.05714   0.14164   0.96242   0.00000  Uiso   1.00
C897   C     0.27619   0.19169   0.53758   0.00000  Uiso   1.00
C898   C     0.07100   0.14694   0.91437   0.00000  Uiso   1.00
C899   C     0.26233   0.18640   0.58563   0.00000  Uiso   1.00
C900   C     0.14755   0.17641   0.91098   0.00000  Uiso   1.00
C901   C     0.18579   0.15692   0.58902   0.00000  Uiso   1.00
C902   C     0.13844   0.16372   0.95602   0.00000  Uiso   1.00
C903   C     0.19489   0.16962   0.54398   0.00000  Uiso   1.00
C904   C     0.09055   0.15074   0.98357   0.00000  Uiso   1.00
C905   C     0.10727   0.16496   0.55311   0.00000  Uiso   1.00
C906   C     0.24278   0.18260   0.51643   0.00000  Uiso   1.00
C907   C     0.17462   0.16654   0.97513   0.00000  Uiso   1.00
C908   C     0.15872   0.16679   0.52487   0.00000  Uiso   1.00
C909   C     0.08309   0.18355   0.60280   0.00000  Uiso   1.00
C910   C     0.09743   0.22956   0.60580   0.00000  Uiso   1.00
C911   C     0.07267   0.24733   0.65558   0.00000  Uiso   1.00
C912   C     0.25024   0.14979   0.89720   0.00000  Uiso   1.00
C913   C     0.23591   0.10377   0.89420   0.00000  Uiso   1.00
C914   C     0.26067   0.08601   0.84442   0.00000  Uiso   1.00
C915   C     0.06372   0.09815   0.70370   0.00000  Uiso   1.00
C916   C     0.22606   0.16837   0.94689   0.00000  Uiso   1.00
C917   C     0.05114   0.07382   0.66604   0.00000  Uiso   1.00
C918   C     0.09168   0.04366   0.63822   0.00000  Uiso   1.00
C919   C     0.26961   0.23518   0.79630   0.00000  Uiso   1.00
C920   C     0.28220   0.25951   0.83396   0.00000  Uiso   1.00
C921   C     0.24166   0.28968   0.86177   0.00000  Uiso   1.00
C922   C     0.07544   0.15131   0.53195   0.00000  Uiso   1.00
C923   C     0.25789   0.18203   0.96805   0.00000  Uiso   1.00
C924   C     0.21114   0.31234   0.73141   0.00000  Uiso   1.00
C925   C     0.12220   0.02100   0.76859   0.00000  Uiso   1.00
C926   C     0.21083   0.02178   0.73073   0.00000  Uiso   1.00
H927   H     0.03727   0.14584   0.55312   0.00000  Uiso   1.00
H928   H     0.08784   0.03714   0.78383   0.00000  Uiso   1.00
H929   H     0.24513   0.03855   0.71542   0.00000  Uiso   1.00
H930   H     0.08820   0.29478   0.78458   0.00000  Uiso   1.00
H931   H     0.30339   0.11103   0.71126   0.00000  Uiso   1.00
H932   H     0.02994   0.22231   0.78874   0.00000  Uiso   1.00
H933   H     0.03246   0.24462   0.66746   0.00000  Uiso   1.00
H934   H     0.08477   0.23038   0.67992   0.00000  Uiso   1.00
H935   H     0.08270   0.28079   0.65655   0.00000  Uiso   1.00
H936   H     0.13735   0.23302   0.59527   0.00000  Uiso   1.00
H937   H     0.08648   0.24809   0.58167   0.00000  Uiso   1.00
H938   H     0.29606   0.18749   0.94688   0.00000  Uiso   1.00
H939   H     0.04281   0.18257   0.61397   0.00000  Uiso   1.00
H940   H     0.08899   0.16526   0.62969   0.00000  Uiso   1.00
H941   H     0.24856   0.10296   0.82008   0.00000  Uiso   1.00
H942   H     0.30087   0.08872   0.83254   0.00000  Uiso   1.00
H943   H     0.25064   0.05254   0.84346   0.00000  Uiso   1.00
H944   H     0.24685   0.08524   0.91833   0.00000  Uiso   1.00
H945   H     0.19598   0.10032   0.90473   0.00000  Uiso   1.00
H946   H     0.24434   0.16807   0.87031   0.00000  Uiso   1.00
H947   H     0.29052   0.15076   0.88603   0.00000  Uiso   1.00
H948   H     0.12541   0.06122   0.61777   0.00000  Uiso   1.00
H949   H     0.15518   0.13688   0.60684   0.00000  Uiso   1.00
H950   H     0.09938   0.02247   0.66229   0.00000  Uiso   1.00
H951   H     0.08039   0.02456   0.61349   0.00000  Uiso   1.00
H952   H     0.01727   0.05513   0.68295   0.00000  Uiso   1.00
H953   H     0.04575   0.09579   0.64131   0.00000  Uiso   1.00
H954   H     0.10136   0.10930   0.68613   0.00000  Uiso   1.00
H955   H     0.06173   0.07594   0.73123   0.00000  Uiso   1.00
H956   H     0.23395   0.31086   0.83771   0.00000  Uiso   1.00
H957   H     0.20793   0.27211   0.88223   0.00000  Uiso   1.00
H958   H     0.25294   0.30878   0.88650   0.00000  Uiso   1.00
H959   H     0.28759   0.23755   0.85869   0.00000  Uiso   1.00
H960   H     0.17816   0.19646   0.89316   0.00000  Uiso   1.00
H961   H     0.31606   0.27820   0.81705   0.00000  Uiso   1.00
H962   H     0.27160   0.25739   0.76876   0.00000  Uiso   1.00
H963   H     0.23197   0.22404   0.81387   0.00000  Uiso   1.00
H964   H     0.28710   0.19552   0.60239   0.00000  Uiso   1.00
H965   H     0.04624   0.13781   0.89761   0.00000  Uiso   1.00
H966   H     0.02074   0.13041   0.98287   0.00000  Uiso   1.00
H967   H     0.31260   0.20292   0.51713   0.00000  Uiso   1.00
H968   H     0.24550   0.29619   0.71617   0.00000  Uiso   1.00
N969   N     0.04759   0.16668   0.75001   0.00000  Uiso   1.00
N970   N     0.28574   0.16666   0.74999   0.00000  Uiso   1.00
O971   O     0.12846   0.22775   0.75001   0.00000  Uiso   1.00
O972   O     0.20488   0.10558   0.75000   0.00000  Uiso   1.00
O973   O     0.20490   0.22774   0.75000   0.00000  Uiso   1.00
O974   O     0.12843   0.10559   0.75000   0.00000  Uiso   1.00
O975   O     0.10661   0.16667   0.81612   0.00000  Uiso   1.00
O976   O     0.22672   0.16666   0.68388   0.00000  Uiso   1.00
O977   O     0.18305   0.16666   0.81612   0.00000  Uiso   1.00
O978   O     0.15028   0.16667   0.68388   0.00000  Uiso   1.00
Zn979  Zn    0.11562   0.16667   0.75000   0.00000  Uiso   1.00
Zn980  Zn    0.21771   0.16666   0.75000   0.00000  Uiso   1.00
C981   C     0.50020   0.24661   0.75033   0.00000  Uiso   1.00
C982   C     0.45583   0.31155   0.76927   0.00000  Uiso   1.00
C983   C     0.49968   0.04253   0.74931   0.00000  Uiso   1.00
C984   C     0.50031   0.29080   0.75069   0.00000  Uiso   1.00
C985   C     0.65012   0.13556   0.72792   0.00000  Uiso   1.00
C986   C     0.34988   0.19777   0.77208   0.00000  Uiso   1.00
C987   C     0.36488   0.13509   0.72726   0.00000  Uiso   1.00
C988   C     0.63512   0.19825   0.77274   0.00000  Uiso   1.00
C989   C     0.46937   0.16684   0.83796   0.00000  Uiso   1.00
C990   C     0.53063   0.16649   0.66204   0.00000  Uiso   1.00
C991   C     0.44999   0.16458   0.88867   0.00000  Uiso   1.00
C992   C     0.49980   0.08673   0.74967   0.00000  Uiso   1.00
C993   C     0.55001   0.16876   0.61133   0.00000  Uiso   1.00
C994   C     0.39048   0.14164   0.96242   0.00000  Uiso   1.00
C995   C     0.60952   0.19169   0.53758   0.00000  Uiso   1.00
C996   C     0.40433   0.14694   0.91437   0.00000  Uiso   1.00
C997   C     0.59567   0.18640   0.58563   0.00000  Uiso   1.00
C998   C     0.48088   0.17641   0.91098   0.00000  Uiso   1.00
C999   C     0.51912   0.15692   0.58902   0.00000  Uiso   1.00
C1000  C     0.47177   0.16372   0.95602   0.00000  Uiso   1.00
C1001  C     0.52823   0.16962   0.54398   0.00000  Uiso   1.00
C1002  C     0.42388   0.15074   0.98357   0.00000  Uiso   1.00
C1003  C     0.44061   0.16496   0.55311   0.00000  Uiso   1.00
C1004  C     0.57612   0.18260   0.51643   0.00000  Uiso   1.00
C1005  C     0.50795   0.16654   0.97513   0.00000  Uiso   1.00
C1006  C     0.49205   0.16679   0.52487   0.00000  Uiso   1.00
C1007  C     0.41643   0.18355   0.60280   0.00000  Uiso   1.00
C1008  C     0.43076   0.22956   0.60580   0.00000  Uiso   1.00
C1009  C     0.40600   0.24733   0.65558   0.00000  Uiso   1.00
C1010  C     0.58357   0.14979   0.89720   0.00000  Uiso   1.00
C1011  C     0.56924   0.10377   0.89420   0.00000  Uiso   1.00
C1012  C     0.59400   0.08601   0.84442   0.00000  Uiso   1.00
C1013  C     0.39705   0.09815   0.70370   0.00000  Uiso   1.00
C1014  C     0.55939   0.16837   0.94689   0.00000  Uiso   1.00
C1015  C     0.38447   0.07382   0.66604   0.00000  Uiso   1.00
C1016  C     0.42501   0.04366   0.63822   0.00000  Uiso   1.00
C1017  C     0.60294   0.23518   0.79630   0.00000  Uiso   1.00
C1018  C     0.61553   0.25951   0.83396   0.00000  Uiso   1.00
C1019  C     0.57499   0.28968   0.86177   0.00000  Uiso   1.00
C1020  C     0.40878   0.15131   0.53195   0.00000  Uiso   1.00
C1021  C     0.59122   0.18203   0.96805   0.00000  Uiso   1.00
C1022  C     0.54447   0.31234   0.73141   0.00000  Uiso   1.00
C1023  C     0.45553   0.02100   0.76859   0.00000  Uiso   1.00
C1024  C     0.54417   0.02178   0.73073   0.00000  Uiso   1.00
H1025  H     0.37061   0.14584   0.55312   0.00000  Uiso   1.00
H1026  H     0.42117   0.03714   0.78383   0.00000  Uiso   1.00
H1027  H     0.57847   0.03855   0.71542   0.00000  Uiso   1.00
H1028  H     0.42153   0.29478   0.78458   0.00000  Uiso   1.00
H1029  H     0.63672   0.11103   0.71126   0.00000  Uiso   1.00
H1030  H     0.36327   0.22231   0.78874   0.00000  Uiso   1.00
H1031  H     0.36580   0.24462   0.66746   0.00000  Uiso   1.00
H1032  H     0.41810   0.23038   0.67992   0.00000  Uiso   1.00
H1033  H     0.41603   0.28079   0.65655   0.00000  Uiso   1.00
H1034  H     0.47069   0.23302   0.59527   0.00000  Uiso   1.00
H1035  H     0.41982   0.24809   0.58167   0.00000  Uiso   1.00
H1036  H     0.62939   0.18749   0.94688   0.00000  Uiso   1.00
H1037  H     0.37615   0.18257   0.61397   0.00000  Uiso   1.00
H1038  H     0.42233   0.16526   0.62969   0.00000  Uiso   1.00
H1039  H     0.58190   0.10296   0.82008   0.00000  Uiso   1.00
H1040  H     0.63420   0.08872   0.83254   0.00000  Uiso   1.00
H1041  H     0.58397   0.05254   0.84346   0.00000  Uiso   1.00
H1042  H     0.58019   0.08524   0.91833   0.00000  Uiso   1.00
H1043  H     0.52931   0.10032   0.90473   0.00000  Uiso   1.00
H1044  H     0.57767   0.16807   0.87031   0.00000  Uiso   1.00
H1045  H     0.62385   0.15076   0.88603   0.00000  Uiso   1.00
H1046  H     0.45874   0.06122   0.61777   0.00000  Uiso   1.00
H1047  H     0.48851   0.13688   0.60684   0.00000  Uiso   1.00
H1048  H     0.43271   0.02247   0.66229   0.00000  Uiso   1.00
H1049  H     0.41373   0.02456   0.61349   0.00000  Uiso   1.00
H1050  H     0.35061   0.05513   0.68295   0.00000  Uiso   1.00
H1051  H     0.37908   0.09579   0.64131   0.00000  Uiso   1.00
H1052  H     0.43469   0.10930   0.68613   0.00000  Uiso   1.00
H1053  H     0.39506   0.07594   0.73123   0.00000  Uiso   1.00
H1054  H     0.56729   0.31086   0.83771   0.00000  Uiso   1.00
H1055  H     0.54126   0.27211   0.88223   0.00000  Uiso   1.00
H1056  H     0.58627   0.30878   0.88650   0.00000  Uiso   1.00
H1057  H     0.62092   0.23755   0.85869   0.00000  Uiso   1.00
H1058  H     0.51149   0.19646   0.89316   0.00000  Uiso   1.00
H1059  H     0.64940   0.27820   0.81705   0.00000  Uiso   1.00
H1060  H     0.60494   0.25739   0.76876   0.00000  Uiso   1.00
H1061  H     0.56531   0.22404   0.81387   0.00000  Uiso   1.00
H1062  H     0.62043   0.19552   0.60239   0.00000  Uiso   1.00
H1063  H     0.37957   0.13781   0.89761   0.00000  Uiso   1.00
H1064  H     0.35407   0.13041   0.98287   0.00000  Uiso   1.00
H1065  H     0.64593   0.20292   0.51713   0.00000  Uiso   1.00
H1066  H     0.57883   0.29619   0.71617   0.00000  Uiso   1.00
N1067  N     0.38093   0.16668   0.75001   0.00000  Uiso   1.00
N1068  N     0.61907   0.16666   0.74999   0.00000  Uiso   1.00
O1069  O     0.46179   0.22775   0.75001   0.00000  Uiso   1.00
O1070  O     0.53821   0.10558   0.75000   0.00000  Uiso   1.00
O1071  O     0.53823   0.22774   0.75000   0.00000  Uiso   1.00
O1072  O     0.46177   0.10559   0.75000   0.00000  Uiso   1.00
O1073  O     0.43994   0.16667   0.81612   0.00000  Uiso   1.00
O1074  O     0.56006   0.16666   0.68388   0.00000  Uiso   1.00
O1075  O     0.51639   0.16666   0.81612   0.00000  Uiso   1.00
O1076  O     0.48361   0.16667   0.68388   0.00000  Uiso   1.00
Zn1077 Zn    0.44896   0.16667   0.75000   0.00000  Uiso   1.00
Zn1078 Zn    0.55104   0.16666   0.75000   0.00000  Uiso   1.00
C1079  C     0.83353   0.24661   0.75033   0.00000  Uiso   1.00
C1080  C     0.78917   0.31155   0.76927   0.00000  Uiso   1.00
C1081  C     0.83302   0.04253   0.74931   0.00000  Uiso   1.00
C1082  C     0.83365   0.29080   0.75069   0.00000  Uiso   1.00
C1083  C     0.98345   0.13556   0.72792   0.00000  Uiso   1.00
C1084  C     0.68322   0.19777   0.77208   0.00000  Uiso   1.00
C1085  C     0.69821   0.13509   0.72726   0.00000  Uiso   1.00
C1086  C     0.96846   0.19825   0.77274   0.00000  Uiso   1.00
C1087  C     0.80271   0.16684   0.83796   0.00000  Uiso   1.00
C1088  C     0.86396   0.16649   0.66204   0.00000  Uiso   1.00
C1089  C     0.78332   0.16458   0.88867   0.00000  Uiso   1.00
C1090  C     0.83313   0.08673   0.74967   0.00000  Uiso   1.00
C1091  C     0.88335   0.16876   0.61133   0.00000  Uiso   1.00
C1092  C     0.72381   0.14164   0.96242   0.00000  Uiso   1.00
C1093  C     0.94286   0.19169   0.53758   0.00000  Uiso   1.00
C1094  C     0.73767   0.14694   0.91437   0.00000  Uiso   1.00
C1095  C     0.92900   0.18640   0.58563   0.00000  Uiso   1.00
C1096  C     0.81421   0.17641   0.91098   0.00000  Uiso   1.00
C1097  C     0.85245   0.15692   0.58902   0.00000  Uiso   1.00
C1098  C     0.80511   0.16372   0.95602   0.00000  Uiso   1.00
C1099  C     0.86156   0.16962   0.54398   0.00000  Uiso   1.00
C1100  C     0.75722   0.15074   0.98357   0.00000  Uiso   1.00
C1101  C     0.77394   0.16496   0.55311   0.00000  Uiso   1.00
C1102  C     0.90945   0.18260   0.51643   0.00000  Uiso   1.00
C1103  C     0.84128   0.16654   0.97513   0.00000  Uiso   1.00
C1104  C     0.82538   0.16679   0.52487   0.00000  Uiso   1.00
C1105  C     0.74976   0.18355   0.60280   0.00000  Uiso   1.00
C1106  C     0.76409   0.22956   0.60580   0.00000  Uiso   1.00
C1107  C     0.73933   0.24733   0.65558   0.00000  Uiso   1.00
C1108  C     0.91691   0.14979   0.89720   0.00000  Uiso   1.00
C1109  C     0.90258   0.10377   0.89420   0.00000  Uiso   1.00
C1110  C     0.92733   0.08601   0.84442   0.00000  Uiso   1.00
C1111  C     0.73039   0.09815   0.70370   0.00000  Uiso   1.00
C1112  C     0.89273   0.16837   0.94689   0.00000  Uiso   1.00
C1113  C     0.71780   0.07382   0.66604   0.00000  Uiso   1.00
C1114  C     0.75834   0.04366   0.63822   0.00000  Uiso   1.00
C1115  C     0.93628   0.23518   0.79630   0.00000  Uiso   1.00
C1116  C     0.94886   0.25951   0.83396   0.00000  Uiso   1.00
C1117  C     0.90833   0.28968   0.86177   0.00000  Uiso   1.00
C1118  C     0.74211   0.15131   0.53195   0.00000  Uiso   1.00
C1119  C     0.92456   0.18203   0.96805   0.00000  Uiso   1.00
C1120  C     0.87780   0.31234   0.73141   0.00000  Uiso   1.00
C1121  C     0.78886   0.02100   0.76859   0.00000  Uiso   1.00
C1122  C     0.87750   0.02178   0.73073   0.00000  Uiso   1.00
H1123  H     0.70394   0.14584   0.55312   0.00000  Uiso   1.00
H1124  H     0.75450   0.03714   0.78383   0.00000  Uiso   1.00
H1125  H     0.91180   0.03855   0.71542   0.00000  Uiso   1.00
H1126  H     0.75487   0.29478   0.78458   0.00000  Uiso   1.00
H1127  H     0.97006   0.11103   0.71126   0.00000  Uiso   1.00
H1128  H     0.69661   0.22231   0.78874   0.00000  Uiso   1.00
H1129  H     0.69913   0.24462   0.66746   0.00000  Uiso   1.00
H1130  H     0.75143   0.23038   0.67992   0.00000  Uiso   1.00
H1131  H     0.74936   0.28079   0.65655   0.00000  Uiso   1.00
H1132  H     0.80402   0.23302   0.59527   0.00000  Uiso   1.00
H1133  H     0.75315   0.24809   0.58167   0.00000  Uiso   1.00
H1134  H     0.96273   0.18749   0.94688   0.00000  Uiso   1.00
H1135  H     0.70948   0.18257   0.61397   0.00000  Uiso   1.00
H1136  H     0.75566   0.16526   0.62969   0.00000  Uiso   1.00
H1137  H     0.91523   0.10296   0.82008   0.00000  Uiso   1.00
H1138  H     0.96754   0.08872   0.83254   0.00000  Uiso   1.00
H1139  H     0.91730   0.05254   0.84346   0.00000  Uiso   1.00
H1140  H     0.91352   0.08524   0.91833   0.00000  Uiso   1.00
H1141  H     0.86265   0.10032   0.90473   0.00000  Uiso   1.00
H1142  H     0.91101   0.16807   0.87031   0.00000  Uiso   1.00
H1143  H     0.95719   0.15076   0.88603   0.00000  Uiso   1.00
H1144  H     0.79207   0.06122   0.61777   0.00000  Uiso   1.00
H1145  H     0.82184   0.13688   0.60684   0.00000  Uiso   1.00
H1146  H     0.76605   0.02247   0.66229   0.00000  Uiso   1.00
H1147  H     0.74706   0.02456   0.61349   0.00000  Uiso   1.00
H1148  H     0.68394   0.05513   0.68295   0.00000  Uiso   1.00
H1149  H     0.71241   0.09579   0.64131   0.00000  Uiso   1.00
H1150  H     0.76803   0.10930   0.68613   0.00000  Uiso   1.00
H1151  H     0.72840   0.07594   0.73123   0.00000  Uiso   1.00
H1152  H     0.90062   0.31086   0.83771   0.00000  Uiso   1.00
H1153  H     0.87459   0.27211   0.88223   0.00000  Uiso   1.00
H1154  H     0.91961   0.30878   0.88650   0.00000  Uiso   1.00
H1155  H     0.95425   0.23755   0.85869   0.00000  Uiso   1.00
H1156  H     0.84482   0.19646   0.89316   0.00000  Uiso   1.00
H1157  H     0.98273   0.27820   0.81705   0.00000  Uiso   1.00
H1158  H     0.93827   0.25739   0.76876   0.00000  Uiso   1.00
H1159  H     0.89864   0.22404   0.81387   0.00000  Uiso   1.00
H1160  H     0.95376   0.19552   0.60239   0.00000  Uiso   1.00
H1161  H     0.71290   0.13781   0.89761   0.00000  Uiso   1.00
H1162  H     0.68740   0.13041   0.98287   0.00000  Uiso   1.00
H1163  H     0.97926   0.20292   0.51713   0.00000  Uiso   1.00
H1164  H     0.91216   0.29619   0.71617   0.00000  Uiso   1.00
N1165  N     0.71426   0.16668   0.75001   0.00000  Uiso   1.00
N1166  N     0.95241   0.16666   0.74999   0.00000  Uiso   1.00
O1167  O     0.79512   0.22775   0.75001   0.00000  Uiso   1.00
O1168  O     0.87154   0.10558   0.75000   0.00000  Uiso   1.00
O1169  O     0.87157   0.22774   0.75000   0.00000  Uiso   1.00
O1170  O     0.79510   0.10559   0.75000   0.00000  Uiso   1.00
O1171  O     0.77328   0.16667   0.81612   0.00000  Uiso   1.00
O1172  O     0.89339   0.16666   0.68388   0.00000  Uiso   1.00
O1173  O     0.84972   0.16666   0.81612   0.00000  Uiso   1.00
O1174  O     0.81695   0.16667   0.68388   0.00000  Uiso   1.00
Zn1175 Zn    0.78229   0.16667   0.75000   0.00000  Uiso   1.00
Zn1176 Zn    0.88438   0.16666   0.75000   0.00000  Uiso   1.00
C1177  C     0.16687   0.57994   0.75033   0.00000  Uiso   1.00
C1178  C     0.12250   0.64488   0.76927   0.00000  Uiso   1.00
C1179  C     0.16635   0.37587   0.74931   0.00000  Uiso   1.00
C1180  C     0.16698   0.62413   0.75069   0.00000  Uiso   1.00
C1181  C     0.31678   0.46889   0.72792   0.00000  Uiso   1.00
C1182  C     0.01655   0.53111   0.77208   0.00000  Uiso   1.00
C1183  C     0.03154   0.46842   0.72726   0.00000  Uiso   1.00
C1184  C     0.30179   0.53158   0.77274   0.00000  Uiso   1.00
C1185  C     0.13604   0.50017   0.83796   0.00000  Uiso   1.00
C1186  C     0.19729   0.49983   0.66204   0.00000  Uiso   1.00
C1187  C     0.11665   0.49791   0.88867   0.00000  Uiso   1.00
C1188  C     0.16647   0.42006   0.74967   0.00000  Uiso   1.00
C1189  C     0.21668   0.50209   0.61133   0.00000  Uiso   1.00
C1190  C     0.05714   0.47498   0.96242   0.00000  Uiso   1.00
C1191  C     0.27619   0.52503   0.53758   0.00000  Uiso   1.00
C1192  C     0.07100   0.48027   0.91437   0.00000  Uiso   1.00
C1193  C     0.26233   0.51973   0.58563   0.00000  Uiso   1.00
C1194  C     0.14755   0.50975   0.91098   0.00000  Uiso   1.00
C1195  C     0.18579   0.49026   0.58902   0.00000  Uiso   1.00
C1196  C     0.13844   0.49705   0.95602   0.00000  Uiso   1.00
C1197  C     0.19489   0.50295   0.54398   0.00000  Uiso   1.00
C1198  C     0.09055   0.48407   0.98357   0.00000  Uiso   1.00
C1199  C     0.10727   0.49830   0.55311   0.00000  Uiso   1.00
C1200  C     0.24278   0.51593   0.51643   0.00000  Uiso   1.00
C1201  C     0.17462   0.49988   0.97513   0.00000  Uiso   1.00
C1202  C     0.15872   0.50013   0.52487   0.00000  Uiso   1.00
C1203  C     0.08309   0.51688   0.60280   0.00000  Uiso   1.00
C1204  C     0.09743   0.56290   0.60580   0.00000  Uiso   1.00
C1205  C     0.07267   0.58066   0.65558   0.00000  Uiso   1.00
C1206  C     0.25024   0.48312   0.89720   0.00000  Uiso   1.00
C1207  C     0.23591   0.43711   0.89420   0.00000  Uiso   1.00
C1208  C     0.26067   0.41934   0.84442   0.00000  Uiso   1.00
C1209  C     0.06372   0.43149   0.70370   0.00000  Uiso   1.00
C1210  C     0.22606   0.50171   0.94689   0.00000  Uiso   1.00
C1211  C     0.05114   0.40716   0.66604   0.00000  Uiso   1.00
C1212  C     0.09168   0.37699   0.63822   0.00000  Uiso   1.00
C1213  C     0.26961   0.56851   0.79630   0.00000  Uiso   1.00
C1214  C     0.28220   0.59284   0.83396   0.00000  Uiso   1.00
C1215  C     0.24166   0.62301   0.86177   0.00000  Uiso   1.00
C1216  C     0.07544   0.48464   0.53195   0.00000  Uiso   1.00
C1217  C     0.25789   0.51536   0.96805   0.00000  Uiso   1.00
C1218  C     0.21114   0.64567   0.73141   0.00000  Uiso   1.00
C1219  C     0.12220   0.35433   0.76859   0.00000  Uiso   1.00
C1220  C     0.21083   0.35512   0.73073   0.00000  Uiso   1.00
H1221  H     0.03727   0.47918   0.55312   0.00000  Uiso   1.00
H1222  H     0.08784   0.37047   0.78383   0.00000  Uiso   1.00
H1223  H     0.24513   0.37189   0.71542   0.00000  Uiso   1.00
H1224  H     0.08820   0.62811   0.78458   0.00000  Uiso   1.00
H1225  H     0.30339   0.44436   0.71126   0.00000  Uiso   1.00
H1226  H     0.02994   0.55564   0.78874   0.00000  Uiso   1.00
H1227  H     0.03246   0.57795   0.66746   0.00000  Uiso   1.00
H1228  H     0.08477   0.56371   0.67992   0.00000  Uiso   1.00
H1229  H     0.08270   0.61413   0.65655   0.00000  Uiso   1.00
H1230  H     0.13735   0.56635   0.59527   0.00000  Uiso   1.00
H1231  H     0.08648   0.58143   0.58167   0.00000  Uiso   1.00
H1232  H     0.29606   0.52083   0.94688   0.00000  Uiso   1.00
H1233  H     0.04281   0.51591   0.61397   0.00000  Uiso   1.00
H1234  H     0.08899   0.49860   0.62969   0.00000  Uiso   1.00
H1235  H     0.24856   0.43629   0.82008   0.00000  Uiso   1.00
H1236  H     0.30087   0.42205   0.83254   0.00000  Uiso   1.00
H1237  H     0.25064   0.38587   0.84346   0.00000  Uiso   1.00
H1238  H     0.24685   0.41858   0.91833   0.00000  Uiso   1.00
H1239  H     0.19598   0.43365   0.90473   0.00000  Uiso   1.00
H1240  H     0.24434   0.50141   0.87031   0.00000  Uiso   1.00
H1241  H     0.29052   0.48410   0.88603   0.00000  Uiso   1.00
H1242  H     0.12541   0.39456   0.61777   0.00000  Uiso   1.00
H1243  H     0.15518   0.47021   0.60684   0.00000  Uiso   1.00
H1244  H     0.09938   0.35581   0.66229   0.00000  Uiso   1.00
H1245  H     0.08039   0.35789   0.61349   0.00000  Uiso   1.00
H1246  H     0.01727   0.38846   0.68295   0.00000  Uiso   1.00
H1247  H     0.04575   0.42912   0.64131   0.00000  Uiso   1.00
H1248  H     0.10136   0.44263   0.68613   0.00000  Uiso   1.00
H1249  H     0.06173   0.40928   0.73123   0.00000  Uiso   1.00
H1250  H     0.23395   0.64419   0.83771   0.00000  Uiso   1.00
H1251  H     0.20793   0.60545   0.88223   0.00000  Uiso   1.00
H1252  H     0.25294   0.64211   0.88650   0.00000  Uiso   1.00
H1253  H     0.28759   0.57088   0.85869   0.00000  Uiso   1.00
H1254  H     0.17816   0.52979   0.89316   0.00000  Uiso   1.00
H1255  H     0.31606   0.61154   0.81705   0.00000  Uiso   1.00
H1256  H     0.27160   0.59072   0.76876   0.00000  Uiso   1.00
H1257  H     0.23197   0.55737   0.81387   0.00000  Uiso   1.00
H1258  H     0.28710   0.52885   0.60239   0.00000  Uiso   1.00
H1259  H     0.04624   0.47115   0.89761   0.00000  Uiso   1.00
H1260  H     0.02074   0.46375   0.98287   0.00000  Uiso   1.00
H1261  H     0.31260   0.53626   0.51713   0.00000  Uiso   1.00
H1262  H     0.24550   0.62953   0.71617   0.00000  Uiso   1.00
N1263  N     0.04759   0.50001   0.75001   0.00000  Uiso   1.00
N1264  N     0.28574   0.49999   0.74999   0.00000  Uiso   1.00
O1265  O     0.12846   0.56108   0.75001   0.00000  Uiso   1.00
O1266  O     0.20488   0.43892   0.75000   0.00000  Uiso   1.00
O1267  O     0.20490   0.56107   0.75000   0.00000  Uiso   1.00
O1268  O     0.12843   0.43893   0.75000   0.00000  Uiso   1.00
O1269  O     0.10661   0.50001   0.81612   0.00000  Uiso   1.00
O1270  O     0.22672   0.49999   0.68388   0.00000  Uiso   1.00
O1271  O     0.18305   0.50000   0.81612   0.00000  Uiso   1.00
O1272  O     0.15028   0.50000   0.68388   0.00000  Uiso   1.00
Zn1273 Zn    0.11562   0.50001   0.75000   0.00000  Uiso   1.00
Zn1274 Zn    0.21771   0.49999   0.75000   0.00000  Uiso   1.00
C1275  C     0.50020   0.57994   0.75033   0.00000  Uiso   1.00
C1276  C     0.45583   0.64488   0.76927   0.00000  Uiso   1.00
C1277  C     0.49968   0.37587   0.74931   0.00000  Uiso   1.00
C1278  C     0.50031   0.62413   0.75069   0.00000  Uiso   1.00
C1279  C     0.65012   0.46889   0.72792   0.00000  Uiso   1.00
C1280  C     0.34988   0.53111   0.77208   0.00000  Uiso   1.00
C1281  C     0.36488   0.46842   0.72726   0.00000  Uiso   1.00
C1282  C     0.63512   0.53158   0.77274   0.00000  Uiso   1.00
C1283  C     0.46937   0.50017   0.83796   0.00000  Uiso   1.00
C1284  C     0.53063   0.49983   0.66204   0.00000  Uiso   1.00
C1285  C     0.44999   0.49791   0.88867   0.00000  Uiso   1.00
C1286  C     0.49980   0.42006   0.74967   0.00000  Uiso   1.00
C1287  C     0.55001   0.50209   0.61133   0.00000  Uiso   1.00
C1288  C     0.39048   0.47498   0.96242   0.00000  Uiso   1.00
C1289  C     0.60952   0.52503   0.53758   0.00000  Uiso   1.00
C1290  C     0.40433   0.48027   0.91437   0.00000  Uiso   1.00
C1291  C     0.59567   0.51973   0.58563   0.00000  Uiso   1.00
C1292  C     0.48088   0.50975   0.91098   0.00000  Uiso   1.00
C1293  C     0.51912   0.49026   0.58902   0.00000  Uiso   1.00
C1294  C     0.47177   0.49705   0.95602   0.00000  Uiso   1.00
C1295  C     0.52823   0.50295   0.54398   0.00000  Uiso   1.00
C1296  C     0.42388   0.48407   0.98357   0.00000  Uiso   1.00
C1297  C     0.44061   0.49830   0.55311   0.00000  Uiso   1.00
C1298  C     0.57612   0.51593   0.51643   0.00000  Uiso   1.00
C1299  C     0.50795   0.49988   0.97513   0.00000  Uiso   1.00
C1300  C     0.49205   0.50013   0.52487   0.00000  Uiso   1.00
C1301  C     0.41643   0.51688   0.60280   0.00000  Uiso   1.00
C1302  C     0.43076   0.56290   0.60580   0.00000  Uiso   1.00
C1303  C     0.40600   0.58066   0.65558   0.00000  Uiso   1.00
C1304  C     0.58357   0.48312   0.89720   0.00000  Uiso   1.00
C1305  C     0.56924   0.43711   0.89420   0.00000  Uiso   1.00
C1306  C     0.59400   0.41934   0.84442   0.00000  Uiso   1.00
C1307  C     0.39705   0.43149   0.70370   0.00000  Uiso   1.00
C1308  C     0.55939   0.50171   0.94689   0.00000  Uiso   1.00
C1309  C     0.38447   0.40716   0.66604   0.00000  Uiso   1.00
C1310  C     0.42501   0.37699   0.63822   0.00000  Uiso   1.00
C1311  C     0.60294   0.56851   0.79630   0.00000  Uiso   1.00
C1312  C     0.61553   0.59284   0.83396   0.00000  Uiso   1.00
C1313  C     0.57499   0.62301   0.86177   0.00000  Uiso   1.00
C1314  C     0.40878   0.48464   0.53195   0.00000  Uiso   1.00
C1315  C     0.59122   0.51536   0.96805   0.00000  Uiso   1.00
C1316  C     0.54447   0.64567   0.73141   0.00000  Uiso   1.00
C1317  C     0.45553   0.35433   0.76859   0.00000  Uiso   1.00
C1318  C     0.54417   0.35512   0.73073   0.00000  Uiso   1.00
H1319  H     0.37061   0.47918   0.55312   0.00000  Uiso   1.00
H1320  H     0.42117   0.37047   0.78383   0.00000  Uiso   1.00
H1321  H     0.57847   0.37189   0.71542   0.00000  Uiso   1.00
H1322  H     0.42153   0.62811   0.78458   0.00000  Uiso   1.00
H1323  H     0.63672   0.44436   0.71126   0.00000  Uiso   1.00
H1324  H     0.36327   0.55564   0.78874   0.00000  Uiso   1.00
H1325  H     0.36580   0.57795   0.66746   0.00000  Uiso   1.00
H1326  H     0.41810   0.56371   0.67992   0.00000  Uiso   1.00
H1327  H     0.41603   0.61413   0.65655   0.00000  Uiso   1.00
H1328  H     0.47069   0.56635   0.59527   0.00000  Uiso   1.00
H1329  H     0.41982   0.58143   0.58167   0.00000  Uiso   1.00
H1330  H     0.62939   0.52083   0.94688   0.00000  Uiso   1.00
H1331  H     0.37615   0.51591   0.61397   0.00000  Uiso   1.00
H1332  H     0.42233   0.49860   0.62969   0.00000  Uiso   1.00
H1333  H     0.58190   0.43629   0.82008   0.00000  Uiso   1.00
H1334  H     0.63420   0.42205   0.83254   0.00000  Uiso   1.00
H1335  H     0.58397   0.38587   0.84346   0.00000  Uiso   1.00
H1336  H     0.58019   0.41858   0.91833   0.00000  Uiso   1.00
H1337  H     0.52931   0.43365   0.90473   0.00000  Uiso   1.00
H1338  H     0.57767   0.50141   0.87031   0.00000  Uiso   1.00
H1339  H     0.62385   0.48410   0.88603   0.00000  Uiso   1.00
H1340  H     0.45874   0.39456   0.61777   0.00000  Uiso   1.00
H1341  H     0.48851   0.47021   0.60684   0.00000  Uiso   1.00
H1342  H     0.43271   0.35581   0.66229   0.00000  Uiso   1.00
H1343  H     0.41373   0.35789   0.61349   0.00000  Uiso   1.00
H1344  H     0.35061   0.38846   0.68295   0.00000  Uiso   1.00
H1345  H     0.37908   0.42912   0.64131   0.00000  Uiso   1.00
H1346  H     0.43469   0.44263   0.68613   0.00000  Uiso   1.00
H1347  H     0.39506   0.40928   0.73123   0.00000  Uiso   1.00
H1348  H     0.56729   0.64419   0.83771   0.00000  Uiso   1.00
H1349  H     0.54126   0.60545   0.88223   0.00000  Uiso   1.00
H1350  H     0.58627   0.64211   0.88650   0.00000  Uiso   1.00
H1351  H     0.62092   0.57088   0.85869   0.00000  Uiso   1.00
H1352  H     0.51149   0.52979   0.89316   0.00000  Uiso   1.00
H1353  H     0.64940   0.61154   0.81705   0.00000  Uiso   1.00
H1354  H     0.60494   0.59072   0.76876   0.00000  Uiso   1.00
H1355  H     0.56531   0.55737   0.81387   0.00000  Uiso   1.00
H1356  H     0.62043   0.52885   0.60239   0.00000  Uiso   1.00
H1357  H     0.37957   0.47115   0.89761   0.00000  Uiso   1.00
H1358  H     0.35407   0.46375   0.98287   0.00000  Uiso   1.00
H1359  H     0.64593   0.53626   0.51713   0.00000  Uiso   1.00
H1360  H     0.57883   0.62953   0.71617   0.00000  Uiso   1.00
N1361  N     0.38093   0.50001   0.75001   0.00000  Uiso   1.00
N1362  N     0.61907   0.49999   0.74999   0.00000  Uiso   1.00
O1363  O     0.46179   0.56108   0.75001   0.00000  Uiso   1.00
O1364  O     0.53821   0.43892   0.75000   0.00000  Uiso   1.00
O1365  O     0.53823   0.56107   0.75000   0.00000  Uiso   1.00
O1366  O     0.46177   0.43893   0.75000   0.00000  Uiso   1.00
O1367  O     0.43994   0.50001   0.81612   0.00000  Uiso   1.00
O1368  O     0.56006   0.49999   0.68388   0.00000  Uiso   1.00
O1369  O     0.51639   0.50000   0.81612   0.00000  Uiso   1.00
O1370  O     0.48361   0.50000   0.68388   0.00000  Uiso   1.00
Zn1371 Zn    0.44896   0.50001   0.75000   0.00000  Uiso   1.00
Zn1372 Zn    0.55104   0.49999   0.75000   0.00000  Uiso   1.00
C1373  C     0.83353   0.57994   0.75033   0.00000  Uiso   1.00
C1374  C     0.78917   0.64488   0.76927   0.00000  Uiso   1.00
C1375  C     0.83302   0.37587   0.74931   0.00000  Uiso   1.00
C1376  C     0.83365   0.62413   0.75069   0.00000  Uiso   1.00
C1377  C     0.98345   0.46889   0.72792   0.00000  Uiso   1.00
C1378  C     0.68322   0.53111   0.77208   0.00000  Uiso   1.00
C1379  C     0.69821   0.46842   0.72726   0.00000  Uiso   1.00
C1380  C     0.96846   0.53158   0.77274   0.00000  Uiso   1.00
C1381  C     0.80271   0.50017   0.83796   0.00000  Uiso   1.00
C1382  C     0.86396   0.49983   0.66204   0.00000  Uiso   1.00
C1383  C     0.78332   0.49791   0.88867   0.00000  Uiso   1.00
C1384  C     0.83313   0.42006   0.74967   0.00000  Uiso   1.00
C1385  C     0.88335   0.50209   0.61133   0.00000  Uiso   1.00
C1386  C     0.72381   0.47498   0.96242   0.00000  Uiso   1.00
C1387  C     0.94286   0.52503   0.53758   0.00000  Uiso   1.00
C1388  C     0.73767   0.48027   0.91437   0.00000  Uiso   1.00
C1389  C     0.92900   0.51973   0.58563   0.00000  Uiso   1.00
C1390  C     0.81421   0.50975   0.91098   0.00000  Uiso   1.00
C1391  C     0.85245   0.49026   0.58902   0.00000  Uiso   1.00
C1392  C     0.80511   0.49705   0.95602   0.00000  Uiso   1.00
C1393  C     0.86156   0.50295   0.54398   0.00000  Uiso   1.00
C1394  C     0.75722   0.48407   0.98357   0.00000  Uiso   1.00
C1395  C     0.77394   0.49830   0.55311   0.00000  Uiso   1.00
C1396  C     0.90945   0.51593   0.51643   0.00000  Uiso   1.00
C1397  C     0.84128   0.49988   0.97513   0.00000  Uiso   1.00
C1398  C     0.82538   0.50013   0.52487   0.00000  Uiso   1.00
C1399  C     0.74976   0.51688   0.60280   0.00000  Uiso   1.00
C1400  C     0.76409   0.56290   0.60580   0.00000  Uiso   1.00
C1401  C     0.73933   0.58066   0.65558   0.00000  Uiso   1.00
C1402  C     0.91691   0.48312   0.89720   0.00000  Uiso   1.00
C1403  C     0.90258   0.43711   0.89420   0.00000  Uiso   1.00
C1404  C     0.92733   0.41934   0.84442   0.00000  Uiso   1.00
C1405  C     0.73039   0.43149   0.70370   0.00000  Uiso   1.00
C1406  C     0.89273   0.50171   0.94689   0.00000  Uiso   1.00
C1407  C     0.71780   0.40716   0.66604   0.00000  Uiso   1.00
C1408  C     0.75834   0.37699   0.63822   0.00000  Uiso   1.00
C1409  C     0.93628   0.56851   0.79630   0.00000  Uiso   1.00
C1410  C     0.94886   0.59284   0.83396   0.00000  Uiso   1.00
C1411  C     0.90833   0.62301   0.86177   0.00000  Uiso   1.00
C1412  C     0.74211   0.48464   0.53195   0.00000  Uiso   1.00
C1413  C     0.92456   0.51536   0.96805   0.00000  Uiso   1.00
C1414  C     0.87780   0.64567   0.73141   0.00000  Uiso   1.00
C1415  C     0.78886   0.35433   0.76859   0.00000  Uiso   1.00
C1416  C     0.87750   0.35512   0.73073   0.00000  Uiso   1.00
H1417  H     0.70394   0.47918   0.55312   0.00000  Uiso   1.00
H1418  H     0.75450   0.37047   0.78383   0.00000  Uiso   1.00
H1419  H     0.91180   0.37189   0.71542   0.00000  Uiso   1.00
H1420  H     0.75487   0.62811   0.78458   0.00000  Uiso   1.00
H1421  H     0.97006   0.44436   0.71126   0.00000  Uiso   1.00
H1422  H     0.69661   0.55564   0.78874   0.00000  Uiso   1.00
H1423  H     0.69913   0.57795   0.66746   0.00000  Uiso   1.00
H1424  H     0.75143   0.56371   0.67992   0.00000  Uiso   1.00
H1425  H     0.74936   0.61413   0.65655   0.00000  Uiso   1.00
H1426  H     0.80402   0.56635   0.59527   0.00000  Uiso   1.00
H1427  H     0.75315   0.58143   0.58167   0.00000  Uiso   1.00
H1428  H     0.96273   0.52083   0.94688   0.00000  Uiso   1.00
H1429  H     0.70948   0.51591   0.61397   0.00000  Uiso   1.00
H1430  H     0.75566   0.49860   0.62969   0.00000  Uiso   1.00
H1431  H     0.91523   0.43629   0.82008   0.00000  Uiso   1.00
H1432  H     0.96754   0.42205   0.83254   0.00000  Uiso   1.00
H1433  H     0.91730   0.38587   0.84346   0.00000  Uiso   1.00
H1434  H     0.91352   0.41858   0.91833   0.00000  Uiso   1.00
H1435  H     0.86265   0.43365   0.90473   0.00000  Uiso   1.00
H1436  H     0.91101   0.50141   0.87031   0.00000  Uiso   1.00
H1437  H     0.95719   0.48410   0.88603   0.00000  Uiso   1.00
H1438  H     0.79207   0.39456   0.61777   0.00000  Uiso   1.00
H1439  H     0.82184   0.47021   0.60684   0.00000  Uiso   1.00
H1440  H     0.76605   0.35581   0.66229   0.00000  Uiso   1.00
H1441  H     0.74706   0.35789   0.61349   0.00000  Uiso   1.00
H1442  H     0.68394   0.38846   0.68295   0.00000  Uiso   1.00
H1443  H     0.71241   0.42912   0.64131   0.00000  Uiso   1.00
H1444  H     0.76803   0.44263   0.68613   0.00000  Uiso   1.00
H1445  H     0.72840   0.40928   0.73123   0.00000  Uiso   1.00
H1446  H     0.90062   0.64419   0.83771   0.00000  Uiso   1.00
H1447  H     0.87459   0.60545   0.88223   0.00000  Uiso   1.00
H1448  H     0.91961   0.64211   0.88650   0.00000  Uiso   1.00
H1449  H     0.95425   0.57088   0.85869   0.00000  Uiso   1.00
H1450  H     0.84482   0.52979   0.89316   0.00000  Uiso   1.00
H1451  H     0.98273   0.61154   0.81705   0.00000  Uiso   1.00
H1452  H     0.93827   0.59072   0.76876   0.00000  Uiso   1.00
H1453  H     0.89864   0.55737   0.81387   0.00000  Uiso   1.00
H1454  H     0.95376   0.52885   0.60239   0.00000  Uiso   1.00
H1455  H     0.71290   0.47115   0.89761   0.00000  Uiso   1.00
H1456  H     0.68740   0.46375   0.98287   0.00000  Uiso   1.00
H1457  H     0.97926   0.53626   0.51713   0.00000  Uiso   1.00
H1458  H     0.91216   0.62953   0.71617   0.00000  Uiso   1.00
N1459  N     0.71426   0.50001   0.75001   0.00000  Uiso   1.00
N1460  N     0.95241   0.49999   0.74999   0.00000  Uiso   1.00
O1461  O     0.79512   0.56108   0.75001   0.00000  Uiso   1.00
O1462  O     0.87154   0.43892   0.75000   0.00000  Uiso   1.00
O1463  O     0.87157   0.56107   0.75000   0.00000  Uiso   1.00
O1464  O     0.79510   0.43893   0.75000   0.00000  Uiso   1.00
O1465  O     0.77328   0.50001   0.81612   0.00000  Uiso   1.00
O1466  O     0.89339   0.49999   0.68388   0.00000  Uiso   1.00
O1467  O     0.84972   0.50000   0.81612   0.00000  Uiso   1.00
O1468  O     0.81695   0.50000   0.68388   0.00000  Uiso   1.00
Zn1469 Zn    0.78229   0.50001   0.75000   0.00000  Uiso   1.00
Zn1470 Zn    0.88438   0.49999   0.75000   0.00000  Uiso   1.00
C1471  C     0.16687   0.91327   0.75033   0.00000  Uiso   1.00
C1472  C     0.12250   0.97822   0.76927   0.00000  Uiso   1.00
C1473  C     0.16635   0.70920   0.74931   0.00000  Uiso   1.00
C1474  C     0.16698   0.95747   0.75069   0.00000  Uiso   1.00
C1475  C     0.31678   0.80223   0.72792   0.00000  Uiso   1.00
C1476  C     0.01655   0.86444   0.77208   0.00000  Uiso   1.00
C1477  C     0.03154   0.80175   0.72726   0.00000  Uiso   1.00
C1478  C     0.30179   0.86491   0.77274   0.00000  Uiso   1.00
C1479  C     0.13604   0.83351   0.83796   0.00000  Uiso   1.00
C1480  C     0.19729   0.83316   0.66204   0.00000  Uiso   1.00
C1481  C     0.11665   0.83124   0.88867   0.00000  Uiso   1.00
C1482  C     0.16647   0.75339   0.74967   0.00000  Uiso   1.00
C1483  C     0.21668   0.83542   0.61133   0.00000  Uiso   1.00
C1484  C     0.05714   0.80831   0.96242   0.00000  Uiso   1.00
C1485  C     0.27619   0.85836   0.53758   0.00000  Uiso   1.00
C1486  C     0.07100   0.81360   0.91437   0.00000  Uiso   1.00
C1487  C     0.26233   0.85306   0.58563   0.00000  Uiso   1.00
C1488  C     0.14755   0.84308   0.91098   0.00000  Uiso   1.00
C1489  C     0.18579   0.82359   0.58902   0.00000  Uiso   1.00
C1490  C     0.13844   0.83038   0.95602   0.00000  Uiso   1.00
C1491  C     0.19489   0.83629   0.54398   0.00000  Uiso   1.00
C1492  C     0.09055   0.81740   0.98357   0.00000  Uiso   1.00
C1493  C     0.10727   0.83163   0.55311   0.00000  Uiso   1.00
C1494  C     0.24278   0.84927   0.51643   0.00000  Uiso   1.00
C1495  C     0.17462   0.83321   0.97513   0.00000  Uiso   1.00
C1496  C     0.15872   0.83346   0.52487   0.00000  Uiso   1.00
C1497  C     0.08309   0.85021   0.60280   0.00000  Uiso   1.00
C1498  C     0.09743   0.89623   0.60580   0.00000  Uiso   1.00
C1499  C     0.07267   0.91400   0.65558   0.00000  Uiso   1.00
C1500  C     0.25024   0.81646   0.89720   0.00000  Uiso   1.00
C1501  C     0.23591   0.77044   0.89420   0.00000  Uiso   1.00
C1502  C     0.26067   0.75267   0.84442   0.00000  Uiso   1.00
C1503  C     0.06372   0.76482   0.70370   0.00000  Uiso   1.00
C1504  C     0.22606   0.83504   0.94689   0.00000  Uiso   1.00
C1505  C     0.05114   0.74049   0.66604   0.00000  Uiso   1.00
C1506  C     0.09168   0.71032   0.63822   0.00000  Uiso   1.00
C1507  C     0.26961   0.90185   0.79630   0.00000  Uiso   1.00
C1508  C     0.28220   0.92618   0.83396   0.00000  Uiso   1.00
C1509  C     0.24166   0.95635   0.86177   0.00000  Uiso   1.00
C1510  C     0.07544   0.81797   0.53195   0.00000  Uiso   1.00
C1511  C     0.25789   0.84870   0.96805   0.00000  Uiso   1.00
C1512  C     0.21114   0.97900   0.73141   0.00000  Uiso   1.00
C1513  C     0.12220   0.68766   0.76859   0.00000  Uiso   1.00
C1514  C     0.21083   0.68845   0.73073   0.00000  Uiso   1.00
H1515  H     0.03727   0.81251   0.55312   0.00000  Uiso   1.00
H1516  H     0.08784   0.70381   0.78383   0.00000  Uiso   1.00
H1517  H     0.24513   0.70522   0.71542   0.00000  Uiso   1.00
H1518  H     0.08820   0.96145   0.78458   0.00000  Uiso   1.00
H1519  H     0.30339   0.77769   0.71126   0.00000  Uiso   1.00
H1520  H     0.02994   0.88897   0.78874   0.00000  Uiso   1.00
H1521  H     0.03246   0.91128   0.66746   0.00000  Uiso   1.00
H1522  H     0.08477   0.89705   0.67992   0.00000  Uiso   1.00
H1523  H     0.08270   0.94746   0.65655   0.00000  Uiso   1.00
H1524  H     0.13735   0.89969   0.59527   0.00000  Uiso   1.00
H1525  H     0.08648   0.91476   0.58167   0.00000  Uiso   1.00
H1526  H     0.29606   0.85416   0.94688   0.00000  Uiso   1.00
H1527  H     0.04281   0.84924   0.61397   0.00000  Uiso   1.00
H1528  H     0.08899   0.83193   0.62969   0.00000  Uiso   1.00
H1529  H     0.24856   0.76962   0.82008   0.00000  Uiso   1.00
H1530  H     0.30087   0.75538   0.83254   0.00000  Uiso   1.00
H1531  H     0.25064   0.71921   0.84346   0.00000  Uiso   1.00
H1532  H     0.24685   0.75191   0.91833   0.00000  Uiso   1.00
H1533  H     0.19598   0.76698   0.90473   0.00000  Uiso   1.00
H1534  H     0.24434   0.83474   0.87031   0.00000  Uiso   1.00
H1535  H     0.29052   0.81743   0.88603   0.00000  Uiso   1.00
H1536  H     0.12541   0.72789   0.61777   0.00000  Uiso   1.00
H1537  H     0.15518   0.80354   0.60684   0.00000  Uiso   1.00
H1538  H     0.09938   0.68914   0.66229   0.00000  Uiso   1.00
H1539  H     0.08039   0.69123   0.61349   0.00000  Uiso   1.00
H1540  H     0.01727   0.72180   0.68295   0.00000  Uiso   1.00
H1541  H     0.04575   0.76246   0.64131   0.00000  Uiso   1.00
H1542  H     0.10136   0.77596   0.68613   0.00000  Uiso   1.00
H1543  H     0.06173   0.74261   0.73123   0.00000  Uiso   1.00
H1544  H     0.23395   0.97753   0.83771   0.00000  Uiso   1.00
H1545  H     0.20793   0.93878   0.88223   0.00000  Uiso   1.00
H1546  H     0.25294   0.97544   0.88650   0.00000  Uiso   1.00
H1547  H     0.28759   0.90421   0.85869   0.00000  Uiso   1.00
H1548  H     0.17816   0.86312   0.89316   0.00000  Uiso   1.00
H1549  H     0.31606   0.94487   0.81705   0.00000  Uiso   1.00
H1550  H     0.27160   0.92406   0.76876   0.00000  Uiso   1.00
H1551  H     0.23197   0.89070   0.81387   0.00000  Uiso   1.00
H1552  H     0.28710   0.86219   0.60239   0.00000  Uiso   1.00
H1553  H     0.04624   0.80448   0.89761   0.00000  Uiso   1.00
H1554  H     0.02074   0.79708   0.98287   0.00000  Uiso   1.00
H1555  H     0.31260   0.86959   0.51713   0.00000  Uiso   1.00
H1556  H     0.24550   0.96286   0.71617   0.00000  Uiso   1.00
N1557  N     0.04759   0.83334   0.75001   0.00000  Uiso   1.00
N1558  N     0.28574   0.83332   0.74999   0.00000  Uiso   1.00
O1559  O     0.12846   0.89442   0.75001   0.00000  Uiso   1.00
O1560  O     0.20488   0.77225   0.75000   0.00000  Uiso   1.00
O1561  O     0.20490   0.89441   0.75000   0.00000  Uiso   1.00
O1562  O     0.12843   0.77226   0.75000   0.00000  Uiso   1.00
O1563  O     0.10661   0.83334   0.81612   0.00000  Uiso   1.00
O1564  O     0.22672   0.83333   0.68388   0.00000  Uiso   1.00
O1565  O     0.18305   0.83333   0.81612   0.00000  Uiso   1.00
O1566  O     0.15028   0.83334   0.68388   0.00000  Uiso   1.00
Zn1567 Zn    0.11562   0.83334   0.75000   0.00000  Uiso   1.00
Zn1568 Zn    0.21771   0.83333   0.75000   0.00000  Uiso   1.00
C1569  C     0.50020   0.91327   0.75033   0.00000  Uiso   1.00
C1570  C     0.45583   0.97822   0.76927   0.00000  Uiso   1.00
C1571  C     0.49968   0.70920   0.74931   0.00000  Uiso   1.00
C1572  C     0.50031   0.95747   0.75069   0.00000  Uiso   1.00
C1573  C     0.65012   0.80223   0.72792   0.00000  Uiso   1.00
C1574  C     0.34988   0.86444   0.77208   0.00000  Uiso   1.00
C1575  C     0.36488   0.80175   0.72726   0.00000  Uiso   1.00
C1576  C     0.63512   0.86491   0.77274   0.00000  Uiso   1.00
C1577  C     0.46937   0.83351   0.83796   0.00000  Uiso   1.00
C1578  C     0.53063   0.83316   0.66204   0.00000  Uiso   1.00
C1579  C     0.44999   0.83124   0.88867   0.00000  Uiso   1.00
C1580  C     0.49980   0.75339   0.74967   0.00000  Uiso   1.00
C1581  C     0.55001   0.83542   0.61133   0.00000  Uiso   1.00
C1582  C     0.39048   0.80831   0.96242   0.00000  Uiso   1.00
C1583  C     0.60952   0.85836   0.53758   0.00000  Uiso   1.00
C1584  C     0.40433   0.81360   0.91437   0.00000  Uiso   1.00
C1585  C     0.59567   0.85306   0.58563   0.00000  Uiso   1.00
C1586  C     0.48088   0.84308   0.91098   0.00000  Uiso   1.00
C1587  C     0.51912   0.82359   0.58902   0.00000  Uiso   1.00
C1588  C     0.47177   0.83038   0.95602   0.00000  Uiso   1.00
C1589  C     0.52823   0.83629   0.54398   0.00000  Uiso   1.00
C1590  C     0.42388   0.81740   0.98357   0.00000  Uiso   1.00
C1591  C     0.44061   0.83163   0.55311   0.00000  Uiso   1.00
C1592  C     0.57612   0.84927   0.51643   0.00000  Uiso   1.00
C1593  C     0.50795   0.83321   0.97513   0.00000  Uiso   1.00
C1594  C     0.49205   0.83346   0.52487   0.00000  Uiso   1.00
C1595  C     0.41643   0.85021   0.60280   0.00000  Uiso   1.00
C1596  C     0.43076   0.89623   0.60580   0.00000  Uiso   1.00
C1597  C     0.40600   0.91400   0.65558   0.00000  Uiso   1.00
C1598  C     0.58357   0.81646   0.89720   0.00000  Uiso   1.00
C1599  C     0.56924   0.77044   0.89420   0.00000  Uiso   1.00
C1600  C     0.59400   0.75267   0.84442   0.00000  Uiso   1.00
C1601  C     0.39705   0.76482   0.70370   0.00000  Uiso   1.00
C1602  C     0.55939   0.83504   0.94689   0.00000  Uiso   1.00
C1603  C     0.38447   0.74049   0.66604   0.00000  Uiso   1.00
C1604  C     0.42501   0.71032   0.63822   0.00000  Uiso   1.00
C1605  C     0.60294   0.90185   0.79630   0.00000  Uiso   1.00
C1606  C     0.61553   0.92618   0.83396   0.00000  Uiso   1.00
C1607  C     0.57499   0.95635   0.86177   0.00000  Uiso   1.00
C1608  C     0.40878   0.81797   0.53195   0.00000  Uiso   1.00
C1609  C     0.59122   0.84870   0.96805   0.00000  Uiso   1.00
C1610  C     0.54447   0.97900   0.73141   0.00000  Uiso   1.00
C1611  C     0.45553   0.68766   0.76859   0.00000  Uiso   1.00
C1612  C     0.54417   0.68845   0.73073   0.00000  Uiso   1.00
H1613  H     0.37061   0.81251   0.55312   0.00000  Uiso   1.00
H1614  H     0.42117   0.70381   0.78383   0.00000  Uiso   1.00
H1615  H     0.57847   0.70522   0.71542   0.00000  Uiso   1.00
H1616  H     0.42153   0.96145   0.78458   0.00000  Uiso   1.00
H1617  H     0.63672   0.77769   0.71126   0.00000  Uiso   1.00
H1618  H     0.36327   0.88897   0.78874   0.00000  Uiso   1.00
H1619  H     0.36580   0.91128   0.66746   0.00000  Uiso   1.00
H1620  H     0.41810   0.89705   0.67992   0.00000  Uiso   1.00
H1621  H     0.41603   0.94746   0.65655   0.00000  Uiso   1.00
H1622  H     0.47069   0.89969   0.59527   0.00000  Uiso   1.00
H1623  H     0.41982   0.91476   0.58167   0.00000  Uiso   1.00
H1624  H     0.62939   0.85416   0.94688   0.00000  Uiso   1.00
H1625  H     0.37615   0.84924   0.61397   0.00000  Uiso   1.00
H1626  H     0.42233   0.83193   0.62969   0.00000  Uiso   1.00
H1627  H     0.58190   0.76962   0.82008   0.00000  Uiso   1.00
H1628  H     0.63420   0.75538   0.83254   0.00000  Uiso   1.00
H1629  H     0.58397   0.71921   0.84346   0.00000  Uiso   1.00
H1630  H     0.58019   0.75191   0.91833   0.00000  Uiso   1.00
H1631  H     0.52931   0.76698   0.90473   0.00000  Uiso   1.00
H1632  H     0.57767   0.83474   0.87031   0.00000  Uiso   1.00
H1633  H     0.62385   0.81743   0.88603   0.00000  Uiso   1.00
H1634  H     0.45874   0.72789   0.61777   0.00000  Uiso   1.00
H1635  H     0.48851   0.80354   0.60684   0.00000  Uiso   1.00
H1636  H     0.43271   0.68914   0.66229   0.00000  Uiso   1.00
H1637  H     0.41373   0.69123   0.61349   0.00000  Uiso   1.00
H1638  H     0.35061   0.72180   0.68295   0.00000  Uiso   1.00
H1639  H     0.37908   0.76246   0.64131   0.00000  Uiso   1.00
H1640  H     0.43469   0.77596   0.68613   0.00000  Uiso   1.00
H1641  H     0.39506   0.74261   0.73123   0.00000  Uiso   1.00
H1642  H     0.56729   0.97753   0.83771   0.00000  Uiso   1.00
H1643  H     0.54126   0.93878   0.88223   0.00000  Uiso   1.00
H1644  H     0.58627   0.97544   0.88650   0.00000  Uiso   1.00
H1645  H     0.62092   0.90421   0.85869   0.00000  Uiso   1.00
H1646  H     0.51149   0.86312   0.89316   0.00000  Uiso   1.00
H1647  H     0.64940   0.94487   0.81705   0.00000  Uiso   1.00
H1648  H     0.60494   0.92406   0.76876   0.00000  Uiso   1.00
H1649  H     0.56531   0.89070   0.81387   0.00000  Uiso   1.00
H1650  H     0.62043   0.86219   0.60239   0.00000  Uiso   1.00
H1651  H     0.37957   0.80448   0.89761   0.00000  Uiso   1.00
H1652  H     0.35407   0.79708   0.98287   0.00000  Uiso   1.00
H1653  H     0.64593   0.86959   0.51713   0.00000  Uiso   1.00
H1654  H     0.57883   0.96286   0.71617   0.00000  Uiso   1.00
N1655  N     0.38093   0.83334   0.75001   0.00000  Uiso   1.00
N1656  N     0.61907   0.83332   0.74999   0.00000  Uiso   1.00
O1657  O     0.46179   0.89442   0.75001   0.00000  Uiso   1.00
O1658  O     0.53821   0.77225   0.75000   0.00000  Uiso   1.00
O1659  O     0.53823   0.89441   0.75000   0.00000  Uiso   1.00
O1660  O     0.46177   0.77226   0.75000   0.00000  Uiso   1.00
O1661  O     0.43994   0.83334   0.81612   0.00000  Uiso   1.00
O1662  O     0.56006   0.83333   0.68388   0.00000  Uiso   1.00
O1663  O     0.51639   0.83333   0.81612   0.00000  Uiso   1.00
O1664  O     0.48361   0.83334   0.68388   0.00000  Uiso   1.00
Zn1665 Zn    0.44896   0.83334   0.75000   0.00000  Uiso   1.00
Zn1666 Zn    0.55104   0.83333   0.75000   0.00000  Uiso   1.00
C1667  C     0.83353   0.91327   0.75033   0.00000  Uiso   1.00
C1668  C     0.78917   0.97822   0.76927   0.00000  Uiso   1.00
C1669  C     0.83302   0.70920   0.74931   0.00000  Uiso   1.00
C1670  C     0.83365   0.95747   0.75069   0.00000  Uiso   1.00
C1671  C     0.98345   0.80223   0.72792   0.00000  Uiso   1.00
C1672  C     0.68322   0.86444   0.77208   0.00000  Uiso   1.00
C1673  C     0.69821   0.80175   0.72726   0.00000  Uiso   1.00
C1674  C     0.96846   0.86491   0.77274   0.00000  Uiso   1.00
C1675  C     0.80271   0.83351   0.83796   0.00000  Uiso   1.00
C1676  C     0.86396   0.83316   0.66204   0.00000  Uiso   1.00
C1677  C     0.78332   0.83124   0.88867   0.00000  Uiso   1.00
C1678  C     0.83313   0.75339   0.74967   0.00000  Uiso   1.00
C1679  C     0.88335   0.83542   0.61133   0.00000  Uiso   1.00
C1680  C     0.72381   0.80831   0.96242   0.00000  Uiso   1.00
C1681  C     0.94286   0.85836   0.53758   0.00000  Uiso   1.00
C1682  C     0.73767   0.81360   0.91437   0.00000  Uiso   1.00
C1683  C     0.92900   0.85306   0.58563   0.00000  Uiso   1.00
C1684  C     0.81421   0.84308   0.91098   0.00000  Uiso   1.00
C1685  C     0.85245   0.82359   0.58902   0.00000  Uiso   1.00
C1686  C     0.80511   0.83038   0.95602   0.00000  Uiso   1.00
C1687  C     0.86156   0.83629   0.54398   0.00000  Uiso   1.00
C1688  C     0.75722   0.81740   0.98357   0.00000  Uiso   1.00
C1689  C     0.77394   0.83163   0.55311   0.00000  Uiso   1.00
C1690  C     0.90945   0.84927   0.51643   0.00000  Uiso   1.00
C1691  C     0.84128   0.83321   0.97513   0.00000  Uiso   1.00
C1692  C     0.82538   0.83346   0.52487   0.00000  Uiso   1.00
C1693  C     0.74976   0.85021   0.60280   0.00000  Uiso   1.00
C1694  C     0.76409   0.89623   0.60580   0.00000  Uiso   1.00
C1695  C     0.73933   0.91400   0.65558   0.00000  Uiso   1.00
C1696  C     0.91691   0.81646   0.89720   0.00000  Uiso   1.00
C1697  C     0.90258   0.77044   0.89420   0.00000  Uiso   1.00
C1698  C     0.92733   0.75267   0.84442   0.00000  Uiso   1.00
C1699  C     0.73039   0.76482   0.70370   0.00000  Uiso   1.00
C1700  C     0.89273   0.83504   0.94689   0.00000  Uiso   1.00
C1701  C     0.71780   0.74049   0.66604   0.00000  Uiso   1.00
C1702  C     0.75834   0.71032   0.63822   0.00000  Uiso   1.00
C1703  C     0.93628   0.90185   0.79630   0.00000  Uiso   1.00
C1704  C     0.94886   0.92618   0.83396   0.00000  Uiso   1.00
C1705  C     0.90833   0.95635   0.86177   0.00000  Uiso   1.00
C1706  C     0.74211   0.81797   0.53195   0.00000  Uiso   1.00
C1707  C     0.92456   0.84870   0.96805   0.00000  Uiso   1.00
C1708  C     0.87780   0.97900   0.73141   0.00000  Uiso   1.00
C1709  C     0.78886   0.68766   0.76859   0.00000  Uiso   1.00
C1710  C     0.87750   0.68845   0.73073   0.00000  Uiso   1.00
H1711  H     0.70394   0.81251   0.55312   0.00000  Uiso   1.00
H1712  H     0.75450   0.70381   0.78383   0.00000  Uiso   1.00
H1713  H     0.91180   0.70522   0.71542   0.00000  Uiso   1.00
H1714  H     0.75487   0.96145   0.78458   0.00000  Uiso   1.00
H1715  H     0.97006   0.77769   0.71126   0.00000  Uiso   1.00
H1716  H     0.69661   0.88897   0.78874   0.00000  Uiso   1.00
H1717  H     0.69913   0.91128   0.66746   0.00000  Uiso   1.00
H1718  H     0.75143   0.89705   0.67992   0.00000  Uiso   1.00
H1719  H     0.74936   0.94746   0.65655   0.00000  Uiso   1.00
H1720  H     0.80402   0.89969   0.59527   0.00000  Uiso   1.00
H1721  H     0.75315   0.91476   0.58167   0.00000  Uiso   1.00
H1722  H     0.96273   0.85416   0.94688   0.00000  Uiso   1.00
H1723  H     0.70948   0.84924   0.61397   0.00000  Uiso   1.00
H1724  H     0.75566   0.83193   0.62969   0.00000  Uiso   1.00
H1725  H     0.91523   0.76962   0.82008   0.00000  Uiso   1.00
H1726  H     0.96754   0.75538   0.83254   0.00000  Uiso   1.00
H1727  H     0.91730   0.71921   0.84346   0.00000  Uiso   1.00
H1728  H     0.91352   0.75191   0.91833   0.00000  Uiso   1.00
H1729  H     0.86265   0.76698   0.90473   0.00000  Uiso   1.00
H1730  H     0.91101   0.83474   0.87031   0.00000  Uiso   1.00
H1731  H     0.95719   0.81743   0.88603   0.00000  Uiso   1.00
H1732  H     0.79207   0.72789   0.61777   0.00000  Uiso   1.00
H1733  H     0.82184   0.80354   0.60684   0.00000  Uiso   1.00
H1734  H     0.76605   0.68914   0.66229   0.00000  Uiso   1.00
H1735  H     0.74706   0.69123   0.61349   0.00000  Uiso   1.00
H1736  H     0.68394   0.72180   0.68295   0.00000  Uiso   1.00
H1737  H     0.71241   0.76246   0.64131   0.00000  Uiso   1.00
H1738  H     0.76803   0.77596   0.68613   0.00000  Uiso   1.00
H1739  H     0.72840   0.74261   0.73123   0.00000  Uiso   1.00
H1740  H     0.90062   0.97753   0.83771   0.00000  Uiso   1.00
H1741  H     0.87459   0.93878   0.88223   0.00000  Uiso   1.00
H1742  H     0.91961   0.97544   0.88650   0.00000  Uiso   1.00
H1743  H     0.95425   0.90421   0.85869   0.00000  Uiso   1.00
H1744  H     0.84482   0.86312   0.89316   0.00000  Uiso   1.00
H1745  H     0.98273   0.94487   0.81705   0.00000  Uiso   1.00
H1746  H     0.93827   0.92406   0.76876   0.00000  Uiso   1.00
H1747  H     0.89864   0.89070   0.81387   0.00000  Uiso   1.00
H1748  H     0.95376   0.86219   0.60239   0.00000  Uiso   1.00
H1749  H     0.71290   0.80448   0.89761   0.00000  Uiso   1.00
H1750  H     0.68740   0.79708   0.98287   0.00000  Uiso   1.00
H1751  H     0.97926   0.86959   0.51713   0.00000  Uiso   1.00
H1752  H     0.91216   0.96286   0.71617   0.00000  Uiso   1.00
N1753  N     0.71426   0.83334   0.75001   0.00000  Uiso   1.00
N1754  N     0.95241   0.83332   0.74999   0.00000  Uiso   1.00
O1755  O     0.79512   0.89442   0.75001   0.00000  Uiso   1.00
O1756  O     0.87154   0.77225   0.75000   0.00000  Uiso   1.00
O1757  O     0.87157   0.89441   0.75000   0.00000  Uiso   1.00
O1758  O     0.79510   0.77226   0.75000   0.00000  Uiso   1.00
O1759  O     0.77328   0.83334   0.81612   0.00000  Uiso   1.00
O1760  O     0.89339   0.83333   0.68388   0.00000  Uiso   1.00
O1761  O     0.84972   0.83333   0.81612   0.00000  Uiso   1.00
O1762  O     0.81695   0.83334   0.68388   0.00000  Uiso   1.00
Zn1763 Zn    0.78229   0.83334   0.75000   0.00000  Uiso   1.00
Zn1764 Zn    0.88438   0.83333   0.75000   0.00000  Uiso   1.00
loop_
_geom_bond_atom_site_label_1
_geom_bond_atom_site_label_2
_geom_bond_distance
_geom_bond_site_symmetry_2
_ccdc_geom_bond_type
C1     O91     1.291   .     A
C1     O89     1.285   .     A
C1     C4      1.415   .     S
C2     H48     1.084   .     S
C2     C4      1.399   .     A
C2     C337    1.371   .     S
C3     C43     1.394   .     A
C3     C12     1.415   .     S
C3     C44     1.399   .     A
C4     C42     1.394   .     A
C5     H49     1.078   .     S
C5     N88     1.351   .     A
C5     C105    1.425   .     S
C6     N87     1.351   .     A
C6     H50     1.078   .     S
C6     C204    1.425   1_455 S
C7     N87     1.394   .     A
C7     C33     1.519   .     S
C7     C201    1.425   1_455 S
C8     N88     1.394   .     A
C8     C37     1.519   .     S
C8     C104    1.425   .     S
C9     O95     1.300   .     A
C9     C11     1.452   .     S
C9     O93     1.296   .     A
C10    O94     1.296   .     A
C10    C13     1.452   .     S
C10    O96     1.300   .     A
C11    C18     1.387   .     A
C11    C16     1.400   .     A
C12    O90     1.285   .     A
C12    O92     1.291   .     A
C13    C19     1.387   .     A
C13    C17     1.400   .     A
C14    H84     1.084   .     S
C14    C16     1.396   .     A
C14    C22     1.407   .     A
C15    H85     1.083   .     S
C15    C24     1.407   .     A
C15    C17     1.396   .     A
C16    H83     1.083   .     S
C17    H82     1.083   .     S
C18    H78     1.075   .     S
C18    C20     1.385   .     A
C19    C21     1.385   .     A
C19    H67     1.075   .     S
C20    C22     1.412   .     A
C20    C25     1.414   .     A
C21    C26     1.414   .     A
C21    C24     1.412   .     A
C22    C922    1.387   .     S
C23    C26     1.443   .     A
C23    C40     1.400   .     A
C23    C27     1.532   .     S
C24    C923    1.387   1_554 S
C25    C34     1.443   .     A
C25    C908    1.425   .     S
C26    C907    1.425   1_554 S
C27    H57     1.113   .     S
C27    H58     1.100   .     S
C27    C28     1.535   .     S
C28    C29     1.527   .     S
C28    H55     1.112   .     S
C28    H54     1.109   .     S
C29    H53     1.109   .     S
C29    H51     1.111   .     S
C29    H52     1.110   .     S
C30    H64     1.100   .     S
C30    C31     1.535   .     S
C30    C34     1.532   .     S
C30    H65     1.113   .     S
C31    H62     1.112   .     S
C31    H63     1.109   .     S
C31    C32     1.527   .     S
C32    H61     1.109   .     S
C32    H60     1.111   .     S
C32    H59     1.110   .     S
C33    H72     1.098   .     S
C33    H73     1.109   .     S
C33    C35     1.541   .     S
C34    C41     1.400   .     A
C35    C36     1.527   .     S
C35    H70     1.112   .     S
C35    H71     1.112   .     S
C36    H66     1.111   .     S
C36    H69     1.110   .     S
C36    H68     1.111   .     S
C37    H81     1.098   .     S
C37    H80     1.109   .     S
C37    C38     1.541   .     S
C38    H79     1.112   .     S
C38    H77     1.112   .     S
C38    C39     1.527   .     S
C39    H74     1.111   .     S
C39    H75     1.111   .     S
C39    H76     1.110   .     S
C40    H45     1.085   .     S
C40    C904    1.387   1_554 S
C41    H56     1.085   .     S
C41    C906    1.387   .     S
C42    H86     1.083   .     S
C42    C338    1.371   .     S
C43    H46     1.083   .     S
C43    C590    1.371   1_545 S
C44    H47     1.084   .     S
C44    C630    1.371   1_545 S
N87    Zn97    2.025   .     S
N88    Zn98    2.025   .     S
O89    Zn97    1.984   .     S
O90    Zn98    1.984   .     S
O91    Zn98    2.000   .     S
O92    Zn97    2.000   .     S
O93    Zn97    1.958   .     S
O94    Zn98    1.958   .     S
O95    Zn98    1.904   .     S
O96    Zn97    1.904   .     S
C99    O189    1.291   .     A
C99    O187    1.285   .     A
C99    C102    1.415   .     S
C100   H146    1.084   .     S
C100   C102    1.399   .     A
C100   C435    1.371   .     S
C101   C141    1.394   .     A
C101   C110    1.415   .     S
C101   C142    1.399   .     A
C102   C140    1.394   .     A
C103   H147    1.078   .     S
C103   N186    1.351   .     A
C103   C203    1.425   .     S
C104   N185    1.351   .     A
C104   H148    1.078   .     S
C105   N185    1.394   .     A
C105   C131    1.519   .     S
C106   N186    1.394   .     A
C106   C135    1.519   .     S
C106   C202    1.425   .     S
C107   O193    1.300   .     A
C107   C109    1.452   .     S
C107   O191    1.296   .     A
C108   O192    1.296   .     A
C108   C111    1.452   .     S
C108   O194    1.300   .     A
C109   C116    1.387   .     A
C109   C114    1.400   .     A
C110   O188    1.285   .     A
C110   O190    1.291   .     A
C111   C117    1.387   .     A
C111   C115    1.400   .     A
C112   H182    1.084   .     S
C112   C114    1.396   .     A
C112   C120    1.407   .     A
C113   H183    1.083   .     S
C113   C122    1.407   .     A
C113   C115    1.396   .     A
C114   H181    1.083   .     S
C115   H180    1.083   .     S
C116   H176    1.075   .     S
C116   C118    1.385   .     A
C117   C119    1.385   .     A
C117   H165    1.075   .     S
C118   C120    1.412   .     A
C118   C123    1.414   .     A
C119   C124    1.414   .     A
C119   C122    1.412   .     A
C120   C1020   1.387   .     S
C121   C124    1.443   .     A
C121   C138    1.400   .     A
C121   C125    1.532   .     S
C122   C1021   1.387   1_554 S
C123   C132    1.443   .     A
C123   C1006   1.425   .     S
C124   C1005   1.425   1_554 S
C125   H155    1.113   .     S
C125   H156    1.100   .     S
C125   C126    1.535   .     S
C126   C127    1.527   .     S
C126   H153    1.112   .     S
C126   H152    1.109   .     S
C127   H151    1.109   .     S
C127   H149    1.111   .     S
C127   H150    1.110   .     S
C128   H162    1.100   .     S
C128   C129    1.535   .     S
C128   C132    1.532   .     S
C128   H163    1.113   .     S
C129   H160    1.112   .     S
C129   H161    1.109   .     S
C129   C130    1.527   .     S
C130   H159    1.109   .     S
C130   H158    1.111   .     S
C130   H157    1.110   .     S
C131   H170    1.098   .     S
C131   H171    1.109   .     S
C131   C133    1.541   .     S
C132   C139    1.400   .     A
C133   C134    1.527   .     S
C133   H168    1.112   .     S
C133   H169    1.112   .     S
C134   H164    1.111   .     S
C134   H167    1.110   .     S
C134   H166    1.111   .     S
C135   H179    1.098   .     S
C135   H178    1.109   .     S
C135   C136    1.541   .     S
C136   H177    1.112   .     S
C136   H175    1.112   .     S
C136   C137    1.527   .     S
C137   H172    1.111   .     S
C137   H173    1.111   .     S
C137   H174    1.110   .     S
C138   H143    1.085   .     S
C138   C1002   1.387   1_554 S
C139   H154    1.085   .     S
C139   C1004   1.387   .     S
C140   H184    1.083   .     S
C140   C436    1.371   .     S
C141   H144    1.083   .     S
C141   C688    1.371   1_545 S
C142   H145    1.084   .     S
C142   C728    1.371   1_545 S
N185   Zn195   2.025   .     S
N186   Zn196   2.025   .     S
O187   Zn195   1.984   .     S
O188   Zn196   1.984   .     S
O189   Zn196   2.000   .     S
O190   Zn195   2.000   .     S
O191   Zn195   1.958   .     S
O192   Zn196   1.958   .     S
O193   Zn196   1.904   .     S
O194   Zn195   1.904   .     S
C197   O287    1.291   .     A
C197   O285    1.285   .     A
C197   C200    1.415   .     S
C198   H244    1.084   .     S
C198   C200    1.399   .     A
C198   C533    1.371   .     S
C199   C239    1.394   .     A
C199   C208    1.415   .     S
C199   C240    1.399   .     A
C200   C238    1.394   .     A
C201   H245    1.078   .     S
C201   N284    1.351   .     A
C201   C7      1.425   1_655 S
C202   N283    1.351   .     A
C202   H246    1.078   .     S
C203   N283    1.394   .     A
C203   C229    1.519   .     S
C204   N284    1.394   .     A
C204   C233    1.519   .     S
C204   C6      1.425   1_655 S
C205   O291    1.300   .     A
C205   C207    1.452   .     S
C205   O289    1.296   .     A
C206   O290    1.296   .     A
C206   C209    1.452   .     S
C206   O292    1.300   .     A
C207   C214    1.387   .     A
C207   C212    1.400   .     A
C208   O286    1.285   .     A
C208   O288    1.291   .     A
C209   C215    1.387   .     A
C209   C213    1.400   .     A
C210   H280    1.084   .     S
C210   C212    1.396   .     A
C210   C218    1.407   .     A
C211   H281    1.083   .     S
C211   C220    1.407   .     A
C211   C213    1.396   .     A
C212   H279    1.083   .     S
C213   H278    1.083   .     S
C214   H274    1.075   .     S
C214   C216    1.385   .     A
C215   C217    1.385   .     A
C215   H263    1.075   .     S
C216   C218    1.412   .     A
C216   C221    1.414   .     A
C217   C222    1.414   .     A
C217   C220    1.412   .     A
C218   C1118   1.387   .     S
C219   C222    1.443   .     A
C219   C236    1.400   .     A
C219   C223    1.532   .     S
C220   C1119   1.387   1_554 S
C221   C230    1.443   .     A
C221   C1104   1.425   .     S
C222   C1103   1.425   1_554 S
C223   H253    1.113   .     S
C223   H254    1.100   .     S
C223   C224    1.535   .     S
C224   C225    1.527   .     S
C224   H251    1.112   .     S
C224   H250    1.109   .     S
C225   H249    1.109   .     S
C225   H247    1.111   .     S
C225   H248    1.110   .     S
C226   H260    1.100   .     S
C226   C227    1.535   .     S
C226   C230    1.532   .     S
C226   H261    1.113   .     S
C227   H258    1.112   .     S
C227   H259    1.109   .     S
C227   C228    1.527   .     S
C228   H257    1.109   .     S
C228   H256    1.111   .     S
C228   H255    1.110   .     S
C229   H268    1.098   .     S
C229   H269    1.109   .     S
C229   C231    1.541   .     S
C230   C237    1.400   .     A
C231   C232    1.527   .     S
C231   H266    1.112   .     S
C231   H267    1.112   .     S
C232   H262    1.111   .     S
C232   H265    1.110   .     S
C232   H264    1.111   .     S
C233   H277    1.098   .     S
C233   H276    1.109   .     S
C233   C234    1.541   .     S
C234   H275    1.112   .     S
C234   H273    1.112   .     S
C234   C235    1.527   .     S
C235   H270    1.111   .     S
C235   H271    1.111   .     S
C235   H272    1.110   .     S
C236   H241    1.085   .     S
C236   C1100   1.387   1_554 S
C237   H252    1.085   .     S
C237   C1102   1.387   .     S
C238   H282    1.083   .     S
C238   C534    1.371   .     S
C239   H242    1.083   .     S
C239   C786    1.371   1_545 S
C240   H243    1.084   .     S
C240   C826    1.371   1_545 S
N283   Zn293   2.025   .     S
N284   Zn294   2.025   .     S
O285   Zn293   1.984   .     S
O286   Zn294   1.984   .     S
O287   Zn294   2.000   .     S
O288   Zn293   2.000   .     S
O289   Zn293   1.958   .     S
O290   Zn294   1.958   .     S
O291   Zn294   1.904   .     S
O292   Zn293   1.904   .     S
C295   O385    1.291   .     A
C295   O383    1.285   .     A
C295   C298    1.415   .     S
C296   H342    1.084   .     S
C296   C298    1.399   .     A
C296   C631    1.371   .     S
C297   C337    1.394   .     A
C297   C306    1.415   .     S
C297   C338    1.399   .     A
C298   C336    1.394   .     A
C299   H343    1.078   .     S
C299   N382    1.351   .     A
C299   C399    1.425   .     S
C300   N381    1.351   .     A
C300   H344    1.078   .     S
C300   C498    1.425   1_455 S
C301   N381    1.394   .     A
C301   C327    1.519   .     S
C301   C495    1.425   1_455 S
C302   N382    1.394   .     A
C302   C331    1.519   .     S
C302   C398    1.425   .     S
C303   O389    1.300   .     A
C303   C305    1.452   .     S
C303   O387    1.296   .     A
C304   O388    1.296   .     A
C304   C307    1.452   .     S
C304   O390    1.300   .     A
C305   C312    1.387   .     A
C305   C310    1.400   .     A
C306   O384    1.285   .     A
C306   O386    1.291   .     A
C307   C313    1.387   .     A
C307   C311    1.400   .     A
C308   H378    1.084   .     S
C308   C310    1.396   .     A
C308   C316    1.407   .     A
C309   H379    1.083   .     S
C309   C318    1.407   .     A
C309   C311    1.396   .     A
C310   H377    1.083   .     S
C311   H376    1.083   .     S
C312   H372    1.075   .     S
C312   C314    1.385   .     A
C313   C315    1.385   .     A
C313   H361    1.075   .     S
C314   C316    1.412   .     A
C314   C319    1.414   .     A
C315   C320    1.414   .     A
C315   C318    1.412   .     A
C316   C1216   1.387   .     S
C317   C320    1.443   .     A
C317   C334    1.400   .     A
C317   C321    1.532   .     S
C318   C1217   1.387   1_554 S
C319   C328    1.443   .     A
C319   C1202   1.425   .     S
C320   C1201   1.425   1_554 S
C321   H351    1.113   .     S
C321   H352    1.100   .     S
C321   C322    1.535   .     S
C322   C323    1.527   .     S
C322   H349    1.112   .     S
C322   H348    1.109   .     S
C323   H347    1.109   .     S
C323   H345    1.111   .     S
C323   H346    1.110   .     S
C324   H358    1.100   .     S
C324   C325    1.535   .     S
C324   C328    1.532   .     S
C324   H359    1.113   .     S
C325   H356    1.112   .     S
C325   H357    1.109   .     S
C325   C326    1.527   .     S
C326   H355    1.109   .     S
C326   H354    1.111   .     S
C326   H353    1.110   .     S
C327   H366    1.098   .     S
C327   H367    1.109   .     S
C327   C329    1.541   .     S
C328   C335    1.400   .     A
C329   C330    1.527   .     S
C329   H364    1.112   .     S
C329   H365    1.112   .     S
C330   H360    1.111   .     S
C330   H363    1.110   .     S
C330   H362    1.111   .     S
C331   H375    1.098   .     S
C331   H374    1.109   .     S
C331   C332    1.541   .     S
C332   H373    1.112   .     S
C332   H371    1.112   .     S
C332   C333    1.527   .     S
C333   H368    1.111   .     S
C333   H369    1.111   .     S
C333   H370    1.110   .     S
C334   H339    1.085   .     S
C334   C1198   1.387   1_554 S
C335   H350    1.085   .     S
C335   C1200   1.387   .     S
C336   H380    1.083   .     S
C336   C632    1.371   .     S
C337   H340    1.083   .     S
C338   H341    1.084   .     S
N381   Zn391   2.025   .     S
N382   Zn392   2.025   .     S
O383   Zn391   1.984   .     S
O384   Zn392   1.984   .     S
O385   Zn392   2.000   .     S
O386   Zn391   2.000   .     S
O387   Zn391   1.958   .     S
O388   Zn392   1.958   .     S
O389   Zn392   1.904   .     S
O390   Zn391   1.904   .     S
C393   O483    1.291   .     A
C393   O481    1.285   .     A
C393   C396    1.415   .     S
C394   H440    1.084   .     S
C394   C396    1.399   .     A
C394   C729    1.371   .     S
C395   C435    1.394   .     A
C395   C404    1.415   .     S
C395   C436    1.399   .     A
C396   C434    1.394   .     A
C397   H441    1.078   .     S
C397   N480    1.351   .     A
C397   C497    1.425   .     S
C398   N479    1.351   .     A
C398   H442    1.078   .     S
C399   N479    1.394   .     A
C399   C425    1.519   .     S
C400   N480    1.394   .     A
C400   C429    1.519   .     S
C400   C496    1.425   .     S
C401   O487    1.300   .     A
C401   C403    1.452   .     S
C401   O485    1.296   .     A
C402   O486    1.296   .     A
C402   C405    1.452   .     S
C402   O488    1.300   .     A
C403   C410    1.387   .     A
C403   C408    1.400   .     A
C404   O482    1.285   .     A
C404   O484    1.291   .     A
C405   C411    1.387   .     A
C405   C409    1.400   .     A
C406   H476    1.084   .     S
C406   C408    1.396   .     A
C406   C414    1.407   .     A
C407   H477    1.083   .     S
C407   C416    1.407   .     A
C407   C409    1.396   .     A
C408   H475    1.083   .     S
C409   H474    1.083   .     S
C410   H470    1.075   .     S
C410   C412    1.385   .     A
C411   C413    1.385   .     A
C411   H459    1.075   .     S
C412   C414    1.412   .     A
C412   C417    1.414   .     A
C413   C418    1.414   .     A
C413   C416    1.412   .     A
C414   C1314   1.387   .     S
C415   C418    1.443   .     A
C415   C432    1.400   .     A
C415   C419    1.532   .     S
C416   C1315   1.387   1_554 S
C417   C426    1.443   .     A
C417   C1300   1.425   .     S
C418   C1299   1.425   1_554 S
C419   H449    1.113   .     S
C419   H450    1.100   .     S
C419   C420    1.535   .     S
C420   C421    1.527   .     S
C420   H447    1.112   .     S
C420   H446    1.109   .     S
C421   H445    1.109   .     S
C421   H443    1.111   .     S
C421   H444    1.110   .     S
C422   H456    1.100   .     S
C422   C423    1.535   .     S
C422   C426    1.532   .     S
C422   H457    1.113   .     S
C423   H454    1.112   .     S
C423   H455    1.109   .     S
C423   C424    1.527   .     S
C424   H453    1.109   .     S
C424   H452    1.111   .     S
C424   H451    1.110   .     S
C425   H464    1.098   .     S
C425   H465    1.109   .     S
C425   C427    1.541   .     S
C426   C433    1.400   .     A
C427   C428    1.527   .     S
C427   H462    1.112   .     S
C427   H463    1.112   .     S
C428   H458    1.111   .     S
C428   H461    1.110   .     S
C428   H460    1.111   .     S
C429   H473    1.098   .     S
C429   H472    1.109   .     S
C429   C430    1.541   .     S
C430   H471    1.112   .     S
C430   H469    1.112   .     S
C430   C431    1.527   .     S
C431   H466    1.111   .     S
C431   H467    1.111   .     S
C431   H468    1.110   .     S
C432   H437    1.085   .     S
C432   C1296   1.387   1_554 S
C433   H448    1.085   .     S
C433   C1298   1.387   .     S
C434   H478    1.083   .     S
C434   C730    1.371   .     S
C435   H438    1.083   .     S
C436   H439    1.084   .     S
N479   Zn489   2.025   .     S
N480   Zn490   2.025   .     S
O481   Zn489   1.984   .     S
O482   Zn490   1.984   .     S
O483   Zn490   2.000   .     S
O484   Zn489   2.000   .     S
O485   Zn489   1.958   .     S
O486   Zn490   1.958   .     S
O487   Zn490   1.904   .     S
O488   Zn489   1.904   .     S
C491   O581    1.291   .     A
C491   O579    1.285   .     A
C491   C494    1.415   .     S
C492   H538    1.084   .     S
C492   C494    1.399   .     A
C492   C827    1.371   .     S
C493   C533    1.394   .     A
C493   C502    1.415   .     S
C493   C534    1.399   .     A
C494   C532    1.394   .     A
C495   H539    1.078   .     S
C495   N578    1.351   .     A
C495   C301    1.425   1_655 S
C496   N577    1.351   .     A
C496   H540    1.078   .     S
C497   N577    1.394   .     A
C497   C523    1.519   .     S
C498   N578    1.394   .     A
C498   C527    1.519   .     S
C498   C300    1.425   1_655 S
C499   O585    1.300   .     A
C499   C501    1.452   .     S
C499   O583    1.296   .     A
C500   O584    1.296   .     A
C500   C503    1.452   .     S
C500   O586    1.300   .     A
C501   C508    1.387   .     A
C501   C506    1.400   .     A
C502   O580    1.285   .     A
C502   O582    1.291   .     A
C503   C509    1.387   .     A
C503   C507    1.400   .     A
C504   H574    1.084   .     S
C504   C506    1.396   .     A
C504   C512    1.407   .     A
C505   H575    1.083   .     S
C505   C514    1.407   .     A
C505   C507    1.396   .     A
C506   H573    1.083   .     S
C507   H572    1.083   .     S
C508   H568    1.075   .     S
C508   C510    1.385   .     A
C509   C511    1.385   .     A
C509   H557    1.075   .     S
C510   C512    1.412   .     A
C510   C515    1.414   .     A
C511   C516    1.414   .     A
C511   C514    1.412   .     A
C512   C1412   1.387   .     S
C513   C516    1.443   .     A
C513   C530    1.400   .     A
C513   C517    1.532   .     S
C514   C1413   1.387   1_554 S
C515   C524    1.443   .     A
C515   C1398   1.425   .     S
C516   C1397   1.425   1_554 S
C517   H547    1.113   .     S
C517   H548    1.100   .     S
C517   C518    1.535   .     S
C518   C519    1.527   .     S
C518   H545    1.112   .     S
C518   H544    1.109   .     S
C519   H543    1.109   .     S
C519   H541    1.111   .     S
C519   H542    1.110   .     S
C520   H554    1.100   .     S
C520   C521    1.535   .     S
C520   C524    1.532   .     S
C520   H555    1.113   .     S
C521   H552    1.112   .     S
C521   H553    1.109   .     S
C521   C522    1.527   .     S
C522   H551    1.109   .     S
C522   H550    1.111   .     S
C522   H549    1.110   .     S
C523   H562    1.098   .     S
C523   H563    1.109   .     S
C523   C525    1.541   .     S
C524   C531    1.400   .     A
C525   C526    1.527   .     S
C525   H560    1.112   .     S
C525   H561    1.112   .     S
C526   H556    1.111   .     S
C526   H559    1.110   .     S
C526   H558    1.111   .     S
C527   H571    1.098   .     S
C527   H570    1.109   .     S
C527   C528    1.541   .     S
C528   H569    1.112   .     S
C528   H567    1.112   .     S
C528   C529    1.527   .     S
C529   H564    1.111   .     S
C529   H565    1.111   .     S
C529   H566    1.110   .     S
C530   H535    1.085   .     S
C530   C1394   1.387   1_554 S
C531   H546    1.085   .     S
C531   C1396   1.387   .     S
C532   H576    1.083   .     S
C532   C828    1.371   .     S
C533   H536    1.083   .     S
C534   H537    1.084   .     S
N577   Zn587   2.025   .     S
N578   Zn588   2.025   .     S
O579   Zn587   1.984   .     S
O580   Zn588   1.984   .     S
O581   Zn588   2.000   .     S
O582   Zn587   2.000   .     S
O583   Zn587   1.958   .     S
O584   Zn588   1.958   .     S
O585   Zn588   1.904   .     S
O586   Zn587   1.904   .     S
C589   O679    1.291   .     A
C589   O677    1.285   .     A
C589   C592    1.415   .     S
C590   H636    1.084   .     S
C590   C592    1.399   .     A
C590   C43     1.371   1_565 S
C591   C631    1.394   .     A
C591   C600    1.415   .     S
C591   C632    1.399   .     A
C592   C630    1.394   .     A
C593   H637    1.078   .     S
C593   N676    1.351   .     A
C593   C693    1.425   .     S
C594   N675    1.351   .     A
C594   H638    1.078   .     S
C594   C792    1.425   1_455 S
C595   N675    1.394   .     A
C595   C621    1.519   .     S
C595   C789    1.425   1_455 S
C596   N676    1.394   .     A
C596   C625    1.519   .     S
C596   C692    1.425   .     S
C597   O683    1.300   .     A
C597   C599    1.452   .     S
C597   O681    1.296   .     A
C598   O682    1.296   .     A
C598   C601    1.452   .     S
C598   O684    1.300   .     A
C599   C606    1.387   .     A
C599   C604    1.400   .     A
C600   O678    1.285   .     A
C600   O680    1.291   .     A
C601   C607    1.387   .     A
C601   C605    1.400   .     A
C602   H672    1.084   .     S
C602   C604    1.396   .     A
C602   C610    1.407   .     A
C603   H673    1.083   .     S
C603   C612    1.407   .     A
C603   C605    1.396   .     A
C604   H671    1.083   .     S
C605   H670    1.083   .     S
C606   H666    1.075   .     S
C606   C608    1.385   .     A
C607   C609    1.385   .     A
C607   H655    1.075   .     S
C608   C610    1.412   .     A
C608   C613    1.414   .     A
C609   C614    1.414   .     A
C609   C612    1.412   .     A
C610   C1510   1.387   .     S
C611   C614    1.443   .     A
C611   C628    1.400   .     A
C611   C615    1.532   .     S
C612   C1511   1.387   1_554 S
C613   C622    1.443   .     A
C613   C1496   1.425   .     S
C614   C1495   1.425   1_554 S
C615   H645    1.113   .     S
C615   H646    1.100   .     S
C615   C616    1.535   .     S
C616   C617    1.527   .     S
C616   H643    1.112   .     S
C616   H642    1.109   .     S
C617   H641    1.109   .     S
C617   H639    1.111   .     S
C617   H640    1.110   .     S
C618   H652    1.100   .     S
C618   C619    1.535   .     S
C618   C622    1.532   .     S
C618   H653    1.113   .     S
C619   H650    1.112   .     S
C619   H651    1.109   .     S
C619   C620    1.527   .     S
C620   H649    1.109   .     S
C620   H648    1.111   .     S
C620   H647    1.110   .     S
C621   H660    1.098   .     S
C621   H661    1.109   .     S
C621   C623    1.541   .     S
C622   C629    1.400   .     A
C623   C624    1.527   .     S
C623   H658    1.112   .     S
C623   H659    1.112   .     S
C624   H654    1.111   .     S
C624   H657    1.110   .     S
C624   H656    1.111   .     S
C625   H669    1.098   .     S
C625   H668    1.109   .     S
C625   C626    1.541   .     S
C626   H667    1.112   .     S
C626   H665    1.112   .     S
C626   C627    1.527   .     S
C627   H662    1.111   .     S
C627   H663    1.111   .     S
C627   H664    1.110   .     S
C628   H633    1.085   .     S
C628   C1492   1.387   1_554 S
C629   H644    1.085   .     S
C629   C1494   1.387   .     S
C630   H674    1.083   .     S
C630   C44     1.371   1_565 S
C631   H634    1.083   .     S
C632   H635    1.084   .     S
N675   Zn685   2.025   .     S
N676   Zn686   2.025   .     S
O677   Zn685   1.984   .     S
O678   Zn686   1.984   .     S
O679   Zn686   2.000   .     S
O680   Zn685   2.000   .     S
O681   Zn685   1.958   .     S
O682   Zn686   1.958   .     S
O683   Zn686   1.904   .     S
O684   Zn685   1.904   .     S
C687   O777    1.291   .     A
C687   O775    1.285   .     A
C687   C690    1.415   .     S
C688   H734    1.084   .     S
C688   C690    1.399   .     A
C688   C141    1.371   1_565 S
C689   C729    1.394   .     A
C689   C698    1.415   .     S
C689   C730    1.399   .     A
C690   C728    1.394   .     A
C691   H735    1.078   .     S
C691   N774    1.351   .     A
C691   C791    1.425   .     S
C692   N773    1.351   .     A
C692   H736    1.078   .     S
C693   N773    1.394   .     A
C693   C719    1.519   .     S
C694   N774    1.394   .     A
C694   C723    1.519   .     S
C694   C790    1.425   .     S
C695   O781    1.300   .     A
C695   C697    1.452   .     S
C695   O779    1.296   .     A
C696   O780    1.296   .     A
C696   C699    1.452   .     S
C696   O782    1.300   .     A
C697   C704    1.387   .     A
C697   C702    1.400   .     A
C698   O776    1.285   .     A
C698   O778    1.291   .     A
C699   C705    1.387   .     A
C699   C703    1.400   .     A
C700   H770    1.084   .     S
C700   C702    1.396   .     A
C700   C708    1.407   .     A
C701   H771    1.083   .     S
C701   C710    1.407   .     A
C701   C703    1.396   .     A
C702   H769    1.083   .     S
C703   H768    1.083   .     S
C704   H764    1.075   .     S
C704   C706    1.385   .     A
C705   C707    1.385   .     A
C705   H753    1.075   .     S
C706   C708    1.412   .     A
C706   C711    1.414   .     A
C707   C712    1.414   .     A
C707   C710    1.412   .     A
C708   C1608   1.387   .     S
C709   C712    1.443   .     A
C709   C726    1.400   .     A
C709   C713    1.532   .     S
C710   C1609   1.387   1_554 S
C711   C720    1.443   .     A
C711   C1594   1.425   .     S
C712   C1593   1.425   1_554 S
C713   H743    1.113   .     S
C713   H744    1.100   .     S
C713   C714    1.535   .     S
C714   C715    1.527   .     S
C714   H741    1.112   .     S
C714   H740    1.109   .     S
C715   H739    1.109   .     S
C715   H737    1.111   .     S
C715   H738    1.110   .     S
C716   H750    1.100   .     S
C716   C717    1.535   .     S
C716   C720    1.532   .     S
C716   H751    1.113   .     S
C717   H748    1.112   .     S
C717   H749    1.109   .     S
C717   C718    1.527   .     S
C718   H747    1.109   .     S
C718   H746    1.111   .     S
C718   H745    1.110   .     S
C719   H758    1.098   .     S
C719   H759    1.109   .     S
C719   C721    1.541   .     S
C720   C727    1.400   .     A
C721   C722    1.527   .     S
C721   H756    1.112   .     S
C721   H757    1.112   .     S
C722   H752    1.111   .     S
C722   H755    1.110   .     S
C722   H754    1.111   .     S
C723   H767    1.098   .     S
C723   H766    1.109   .     S
C723   C724    1.541   .     S
C724   H765    1.112   .     S
C724   H763    1.112   .     S
C724   C725    1.527   .     S
C725   H760    1.111   .     S
C725   H761    1.111   .     S
C725   H762    1.110   .     S
C726   H731    1.085   .     S
C726   C1590   1.387   1_554 S
C727   H742    1.085   .     S
C727   C1592   1.387   .     S
C728   H772    1.083   .     S
C728   C142    1.371   1_565 S
C729   H732    1.083   .     S
C730   H733    1.084   .     S
N773   Zn783   2.025   .     S
N774   Zn784   2.025   .     S
O775   Zn783   1.984   .     S
O776   Zn784   1.984   .     S
O777   Zn784   2.000   .     S
O778   Zn783   2.000   .     S
O779   Zn783   1.958   .     S
O780   Zn784   1.958   .     S
O781   Zn784   1.904   .     S
O782   Zn783   1.904   .     S
C785   O875    1.291   .     A
C785   O873    1.285   .     A
C785   C788    1.415   .     S
C786   H832    1.084   .     S
C786   C788    1.399   .     A
C786   C239    1.371   1_565 S
C787   C827    1.394   .     A
C787   C796    1.415   .     S
C787   C828    1.399   .     A
C788   C826    1.394   .     A
C789   H833    1.078   .     S
C789   N872    1.351   .     A
C789   C595    1.425   1_655 S
C790   N871    1.351   .     A
C790   H834    1.078   .     S
C791   N871    1.394   .     A
C791   C817    1.519   .     S
C792   N872    1.394   .     A
C792   C821    1.519   .     S
C792   C594    1.425   1_655 S
C793   O879    1.300   .     A
C793   C795    1.452   .     S
C793   O877    1.296   .     A
C794   O878    1.296   .     A
C794   C797    1.452   .     S
C794   O880    1.300   .     A
C795   C802    1.387   .     A
C795   C800    1.400   .     A
C796   O874    1.285   .     A
C796   O876    1.291   .     A
C797   C803    1.387   .     A
C797   C801    1.400   .     A
C798   H868    1.084   .     S
C798   C800    1.396   .     A
C798   C806    1.407   .     A
C799   H869    1.083   .     S
C799   C808    1.407   .     A
C799   C801    1.396   .     A
C800   H867    1.083   .     S
C801   H866    1.083   .     S
C802   H862    1.075   .     S
C802   C804    1.385   .     A
C803   C805    1.385   .     A
C803   H851    1.075   .     S
C804   C806    1.412   .     A
C804   C809    1.414   .     A
C805   C810    1.414   .     A
C805   C808    1.412   .     A
C806   C1706   1.387   .     S
C807   C810    1.443   .     A
C807   C824    1.400   .     A
C807   C811    1.532   .     S
C808   C1707   1.387   1_554 S
C809   C818    1.443   .     A
C809   C1692   1.425   .     S
C810   C1691   1.425   1_554 S
C811   H841    1.113   .     S
C811   H842    1.100   .     S
C811   C812    1.535   .     S
C812   C813    1.527   .     S
C812   H839    1.112   .     S
C812   H838    1.109   .     S
C813   H837    1.109   .     S
C813   H835    1.111   .     S
C813   H836    1.110   .     S
C814   H848    1.100   .     S
C814   C815    1.535   .     S
C814   C818    1.532   .     S
C814   H849    1.113   .     S
C815   H846    1.112   .     S
C815   H847    1.109   .     S
C815   C816    1.527   .     S
C816   H845    1.109   .     S
C816   H844    1.111   .     S
C816   H843    1.110   .     S
C817   H856    1.098   .     S
C817   H857    1.109   .     S
C817   C819    1.541   .     S
C818   C825    1.400   .     A
C819   C820    1.527   .     S
C819   H854    1.112   .     S
C819   H855    1.112   .     S
C820   H850    1.111   .     S
C820   H853    1.110   .     S
C820   H852    1.111   .     S
C821   H865    1.098   .     S
C821   H864    1.109   .     S
C821   C822    1.541   .     S
C822   H863    1.112   .     S
C822   H861    1.112   .     S
C822   C823    1.527   .     S
C823   H858    1.111   .     S
C823   H859    1.111   .     S
C823   H860    1.110   .     S
C824   H829    1.085   .     S
C824   C1688   1.387   1_554 S
C825   H840    1.085   .     S
C825   C1690   1.387   .     S
C826   H870    1.083   .     S
C826   C240    1.371   1_565 S
C827   H830    1.083   .     S
C828   H831    1.084   .     S
N871   Zn881   2.025   .     S
N872   Zn882   2.025   .     S
O873   Zn881   1.984   .     S
O874   Zn882   1.984   .     S
O875   Zn882   2.000   .     S
O876   Zn881   2.000   .     S
O877   Zn881   1.958   .     S
O878   Zn882   1.958   .     S
O879   Zn882   1.904   .     S
O880   Zn881   1.904   .     S
C883   O973    1.291   .     A
C883   O971    1.285   .     A
C883   C886    1.415   .     S
C884   H930    1.084   .     S
C884   C886    1.399   .     A
C884   C1219   1.371   .     S
C885   C925    1.394   .     A
C885   C894    1.415   .     S
C885   C926    1.399   .     A
C886   C924    1.394   .     A
C887   H931    1.078   .     S
C887   N970    1.351   .     A
C887   C987    1.425   .     S
C888   N969    1.351   .     A
C888   H932    1.078   .     S
C888   C1086   1.425   1_455 S
C889   N969    1.394   .     A
C889   C915    1.519   .     S
C889   C1083   1.425   1_455 S
C890   N970    1.394   .     A
C890   C919    1.519   .     S
C890   C986    1.425   .     S
C891   O977    1.300   .     A
C891   C893    1.452   .     S
C891   O975    1.296   .     A
C892   O976    1.296   .     A
C892   C895    1.452   .     S
C892   O978    1.300   .     A
C893   C900    1.387   .     A
C893   C898    1.400   .     A
C894   O972    1.285   .     A
C894   O974    1.291   .     A
C895   C901    1.387   .     A
C895   C899    1.400   .     A
C896   H966    1.084   .     S
C896   C898    1.396   .     A
C896   C904    1.407   .     A
C897   H967    1.083   .     S
C897   C906    1.407   .     A
C897   C899    1.396   .     A
C898   H965    1.083   .     S
C899   H964    1.083   .     S
C900   H960    1.075   .     S
C900   C902    1.385   .     A
C901   C903    1.385   .     A
C901   H949    1.075   .     S
C902   C904    1.412   .     A
C902   C907    1.414   .     A
C903   C908    1.414   .     A
C903   C906    1.412   .     A
C904   C40     1.387   1_556 S
C905   C908    1.443   .     A
C905   C922    1.400   .     A
C905   C909    1.532   .     S
C907   C916    1.443   .     A
C907   C26     1.425   1_556 S
C909   H939    1.113   .     S
C909   H940    1.100   .     S
C909   C910    1.535   .     S
C910   C911    1.527   .     S
C910   H937    1.112   .     S
C910   H936    1.109   .     S
C911   H935    1.109   .     S
C911   H933    1.111   .     S
C911   H934    1.110   .     S
C912   H946    1.100   .     S
C912   C913    1.535   .     S
C912   C916    1.532   .     S
C912   H947    1.113   .     S
C913   H944    1.112   .     S
C913   H945    1.109   .     S
C913   C914    1.527   .     S
C914   H943    1.109   .     S
C914   H942    1.111   .     S
C914   H941    1.110   .     S
C915   H954    1.098   .     S
C915   H955    1.109   .     S
C915   C917    1.541   .     S
C916   C923    1.400   .     A
C917   C918    1.527   .     S
C917   H952    1.112   .     S
C917   H953    1.112   .     S
C918   H948    1.111   .     S
C918   H951    1.110   .     S
C918   H950    1.111   .     S
C919   H963    1.098   .     S
C919   H962    1.109   .     S
C919   C920    1.541   .     S
C920   H961    1.112   .     S
C920   H959    1.112   .     S
C920   C921    1.527   .     S
C921   H956    1.111   .     S
C921   H957    1.111   .     S
C921   H958    1.110   .     S
C922   H927    1.085   .     S
C923   H938    1.085   .     S
C923   C24     1.387   1_556 S
C924   H968    1.083   .     S
C924   C1220   1.371   .     S
C925   H928    1.083   .     S
C925   C1472   1.371   1_545 S
C926   H929    1.084   .     S
C926   C1512   1.371   1_545 S
N969   Zn979   2.025   .     S
N970   Zn980   2.025   .     S
O971   Zn979   1.984   .     S
O972   Zn980   1.984   .     S
O973   Zn980   2.000   .     S
O974   Zn979   2.000   .     S
O975   Zn979   1.958   .     S
O976   Zn980   1.958   .     S
O977   Zn980   1.904   .     S
O978   Zn979   1.904   .     S
C981   O1071   1.291   .     A
C981   O1069   1.285   .     A
C981   C984    1.415   .     S
C982   H1028   1.084   .     S
C982   C984    1.399   .     A
C982   C1317   1.371   .     S
C983   C1023   1.394   .     A
C983   C992    1.415   .     S
C983   C1024   1.399   .     A
C984   C1022   1.394   .     A
C985   H1029   1.078   .     S
C985   N1068   1.351   .     A
C985   C1085   1.425   .     S
C986   N1067   1.351   .     A
C986   H1030   1.078   .     S
C987   N1067   1.394   .     A
C987   C1013   1.519   .     S
C988   N1068   1.394   .     A
C988   C1017   1.519   .     S
C988   C1084   1.425   .     S
C989   O1075   1.300   .     A
C989   C991    1.452   .     S
C989   O1073   1.296   .     A
C990   O1074   1.296   .     A
C990   C993    1.452   .     S
C990   O1076   1.300   .     A
C991   C998    1.387   .     A
C991   C996    1.400   .     A
C992   O1070   1.285   .     A
C992   O1072   1.291   .     A
C993   C999    1.387   .     A
C993   C997    1.400   .     A
C994   H1064   1.084   .     S
C994   C996    1.396   .     A
C994   C1002   1.407   .     A
C995   H1065   1.083   .     S
C995   C1004   1.407   .     A
C995   C997    1.396   .     A
C996   H1063   1.083   .     S
C997   H1062   1.083   .     S
C998   H1058   1.075   .     S
C998   C1000   1.385   .     A
C999   C1001   1.385   .     A
C999   H1047   1.075   .     S
C1000  C1002   1.412   .     A
C1000  C1005   1.414   .     A
C1001  C1006   1.414   .     A
C1001  C1004   1.412   .     A
C1002  C138    1.387   1_556 S
C1003  C1006   1.443   .     A
C1003  C1020   1.400   .     A
C1003  C1007   1.532   .     S
C1005  C1014   1.443   .     A
C1005  C124    1.425   1_556 S
C1007  H1037   1.113   .     S
C1007  H1038   1.100   .     S
C1007  C1008   1.535   .     S
C1008  C1009   1.527   .     S
C1008  H1035   1.112   .     S
C1008  H1034   1.109   .     S
C1009  H1033   1.109   .     S
C1009  H1031   1.111   .     S
C1009  H1032   1.110   .     S
C1010  H1044   1.100   .     S
C1010  C1011   1.535   .     S
C1010  C1014   1.532   .     S
C1010  H1045   1.113   .     S
C1011  H1042   1.112   .     S
C1011  H1043   1.109   .     S
C1011  C1012   1.527   .     S
C1012  H1041   1.109   .     S
C1012  H1040   1.111   .     S
C1012  H1039   1.110   .     S
C1013  H1052   1.098   .     S
C1013  H1053   1.109   .     S
C1013  C1015   1.541   .     S
C1014  C1021   1.400   .     A
C1015  C1016   1.527   .     S
C1015  H1050   1.112   .     S
C1015  H1051   1.112   .     S
C1016  H1046   1.111   .     S
C1016  H1049   1.110   .     S
C1016  H1048   1.111   .     S
C1017  H1061   1.098   .     S
C1017  H1060   1.109   .     S
C1017  C1018   1.541   .     S
C1018  H1059   1.112   .     S
C1018  H1057   1.112   .     S
C1018  C1019   1.527   .     S
C1019  H1054   1.111   .     S
C1019  H1055   1.111   .     S
C1019  H1056   1.110   .     S
C1020  H1025   1.085   .     S
C1021  H1036   1.085   .     S
C1021  C122    1.387   1_556 S
C1022  H1066   1.083   .     S
C1022  C1318   1.371   .     S
C1023  H1026   1.083   .     S
C1023  C1570   1.371   1_545 S
C1024  H1027   1.084   .     S
C1024  C1610   1.371   1_545 S
N1067  Zn1077  2.025   .     S
N1068  Zn1078  2.025   .     S
O1069  Zn1077  1.984   .     S
O1070  Zn1078  1.984   .     S
O1071  Zn1078  2.000   .     S
O1072  Zn1077  2.000   .     S
O1073  Zn1077  1.958   .     S
O1074  Zn1078  1.958   .     S
O1075  Zn1078  1.904   .     S
O1076  Zn1077  1.904   .     S
C1079  O1169   1.291   .     A
C1079  O1167   1.285   .     A
C1079  C1082   1.415   .     S
C1080  H1126   1.084   .     S
C1080  C1082   1.399   .     A
C1080  C1415   1.371   .     S
C1081  C1121   1.394   .     A
C1081  C1090   1.415   .     S
C1081  C1122   1.399   .     A
C1082  C1120   1.394   .     A
C1083  H1127   1.078   .     S
C1083  N1166   1.351   .     A
C1083  C889    1.425   1_655 S
C1084  N1165   1.351   .     A
C1084  H1128   1.078   .     S
C1085  N1165   1.394   .     A
C1085  C1111   1.519   .     S
C1086  N1166   1.394   .     A
C1086  C1115   1.519   .     S
C1086  C888    1.425   1_655 S
C1087  O1173   1.300   .     A
C1087  C1089   1.452   .     S
C1087  O1171   1.296   .     A
C1088  O1172   1.296   .     A
C1088  C1091   1.452   .     S
C1088  O1174   1.300   .     A
C1089  C1096   1.387   .     A
C1089  C1094   1.400   .     A
C1090  O1168   1.285   .     A
C1090  O1170   1.291   .     A
C1091  C1097   1.387   .     A
C1091  C1095   1.400   .     A
C1092  H1162   1.084   .     S
C1092  C1094   1.396   .     A
C1092  C1100   1.407   .     A
C1093  H1163   1.083   .     S
C1093  C1102   1.407   .     A
C1093  C1095   1.396   .     A
C1094  H1161   1.083   .     S
C1095  H1160   1.083   .     S
C1096  H1156   1.075   .     S
C1096  C1098   1.385   .     A
C1097  C1099   1.385   .     A
C1097  H1145   1.075   .     S
C1098  C1100   1.412   .     A
C1098  C1103   1.414   .     A
C1099  C1104   1.414   .     A
C1099  C1102   1.412   .     A
C1100  C236    1.387   1_556 S
C1101  C1104   1.443   .     A
C1101  C1118   1.400   .     A
C1101  C1105   1.532   .     S
C1103  C1112   1.443   .     A
C1103  C222    1.425   1_556 S
C1105  H1135   1.113   .     S
C1105  H1136   1.100   .     S
C1105  C1106   1.535   .     S
C1106  C1107   1.527   .     S
C1106  H1133   1.112   .     S
C1106  H1132   1.109   .     S
C1107  H1131   1.109   .     S
C1107  H1129   1.111   .     S
C1107  H1130   1.110   .     S
C1108  H1142   1.100   .     S
C1108  C1109   1.535   .     S
C1108  C1112   1.532   .     S
C1108  H1143   1.113   .     S
C1109  H1140   1.112   .     S
C1109  H1141   1.109   .     S
C1109  C1110   1.527   .     S
C1110  H1139   1.109   .     S
C1110  H1138   1.111   .     S
C1110  H1137   1.110   .     S
C1111  H1150   1.098   .     S
C1111  H1151   1.109   .     S
C1111  C1113   1.541   .     S
C1112  C1119   1.400   .     A
C1113  C1114   1.527   .     S
C1113  H1148   1.112   .     S
C1113  H1149   1.112   .     S
C1114  H1144   1.111   .     S
C1114  H1147   1.110   .     S
C1114  H1146   1.111   .     S
C1115  H1159   1.098   .     S
C1115  H1158   1.109   .     S
C1115  C1116   1.541   .     S
C1116  H1157   1.112   .     S
C1116  H1155   1.112   .     S
C1116  C1117   1.527   .     S
C1117  H1152   1.111   .     S
C1117  H1153   1.111   .     S
C1117  H1154   1.110   .     S
C1118  H1123   1.085   .     S
C1119  H1134   1.085   .     S
C1119  C220    1.387   1_556 S
C1120  H1164   1.083   .     S
C1120  C1416   1.371   .     S
C1121  H1124   1.083   .     S
C1121  C1668   1.371   1_545 S
C1122  H1125   1.084   .     S
C1122  C1708   1.371   1_545 S
N1165  Zn1175  2.025   .     S
N1166  Zn1176  2.025   .     S
O1167  Zn1175  1.984   .     S
O1168  Zn1176  1.984   .     S
O1169  Zn1176  2.000   .     S
O1170  Zn1175  2.000   .     S
O1171  Zn1175  1.958   .     S
O1172  Zn1176  1.958   .     S
O1173  Zn1176  1.904   .     S
O1174  Zn1175  1.904   .     S
C1177  O1267   1.291   .     A
C1177  O1265   1.285   .     A
C1177  C1180   1.415   .     S
C1178  H1224   1.084   .     S
C1178  C1180   1.399   .     A
C1178  C1513   1.371   .     S
C1179  C1219   1.394   .     A
C1179  C1188   1.415   .     S
C1179  C1220   1.399   .     A
C1180  C1218   1.394   .     A
C1181  H1225   1.078   .     S
C1181  N1264   1.351   .     A
C1181  C1281   1.425   .     S
C1182  N1263   1.351   .     A
C1182  H1226   1.078   .     S
C1182  C1380   1.425   1_455 S
C1183  N1263   1.394   .     A
C1183  C1209   1.519   .     S
C1183  C1377   1.425   1_455 S
C1184  N1264   1.394   .     A
C1184  C1213   1.519   .     S
C1184  C1280   1.425   .     S
C1185  O1271   1.300   .     A
C1185  C1187   1.452   .     S
C1185  O1269   1.296   .     A
C1186  O1270   1.296   .     A
C1186  C1189   1.452   .     S
C1186  O1272   1.300   .     A
C1187  C1194   1.387   .     A
C1187  C1192   1.400   .     A
C1188  O1266   1.285   .     A
C1188  O1268   1.291   .     A
C1189  C1195   1.387   .     A
C1189  C1193   1.400   .     A
C1190  H1260   1.084   .     S
C1190  C1192   1.396   .     A
C1190  C1198   1.407   .     A
C1191  H1261   1.083   .     S
C1191  C1200   1.407   .     A
C1191  C1193   1.396   .     A
C1192  H1259   1.083   .     S
C1193  H1258   1.083   .     S
C1194  H1254   1.075   .     S
C1194  C1196   1.385   .     A
C1195  C1197   1.385   .     A
C1195  H1243   1.075   .     S
C1196  C1198   1.412   .     A
C1196  C1201   1.414   .     A
C1197  C1202   1.414   .     A
C1197  C1200   1.412   .     A
C1198  C334    1.387   1_556 S
C1199  C1202   1.443   .     A
C1199  C1216   1.400   .     A
C1199  C1203   1.532   .     S
C1201  C1210   1.443   .     A
C1201  C320    1.425   1_556 S
C1203  H1233   1.113   .     S
C1203  H1234   1.100   .     S
C1203  C1204   1.535   .     S
C1204  C1205   1.527   .     S
C1204  H1231   1.112   .     S
C1204  H1230   1.109   .     S
C1205  H1229   1.109   .     S
C1205  H1227   1.111   .     S
C1205  H1228   1.110   .     S
C1206  H1240   1.100   .     S
C1206  C1207   1.535   .     S
C1206  C1210   1.532   .     S
C1206  H1241   1.113   .     S
C1207  H1238   1.112   .     S
C1207  H1239   1.109   .     S
C1207  C1208   1.527   .     S
C1208  H1237   1.109   .     S
C1208  H1236   1.111   .     S
C1208  H1235   1.110   .     S
C1209  H1248   1.098   .     S
C1209  H1249   1.109   .     S
C1209  C1211   1.541   .     S
C1210  C1217   1.400   .     A
C1211  C1212   1.527   .     S
C1211  H1246   1.112   .     S
C1211  H1247   1.112   .     S
C1212  H1242   1.111   .     S
C1212  H1245   1.110   .     S
C1212  H1244   1.111   .     S
C1213  H1257   1.098   .     S
C1213  H1256   1.109   .     S
C1213  C1214   1.541   .     S
C1214  H1255   1.112   .     S
C1214  H1253   1.112   .     S
C1214  C1215   1.527   .     S
C1215  H1250   1.111   .     S
C1215  H1251   1.111   .     S
C1215  H1252   1.110   .     S
C1216  H1221   1.085   .     S
C1217  H1232   1.085   .     S
C1217  C318    1.387   1_556 S
C1218  H1262   1.083   .     S
C1218  C1514   1.371   .     S
C1219  H1222   1.083   .     S
C1220  H1223   1.084   .     S
N1263  Zn1273  2.025   .     S
N1264  Zn1274  2.025   .     S
O1265  Zn1273  1.984   .     S
O1266  Zn1274  1.984   .     S
O1267  Zn1274  2.000   .     S
O1268  Zn1273  2.000   .     S
O1269  Zn1273  1.958   .     S
O1270  Zn1274  1.958   .     S
O1271  Zn1274  1.904   .     S
O1272  Zn1273  1.904   .     S
C1275  O1365   1.291   .     A
C1275  O1363   1.285   .     A
C1275  C1278   1.415   .     S
C1276  H1322   1.084   .     S
C1276  C1278   1.399   .     A
C1276  C1611   1.371   .     S
C1277  C1317   1.394   .     A
C1277  C1286   1.415   .     S
C1277  C1318   1.399   .     A
C1278  C1316   1.394   .     A
C1279  H1323   1.078   .     S
C1279  N1362   1.351   .     A
C1279  C1379   1.425   .     S
C1280  N1361   1.351   .     A
C1280  H1324   1.078   .     S
C1281  N1361   1.394   .     A
C1281  C1307   1.519   .     S
C1282  N1362   1.394   .     A
C1282  C1311   1.519   .     S
C1282  C1378   1.425   .     S
C1283  O1369   1.300   .     A
C1283  C1285   1.452   .     S
C1283  O1367   1.296   .     A
C1284  O1368   1.296   .     A
C1284  C1287   1.452   .     S
C1284  O1370   1.300   .     A
C1285  C1292   1.387   .     A
C1285  C1290   1.400   .     A
C1286  O1364   1.285   .     A
C1286  O1366   1.291   .     A
C1287  C1293   1.387   .     A
C1287  C1291   1.400   .     A
C1288  H1358   1.084   .     S
C1288  C1290   1.396   .     A
C1288  C1296   1.407   .     A
C1289  H1359   1.083   .     S
C1289  C1298   1.407   .     A
C1289  C1291   1.396   .     A
C1290  H1357   1.083   .     S
C1291  H1356   1.083   .     S
C1292  H1352   1.075   .     S
C1292  C1294   1.385   .     A
C1293  C1295   1.385   .     A
C1293  H1341   1.075   .     S
C1294  C1296   1.412   .     A
C1294  C1299   1.414   .     A
C1295  C1300   1.414   .     A
C1295  C1298   1.412   .     A
C1296  C432    1.387   1_556 S
C1297  C1300   1.443   .     A
C1297  C1314   1.400   .     A
C1297  C1301   1.532   .     S
C1299  C1308   1.443   .     A
C1299  C418    1.425   1_556 S
C1301  H1331   1.113   .     S
C1301  H1332   1.100   .     S
C1301  C1302   1.535   .     S
C1302  C1303   1.527   .     S
C1302  H1329   1.112   .     S
C1302  H1328   1.109   .     S
C1303  H1327   1.109   .     S
C1303  H1325   1.111   .     S
C1303  H1326   1.110   .     S
C1304  H1338   1.100   .     S
C1304  C1305   1.535   .     S
C1304  C1308   1.532   .     S
C1304  H1339   1.113   .     S
C1305  H1336   1.112   .     S
C1305  H1337   1.109   .     S
C1305  C1306   1.527   .     S
C1306  H1335   1.109   .     S
C1306  H1334   1.111   .     S
C1306  H1333   1.110   .     S
C1307  H1346   1.098   .     S
C1307  H1347   1.109   .     S
C1307  C1309   1.541   .     S
C1308  C1315   1.400   .     A
C1309  C1310   1.527   .     S
C1309  H1344   1.112   .     S
C1309  H1345   1.112   .     S
C1310  H1340   1.111   .     S
C1310  H1343   1.110   .     S
C1310  H1342   1.111   .     S
C1311  H1355   1.098   .     S
C1311  H1354   1.109   .     S
C1311  C1312   1.541   .     S
C1312  H1353   1.112   .     S
C1312  H1351   1.112   .     S
C1312  C1313   1.527   .     S
C1313  H1348   1.111   .     S
C1313  H1349   1.111   .     S
C1313  H1350   1.110   .     S
C1314  H1319   1.085   .     S
C1315  H1330   1.085   .     S
C1315  C416    1.387   1_556 S
C1316  H1360   1.083   .     S
C1316  C1612   1.371   .     S
C1317  H1320   1.083   .     S
C1318  H1321   1.084   .     S
N1361  Zn1371  2.025   .     S
N1362  Zn1372  2.025   .     S
O1363  Zn1371  1.984   .     S
O1364  Zn1372  1.984   .     S
O1365  Zn1372  2.000   .     S
O1366  Zn1371  2.000   .     S
O1367  Zn1371  1.958   .     S
O1368  Zn1372  1.958   .     S
O1369  Zn1372  1.904   .     S
O1370  Zn1371  1.904   .     S
C1373  O1463   1.291   .     A
C1373  O1461   1.285   .     A
C1373  C1376   1.415   .     S
C1374  H1420   1.084   .     S
C1374  C1376   1.399   .     A
C1374  C1709   1.371   .     S
C1375  C1415   1.394   .     A
C1375  C1384   1.415   .     S
C1375  C1416   1.399   .     A
C1376  C1414   1.394   .     A
C1377  H1421   1.078   .     S
C1377  N1460   1.351   .     A
C1377  C1183   1.425   1_655 S
C1378  N1459   1.351   .     A
C1378  H1422   1.078   .     S
C1379  N1459   1.394   .     A
C1379  C1405   1.519   .     S
C1380  N1460   1.394   .     A
C1380  C1409   1.519   .     S
C1380  C1182   1.425   1_655 S
C1381  O1467   1.300   .     A
C1381  C1383   1.452   .     S
C1381  O1465   1.296   .     A
C1382  O1466   1.296   .     A
C1382  C1385   1.452   .     S
C1382  O1468   1.300   .     A
C1383  C1390   1.387   .     A
C1383  C1388   1.400   .     A
C1384  O1462   1.285   .     A
C1384  O1464   1.291   .     A
C1385  C1391   1.387   .     A
C1385  C1389   1.400   .     A
C1386  H1456   1.084   .     S
C1386  C1388   1.396   .     A
C1386  C1394   1.407   .     A
C1387  H1457   1.083   .     S
C1387  C1396   1.407   .     A
C1387  C1389   1.396   .     A
C1388  H1455   1.083   .     S
C1389  H1454   1.083   .     S
C1390  H1450   1.075   .     S
C1390  C1392   1.385   .     A
C1391  C1393   1.385   .     A
C1391  H1439   1.075   .     S
C1392  C1394   1.412   .     A
C1392  C1397   1.414   .     A
C1393  C1398   1.414   .     A
C1393  C1396   1.412   .     A
C1394  C530    1.387   1_556 S
C1395  C1398   1.443   .     A
C1395  C1412   1.400   .     A
C1395  C1399   1.532   .     S
C1397  C1406   1.443   .     A
C1397  C516    1.425   1_556 S
C1399  H1429   1.113   .     S
C1399  H1430   1.100   .     S
C1399  C1400   1.535   .     S
C1400  C1401   1.527   .     S
C1400  H1427   1.112   .     S
C1400  H1426   1.109   .     S
C1401  H1425   1.109   .     S
C1401  H1423   1.111   .     S
C1401  H1424   1.110   .     S
C1402  H1436   1.100   .     S
C1402  C1403   1.535   .     S
C1402  C1406   1.532   .     S
C1402  H1437   1.113   .     S
C1403  H1434   1.112   .     S
C1403  H1435   1.109   .     S
C1403  C1404   1.527   .     S
C1404  H1433   1.109   .     S
C1404  H1432   1.111   .     S
C1404  H1431   1.110   .     S
C1405  H1444   1.098   .     S
C1405  H1445   1.109   .     S
C1405  C1407   1.541   .     S
C1406  C1413   1.400   .     A
C1407  C1408   1.527   .     S
C1407  H1442   1.112   .     S
C1407  H1443   1.112   .     S
C1408  H1438   1.111   .     S
C1408  H1441   1.110   .     S
C1408  H1440   1.111   .     S
C1409  H1453   1.098   .     S
C1409  H1452   1.109   .     S
C1409  C1410   1.541   .     S
C1410  H1451   1.112   .     S
C1410  H1449   1.112   .     S
C1410  C1411   1.527   .     S
C1411  H1446   1.111   .     S
C1411  H1447   1.111   .     S
C1411  H1448   1.110   .     S
C1412  H1417   1.085   .     S
C1413  H1428   1.085   .     S
C1413  C514    1.387   1_556 S
C1414  H1458   1.083   .     S
C1414  C1710   1.371   .     S
C1415  H1418   1.083   .     S
C1416  H1419   1.084   .     S
N1459  Zn1469  2.025   .     S
N1460  Zn1470  2.025   .     S
O1461  Zn1469  1.984   .     S
O1462  Zn1470  1.984   .     S
O1463  Zn1470  2.000   .     S
O1464  Zn1469  2.000   .     S
O1465  Zn1469  1.958   .     S
O1466  Zn1470  1.958   .     S
O1467  Zn1470  1.904   .     S
O1468  Zn1469  1.904   .     S
C1471  O1561   1.291   .     A
C1471  O1559   1.285   .     A
C1471  C1474   1.415   .     S
C1472  H1518   1.084   .     S
C1472  C1474   1.399   .     A
C1472  C925    1.371   1_565 S
C1473  C1513   1.394   .     A
C1473  C1482   1.415   .     S
C1473  C1514   1.399   .     A
C1474  C1512   1.394   .     A
C1475  H1519   1.078   .     S
C1475  N1558   1.351   .     A
C1475  C1575   1.425   .     S
C1476  N1557   1.351   .     A
C1476  H1520   1.078   .     S
C1476  C1674   1.425   1_455 S
C1477  N1557   1.394   .     A
C1477  C1503   1.519   .     S
C1477  C1671   1.425   1_455 S
C1478  N1558   1.394   .     A
C1478  C1507   1.519   .     S
C1478  C1574   1.425   .     S
C1479  O1565   1.300   .     A
C1479  C1481   1.452   .     S
C1479  O1563   1.296   .     A
C1480  O1564   1.296   .     A
C1480  C1483   1.452   .     S
C1480  O1566   1.300   .     A
C1481  C1488   1.387   .     A
C1481  C1486   1.400   .     A
C1482  O1560   1.285   .     A
C1482  O1562   1.291   .     A
C1483  C1489   1.387   .     A
C1483  C1487   1.400   .     A
C1484  H1554   1.084   .     S
C1484  C1486   1.396   .     A
C1484  C1492   1.407   .     A
C1485  H1555   1.083   .     S
C1485  C1494   1.407   .     A
C1485  C1487   1.396   .     A
C1486  H1553   1.083   .     S
C1487  H1552   1.083   .     S
C1488  H1548   1.075   .     S
C1488  C1490   1.385   .     A
C1489  C1491   1.385   .     A
C1489  H1537   1.075   .     S
C1490  C1492   1.412   .     A
C1490  C1495   1.414   .     A
C1491  C1496   1.414   .     A
C1491  C1494   1.412   .     A
C1492  C628    1.387   1_556 S
C1493  C1496   1.443   .     A
C1493  C1510   1.400   .     A
C1493  C1497   1.532   .     S
C1495  C1504   1.443   .     A
C1495  C614    1.425   1_556 S
C1497  H1527   1.113   .     S
C1497  H1528   1.100   .     S
C1497  C1498   1.535   .     S
C1498  C1499   1.527   .     S
C1498  H1525   1.112   .     S
C1498  H1524   1.109   .     S
C1499  H1523   1.109   .     S
C1499  H1521   1.111   .     S
C1499  H1522   1.110   .     S
C1500  H1534   1.100   .     S
C1500  C1501   1.535   .     S
C1500  C1504   1.532   .     S
C1500  H1535   1.113   .     S
C1501  H1532   1.112   .     S
C1501  H1533   1.109   .     S
C1501  C1502   1.527   .     S
C1502  H1531   1.109   .     S
C1502  H1530   1.111   .     S
C1502  H1529   1.110   .     S
C1503  H1542   1.098   .     S
C1503  H1543   1.109   .     S
C1503  C1505   1.541   .     S
C1504  C1511   1.400   .     A
C1505  C1506   1.527   .     S
C1505  H1540   1.112   .     S
C1505  H1541   1.112   .     S
C1506  H1536   1.111   .     S
C1506  H1539   1.110   .     S
C1506  H1538   1.111   .     S
C1507  H1551   1.098   .     S
C1507  H1550   1.109   .     S
C1507  C1508   1.541   .     S
C1508  H1549   1.112   .     S
C1508  H1547   1.112   .     S
C1508  C1509   1.527   .     S
C1509  H1544   1.111   .     S
C1509  H1545   1.111   .     S
C1509  H1546   1.110   .     S
C1510  H1515   1.085   .     S
C1511  H1526   1.085   .     S
C1511  C612    1.387   1_556 S
C1512  H1556   1.083   .     S
C1512  C926    1.371   1_565 S
C1513  H1516   1.083   .     S
C1514  H1517   1.084   .     S
N1557  Zn1567  2.025   .     S
N1558  Zn1568  2.025   .     S
O1559  Zn1567  1.984   .     S
O1560  Zn1568  1.984   .     S
O1561  Zn1568  2.000   .     S
O1562  Zn1567  2.000   .     S
O1563  Zn1567  1.958   .     S
O1564  Zn1568  1.958   .     S
O1565  Zn1568  1.904   .     S
O1566  Zn1567  1.904   .     S
C1569  O1659   1.291   .     A
C1569  O1657   1.285   .     A
C1569  C1572   1.415   .     S
C1570  H1616   1.084   .     S
C1570  C1572   1.399   .     A
C1570  C1023   1.371   1_565 S
C1571  C1611   1.394   .     A
C1571  C1580   1.415   .     S
C1571  C1612   1.399   .     A
C1572  C1610   1.394   .     A
C1573  H1617   1.078   .     S
C1573  N1656   1.351   .     A
C1573  C1673   1.425   .     S
C1574  N1655   1.351   .     A
C1574  H1618   1.078   .     S
C1575  N1655   1.394   .     A
C1575  C1601   1.519   .     S
C1576  N1656   1.394   .     A
C1576  C1605   1.519   .     S
C1576  C1672   1.425   .     S
C1577  O1663   1.300   .     A
C1577  C1579   1.452   .     S
C1577  O1661   1.296   .     A
C1578  O1662   1.296   .     A
C1578  C1581   1.452   .     S
C1578  O1664   1.300   .     A
C1579  C1586   1.387   .     A
C1579  C1584   1.400   .     A
C1580  O1658   1.285   .     A
C1580  O1660   1.291   .     A
C1581  C1587   1.387   .     A
C1581  C1585   1.400   .     A
C1582  H1652   1.084   .     S
C1582  C1584   1.396   .     A
C1582  C1590   1.407   .     A
C1583  H1653   1.083   .     S
C1583  C1592   1.407   .     A
C1583  C1585   1.396   .     A
C1584  H1651   1.083   .     S
C1585  H1650   1.083   .     S
C1586  H1646   1.075   .     S
C1586  C1588   1.385   .     A
C1587  C1589   1.385   .     A
C1587  H1635   1.075   .     S
C1588  C1590   1.412   .     A
C1588  C1593   1.414   .     A
C1589  C1594   1.414   .     A
C1589  C1592   1.412   .     A
C1590  C726    1.387   1_556 S
C1591  C1594   1.443   .     A
C1591  C1608   1.400   .     A
C1591  C1595   1.532   .     S
C1593  C1602   1.443   .     A
C1593  C712    1.425   1_556 S
C1595  H1625   1.113   .     S
C1595  H1626   1.100   .     S
C1595  C1596   1.535   .     S
C1596  C1597   1.527   .     S
C1596  H1623   1.112   .     S
C1596  H1622   1.109   .     S
C1597  H1621   1.109   .     S
C1597  H1619   1.111   .     S
C1597  H1620   1.110   .     S
C1598  H1632   1.100   .     S
C1598  C1599   1.535   .     S
C1598  C1602   1.532   .     S
C1598  H1633   1.113   .     S
C1599  H1630   1.112   .     S
C1599  H1631   1.109   .     S
C1599  C1600   1.527   .     S
C1600  H1629   1.109   .     S
C1600  H1628   1.111   .     S
C1600  H1627   1.110   .     S
C1601  H1640   1.098   .     S
C1601  H1641   1.109   .     S
C1601  C1603   1.541   .     S
C1602  C1609   1.400   .     A
C1603  C1604   1.527   .     S
C1603  H1638   1.112   .     S
C1603  H1639   1.112   .     S
C1604  H1634   1.111   .     S
C1604  H1637   1.110   .     S
C1604  H1636   1.111   .     S
C1605  H1649   1.098   .     S
C1605  H1648   1.109   .     S
C1605  C1606   1.541   .     S
C1606  H1647   1.112   .     S
C1606  H1645   1.112   .     S
C1606  C1607   1.527   .     S
C1607  H1642   1.111   .     S
C1607  H1643   1.111   .     S
C1607  H1644   1.110   .     S
C1608  H1613   1.085   .     S
C1609  H1624   1.085   .     S
C1609  C710    1.387   1_556 S
C1610  H1654   1.083   .     S
C1610  C1024   1.371   1_565 S
C1611  H1614   1.083   .     S
C1612  H1615   1.084   .     S
N1655  Zn1665  2.025   .     S
N1656  Zn1666  2.025   .     S
O1657  Zn1665  1.984   .     S
O1658  Zn1666  1.984   .     S
O1659  Zn1666  2.000   .     S
O1660  Zn1665  2.000   .     S
O1661  Zn1665  1.958   .     S
O1662  Zn1666  1.958   .     S
O1663  Zn1666  1.904   .     S
O1664  Zn1665  1.904   .     S
C1667  O1757   1.291   .     A
C1667  O1755   1.285   .     A
C1667  C1670   1.415   .     S
C1668  H1714   1.084   .     S
C1668  C1670   1.399   .     A
C1668  C1121   1.371   1_565 S
C1669  C1709   1.394   .     A
C1669  C1678   1.415   .     S
C1669  C1710   1.399   .     A
C1670  C1708   1.394   .     A
C1671  H1715   1.078   .     S
C1671  N1754   1.351   .     A
C1671  C1477   1.425   1_655 S
C1672  N1753   1.351   .     A
C1672  H1716   1.078   .     S
C1673  N1753   1.394   .     A
C1673  C1699   1.519   .     S
C1674  N1754   1.394   .     A
C1674  C1703   1.519   .     S
C1674  C1476   1.425   1_655 S
C1675  O1761   1.300   .     A
C1675  C1677   1.452   .     S
C1675  O1759   1.296   .     A
C1676  O1760   1.296   .     A
C1676  C1679   1.452   .     S
C1676  O1762   1.300   .     A
C1677  C1684   1.387   .     A
C1677  C1682   1.400   .     A
C1678  O1756   1.285   .     A
C1678  O1758   1.291   .     A
C1679  C1685   1.387   .     A
C1679  C1683   1.400   .     A
C1680  H1750   1.084   .     S
C1680  C1682   1.396   .     A
C1680  C1688   1.407   .     A
C1681  H1751   1.083   .     S
C1681  C1690   1.407   .     A
C1681  C1683   1.396   .     A
C1682  H1749   1.083   .     S
C1683  H1748   1.083   .     S
C1684  H1744   1.075   .     S
C1684  C1686   1.385   .     A
C1685  C1687   1.385   .     A
C1685  H1733   1.075   .     S
C1686  C1688   1.412   .     A
C1686  C1691   1.414   .     A
C1687  C1692   1.414   .     A
C1687  C1690   1.412   .     A
C1688  C824    1.387   1_556 S
C1689  C1692   1.443   .     A
C1689  C1706   1.400   .     A
C1689  C1693   1.532   .     S
C1691  C1700   1.443   .     A
C1691  C810    1.425   1_556 S
C1693  H1723   1.113   .     S
C1693  H1724   1.100   .     S
C1693  C1694   1.535   .     S
C1694  C1695   1.527   .     S
C1694  H1721   1.112   .     S
C1694  H1720   1.109   .     S
C1695  H1719   1.109   .     S
C1695  H1717   1.111   .     S
C1695  H1718   1.110   .     S
C1696  H1730   1.100   .     S
C1696  C1697   1.535   .     S
C1696  C1700   1.532   .     S
C1696  H1731   1.113   .     S
C1697  H1728   1.112   .     S
C1697  H1729   1.109   .     S
C1697  C1698   1.527   .     S
C1698  H1727   1.109   .     S
C1698  H1726   1.111   .     S
C1698  H1725   1.110   .     S
C1699  H1738   1.098   .     S
C1699  H1739   1.109   .     S
C1699  C1701   1.541   .     S
C1700  C1707   1.400   .     A
C1701  C1702   1.527   .     S
C1701  H1736   1.112   .     S
C1701  H1737   1.112   .     S
C1702  H1732   1.111   .     S
C1702  H1735   1.110   .     S
C1702  H1734   1.111   .     S
C1703  H1747   1.098   .     S
C1703  H1746   1.109   .     S
C1703  C1704   1.541   .     S
C1704  H1745   1.112   .     S
C1704  H1743   1.112   .     S
C1704  C1705   1.527   .     S
C1705  H1740   1.111   .     S
C1705  H1741   1.111   .     S
C1705  H1742   1.110   .     S
C1706  H1711   1.085   .     S
C1707  H1722   1.085   .     S
C1707  C808    1.387   1_556 S
C1708  H1752   1.083   .     S
C1708  C1122   1.371   1_565 S
C1709  H1712   1.083   .     S
C1710  H1713   1.084   .     S
N1753  Zn1763  2.025   .     S
N1754  Zn1764  2.025   .     S
O1755  Zn1763  1.984   .     S
O1756  Zn1764  1.984   .     S
O1757  Zn1764  2.000   .     S
O1758  Zn1763  2.000   .     S
O1759  Zn1763  1.958   .     S
O1760  Zn1764  1.958   .     S
O1761  Zn1764  1.904   .     S
O1762  Zn1763  1.904   .     S
