data_str_m2_o10_o18_pcu_sym.114
_audit_creation_date              2020-01-03
_audit_creation_method            'Materials Studio'
_symmetry_space_group_name_H-M    'P1'
_symmetry_Int_Tables_number       1
_symmetry_cell_setting            triclinic
loop_
_symmetry_equiv_pos_as_xyz
  x,y,z
_cell_length_a                    23.1159
_cell_length_b                    26.5128
_cell_length_c                    31.9295
_cell_angle_alpha                 105.8897
_cell_angle_beta                  77.4202
_cell_angle_gamma                 104.2661
loop_
_atom_site_label
_atom_site_type_symbol
_atom_site_fract_x
_atom_site_fract_y
_atom_site_fract_z
_atom_site_U_iso_or_equiv
_atom_site_adp_type
_atom_site_occupancy
C1     C     0.18177   0.26707   0.25222   0.00000  Uiso   1.00
C2     C     0.15156   0.06627   0.24779   0.00000  Uiso   1.00
C3     C     0.09652   0.13234   0.03092   0.00000  Uiso   1.00
C4     C     0.23846   0.19542   0.46724   0.00000  Uiso   1.00
C5     C     0.05596   0.12046   0.00182   0.00000  Uiso   1.00
C6     C     0.27904   0.20703   0.49629   0.00000  Uiso   1.00
C7     C     0.18537   0.32481   0.25932   0.00000  Uiso   1.00
C8     C     0.14794   0.00853   0.24071   0.00000  Uiso   1.00
C9     C     0.12998   0.16249   0.33216   0.00000  Uiso   1.00
C10    C     0.20336   0.17076   0.16781   0.00000  Uiso   1.00
C11    C     0.10945   0.15552   0.37736   0.00000  Uiso   1.00
C12    C     0.22397   0.17674   0.12234   0.00000  Uiso   1.00
C13    C     0.03189   0.12116   0.43241   0.00000  Uiso   1.00
C14    C     0.30256   0.20771   0.06622   0.00000  Uiso   1.00
C15    C     0.04932   0.13236   0.39094   0.00000  Uiso   1.00
C16    C     0.28463   0.19797   0.10818   0.00000  Uiso   1.00
C17    C     0.15135   0.16910   0.40616   0.00000  Uiso   1.00
C18    C     0.18200   0.16355   0.09362   0.00000  Uiso   1.00
C19    C     0.13496   0.15839   0.44846   0.00000  Uiso   1.00
C20    C     0.19919   0.17177   0.05052   0.00000  Uiso   1.00
C21    C     0.07414   0.13349   0.46104   0.00000  Uiso   1.00
C22    C     0.26038   0.19536   0.03755   0.00000  Uiso   1.00
C23    C     0.17715   0.17093   0.47824   0.00000  Uiso   1.00
C24    C     0.15733   0.15835   0.02042   0.00000  Uiso   1.00
Cu25   Cu    0.10737   0.16108   0.24516   0.00000  Uiso   1.00
Cu26   Cu    0.22596   0.17225   0.25483   0.00000  Uiso   1.00
H27    H     0.00977   0.10074   0.01138   0.00000  Uiso   1.00
H28    H     0.32561   0.22552   0.48632   0.00000  Uiso   1.00
H29    H     0.13597   0.14796   0.10628   0.00000  Uiso   1.00
H30    H     0.19658   0.18748   0.39424   0.00000  Uiso   1.00
H31    H     0.31792   0.20855   0.12993   0.00000  Uiso   1.00
H32    H     0.01611   0.12148   0.36911   0.00000  Uiso   1.00
H33    H     0.31870   0.10228   0.44198   0.00000  Uiso   1.00
H34    H     0.01609   0.22540   0.05630   0.00000  Uiso   1.00
H35    H     0.07835   0.11976   0.06126   0.00000  Uiso   1.00
H36    H     0.25739   0.20621   0.43626   0.00000  Uiso   1.00
N37    N     0.31506   0.18068   0.26212   0.00000  Uiso   1.00
N38    N     0.01827   0.15265   0.23788   0.00000  Uiso   1.00
O39    O     0.12815   0.23809   0.24686   0.00000  Uiso   1.00
O40    O     0.20518   0.09524   0.25314   0.00000  Uiso   1.00
O41    O     0.22829   0.24753   0.25502   0.00000  Uiso   1.00
O42    O     0.10504   0.08580   0.24498   0.00000  Uiso   1.00
O43    O     0.08851   0.15930   0.30855   0.00000  Uiso   1.00
O44    O     0.24482   0.17403   0.19145   0.00000  Uiso   1.00
O45    O     0.18866   0.16874   0.31671   0.00000  Uiso   1.00
O46    O     0.14468   0.16460   0.18329   0.00000  Uiso   1.00
O47    O     0.21206   0.02604   0.29433   0.00000  Uiso   1.00
C48    C     0.27550   0.03389   0.28311   0.00000  Uiso   1.00
H49    H     0.29182   0.03405   0.24772   0.00000  Uiso   1.00
H50    H     0.29228   0.00334   0.29211   0.00000  Uiso   1.00
H51    H     0.29532   0.07349   0.30264   0.00000  Uiso   1.00
O52    O     0.12123   0.30730   0.20570   0.00000  Uiso   1.00
C53    C     0.05779   0.29938   0.21697   0.00000  Uiso   1.00
H54    H     0.04096   0.33000   0.20813   0.00000  Uiso   1.00
H55    H     0.04152   0.29905   0.25234   0.00000  Uiso   1.00
H56    H     0.03798   0.25984   0.19733   0.00000  Uiso   1.00
C57    C     0.32657   0.22446   0.30339   0.00000  Uiso   1.00
C58    C     0.27943   0.25215   0.32870   0.00000  Uiso   1.00
C59    C     0.28239   0.28939   0.36923   0.00000  Uiso   1.00
C60    C     0.00119   0.30442   0.38726   0.00000  Uiso   1.00
C61    C     0.05057   0.28350   0.36373   0.00000  Uiso   1.00
C62    C     0.04692   0.24617   0.32317   0.00000  Uiso   1.00
H63    H     0.23757   0.24879   0.31988   0.00000  Uiso   1.00
H64    H     0.24374   0.30723   0.38639   0.00000  Uiso   1.00
H65    H     0.00390   0.33324   0.41855   0.00000  Uiso   1.00
H66    H     0.09279   0.29677   0.37678   0.00000  Uiso   1.00
H67    H     0.08981   0.23915   0.31174   0.00000  Uiso   1.00
C68    C     0.00669   0.10872   0.19671   0.00000  Uiso   1.00
C69    C     0.05381   0.08095   0.17145   0.00000  Uiso   1.00
C70    C     0.05058   0.04312   0.13124   0.00000  Uiso   1.00
C71    C     0.33156   0.02761   0.11344   0.00000  Uiso   1.00
C72    C     0.28235   0.04892   0.13679   0.00000  Uiso   1.00
C73    C     0.28628   0.08690   0.17700   0.00000  Uiso   1.00
H74    H     0.09584   0.08460   0.18011   0.00000  Uiso   1.00
H75    H     0.08917   0.02516   0.11417   0.00000  Uiso   1.00
H76    H     0.32861   0.33156   0.08245   0.00000  Uiso   1.00
H77    H     0.24005   0.03548   0.12384   0.00000  Uiso   1.00
H78    H     0.24350   0.09424   0.18825   0.00000  Uiso   1.00
C79    C     0.51510   0.26707   0.25222   0.00000  Uiso   1.00
C80    C     0.48489   0.06627   0.24779   0.00000  Uiso   1.00
C81    C     0.42986   0.13234   0.03092   0.00000  Uiso   1.00
C82    C     0.57180   0.19542   0.46724   0.00000  Uiso   1.00
C83    C     0.38929   0.12046   0.00182   0.00000  Uiso   1.00
C84    C     0.61238   0.20703   0.49629   0.00000  Uiso   1.00
C85    C     0.51870   0.32481   0.25932   0.00000  Uiso   1.00
C86    C     0.48127   0.00853   0.24071   0.00000  Uiso   1.00
C87    C     0.46331   0.16249   0.33216   0.00000  Uiso   1.00
C88    C     0.53669   0.17076   0.16781   0.00000  Uiso   1.00
C89    C     0.44278   0.15552   0.37736   0.00000  Uiso   1.00
C90    C     0.55731   0.17674   0.12234   0.00000  Uiso   1.00
C91    C     0.36522   0.12116   0.43241   0.00000  Uiso   1.00
C92    C     0.63589   0.20771   0.06622   0.00000  Uiso   1.00
C93    C     0.38265   0.13236   0.39094   0.00000  Uiso   1.00
C94    C     0.61796   0.19797   0.10818   0.00000  Uiso   1.00
C95    C     0.48469   0.16910   0.40616   0.00000  Uiso   1.00
C96    C     0.51533   0.16355   0.09362   0.00000  Uiso   1.00
C97    C     0.46829   0.15839   0.44846   0.00000  Uiso   1.00
C98    C     0.53253   0.17177   0.05052   0.00000  Uiso   1.00
C99    C     0.40748   0.13349   0.46104   0.00000  Uiso   1.00
C100   C     0.59372   0.19536   0.03755   0.00000  Uiso   1.00
C101   C     0.51048   0.17093   0.47824   0.00000  Uiso   1.00
C102   C     0.49066   0.15835   0.02042   0.00000  Uiso   1.00
Cu103  Cu    0.44071   0.16108   0.24516   0.00000  Uiso   1.00
Cu104  Cu    0.55929   0.17225   0.25483   0.00000  Uiso   1.00
H105   H     0.34311   0.10074   0.01138   0.00000  Uiso   1.00
H106   H     0.65895   0.22552   0.48632   0.00000  Uiso   1.00
H107   H     0.46931   0.14796   0.10628   0.00000  Uiso   1.00
H108   H     0.52991   0.18748   0.39424   0.00000  Uiso   1.00
H109   H     0.65125   0.20855   0.12993   0.00000  Uiso   1.00
H110   H     0.34944   0.12148   0.36911   0.00000  Uiso   1.00
H111   H     0.65203   0.10228   0.44198   0.00000  Uiso   1.00
H112   H     0.34943   0.22540   0.05630   0.00000  Uiso   1.00
H113   H     0.41168   0.11976   0.06126   0.00000  Uiso   1.00
H114   H     0.59073   0.20621   0.43626   0.00000  Uiso   1.00
N115   N     0.64839   0.18068   0.26212   0.00000  Uiso   1.00
N116   N     0.35161   0.15265   0.23788   0.00000  Uiso   1.00
O117   O     0.46148   0.23809   0.24686   0.00000  Uiso   1.00
O118   O     0.53852   0.09524   0.25314   0.00000  Uiso   1.00
O119   O     0.56163   0.24753   0.25502   0.00000  Uiso   1.00
O120   O     0.43837   0.08580   0.24498   0.00000  Uiso   1.00
O121   O     0.42185   0.15930   0.30855   0.00000  Uiso   1.00
O122   O     0.57815   0.17403   0.19145   0.00000  Uiso   1.00
O123   O     0.52199   0.16874   0.31671   0.00000  Uiso   1.00
O124   O     0.47801   0.16460   0.18329   0.00000  Uiso   1.00
O125   O     0.54539   0.02604   0.29433   0.00000  Uiso   1.00
C126   C     0.60883   0.03389   0.28311   0.00000  Uiso   1.00
H127   H     0.62515   0.03405   0.24772   0.00000  Uiso   1.00
H128   H     0.62561   0.00334   0.29211   0.00000  Uiso   1.00
H129   H     0.62865   0.07349   0.30264   0.00000  Uiso   1.00
O130   O     0.45456   0.30730   0.20570   0.00000  Uiso   1.00
C131   C     0.39112   0.29938   0.21697   0.00000  Uiso   1.00
H132   H     0.37429   0.33000   0.20813   0.00000  Uiso   1.00
H133   H     0.37485   0.29905   0.25234   0.00000  Uiso   1.00
H134   H     0.37131   0.25984   0.19733   0.00000  Uiso   1.00
C135   C     0.65991   0.22446   0.30339   0.00000  Uiso   1.00
C136   C     0.61276   0.25215   0.32870   0.00000  Uiso   1.00
C137   C     0.61572   0.28939   0.36923   0.00000  Uiso   1.00
C138   C     0.33453   0.30442   0.38726   0.00000  Uiso   1.00
C139   C     0.38391   0.28350   0.36373   0.00000  Uiso   1.00
C140   C     0.38025   0.24617   0.32317   0.00000  Uiso   1.00
H141   H     0.57090   0.24879   0.31988   0.00000  Uiso   1.00
H142   H     0.57707   0.30723   0.38639   0.00000  Uiso   1.00
H143   H     0.33723   0.33324   0.41855   0.00000  Uiso   1.00
H144   H     0.42612   0.29677   0.37678   0.00000  Uiso   1.00
H145   H     0.42315   0.23915   0.31174   0.00000  Uiso   1.00
C146   C     0.34002   0.10872   0.19671   0.00000  Uiso   1.00
C147   C     0.38714   0.08095   0.17145   0.00000  Uiso   1.00
C148   C     0.38391   0.04312   0.13124   0.00000  Uiso   1.00
C149   C     0.66489   0.02761   0.11344   0.00000  Uiso   1.00
C150   C     0.61569   0.04892   0.13679   0.00000  Uiso   1.00
C151   C     0.61961   0.08690   0.17700   0.00000  Uiso   1.00
H152   H     0.42917   0.08460   0.18011   0.00000  Uiso   1.00
H153   H     0.42250   0.02516   0.11417   0.00000  Uiso   1.00
H154   H     0.66195   0.33156   0.08245   0.00000  Uiso   1.00
H155   H     0.57339   0.03548   0.12384   0.00000  Uiso   1.00
H156   H     0.57684   0.09424   0.18825   0.00000  Uiso   1.00
C157   C     0.84844   0.26707   0.25222   0.00000  Uiso   1.00
C158   C     0.81823   0.06627   0.24779   0.00000  Uiso   1.00
C159   C     0.76319   0.13234   0.03092   0.00000  Uiso   1.00
C160   C     0.90513   0.19542   0.46724   0.00000  Uiso   1.00
C161   C     0.72263   0.12046   0.00182   0.00000  Uiso   1.00
C162   C     0.94571   0.20703   0.49629   0.00000  Uiso   1.00
C163   C     0.85204   0.32481   0.25932   0.00000  Uiso   1.00
C164   C     0.81460   0.00853   0.24071   0.00000  Uiso   1.00
C165   C     0.79665   0.16249   0.33216   0.00000  Uiso   1.00
C166   C     0.87002   0.17076   0.16781   0.00000  Uiso   1.00
C167   C     0.77612   0.15552   0.37736   0.00000  Uiso   1.00
C168   C     0.89064   0.17674   0.12234   0.00000  Uiso   1.00
C169   C     0.69855   0.12116   0.43241   0.00000  Uiso   1.00
C170   C     0.96923   0.20771   0.06622   0.00000  Uiso   1.00
C171   C     0.71598   0.13236   0.39094   0.00000  Uiso   1.00
C172   C     0.95129   0.19797   0.10818   0.00000  Uiso   1.00
C173   C     0.81802   0.16910   0.40616   0.00000  Uiso   1.00
C174   C     0.84866   0.16355   0.09362   0.00000  Uiso   1.00
C175   C     0.80163   0.15839   0.44846   0.00000  Uiso   1.00
C176   C     0.86586   0.17177   0.05052   0.00000  Uiso   1.00
C177   C     0.74081   0.13349   0.46104   0.00000  Uiso   1.00
C178   C     0.92705   0.19536   0.03755   0.00000  Uiso   1.00
C179   C     0.84381   0.17093   0.47824   0.00000  Uiso   1.00
C180   C     0.82399   0.15835   0.02042   0.00000  Uiso   1.00
Cu181  Cu    0.77404   0.16108   0.24516   0.00000  Uiso   1.00
Cu182  Cu    0.89263   0.17225   0.25483   0.00000  Uiso   1.00
H183   H     0.67644   0.10074   0.01138   0.00000  Uiso   1.00
H184   H     0.99228   0.22552   0.48632   0.00000  Uiso   1.00
H185   H     0.80264   0.14796   0.10628   0.00000  Uiso   1.00
H186   H     0.86325   0.18748   0.39424   0.00000  Uiso   1.00
H187   H     0.98458   0.20855   0.12993   0.00000  Uiso   1.00
H188   H     0.68277   0.12148   0.36911   0.00000  Uiso   1.00
H189   H     0.98537   0.10228   0.44198   0.00000  Uiso   1.00
H190   H     0.68276   0.22540   0.05630   0.00000  Uiso   1.00
H191   H     0.74501   0.11976   0.06126   0.00000  Uiso   1.00
H192   H     0.92406   0.20621   0.43626   0.00000  Uiso   1.00
N193   N     0.98173   0.18068   0.26212   0.00000  Uiso   1.00
N194   N     0.68494   0.15265   0.23788   0.00000  Uiso   1.00
O195   O     0.79482   0.23809   0.24686   0.00000  Uiso   1.00
O196   O     0.87185   0.09524   0.25314   0.00000  Uiso   1.00
O197   O     0.89496   0.24753   0.25502   0.00000  Uiso   1.00
O198   O     0.77171   0.08580   0.24498   0.00000  Uiso   1.00
O199   O     0.75518   0.15930   0.30855   0.00000  Uiso   1.00
O200   O     0.91149   0.17403   0.19145   0.00000  Uiso   1.00
O201   O     0.85532   0.16874   0.31671   0.00000  Uiso   1.00
O202   O     0.81134   0.16460   0.18329   0.00000  Uiso   1.00
O203   O     0.87873   0.02604   0.29433   0.00000  Uiso   1.00
C204   C     0.94217   0.03389   0.28311   0.00000  Uiso   1.00
H205   H     0.95849   0.03405   0.24772   0.00000  Uiso   1.00
H206   H     0.95894   0.00334   0.29211   0.00000  Uiso   1.00
H207   H     0.96198   0.07349   0.30264   0.00000  Uiso   1.00
O208   O     0.78790   0.30730   0.20570   0.00000  Uiso   1.00
C209   C     0.72445   0.29938   0.21697   0.00000  Uiso   1.00
H210   H     0.70762   0.33000   0.20813   0.00000  Uiso   1.00
H211   H     0.70819   0.29905   0.25234   0.00000  Uiso   1.00
H212   H     0.70464   0.25984   0.19733   0.00000  Uiso   1.00
C213   C     0.99324   0.22446   0.30339   0.00000  Uiso   1.00
C214   C     0.94609   0.25215   0.32870   0.00000  Uiso   1.00
C215   C     0.94905   0.28939   0.36923   0.00000  Uiso   1.00
C216   C     0.66786   0.30442   0.38726   0.00000  Uiso   1.00
C217   C     0.71724   0.28350   0.36373   0.00000  Uiso   1.00
C218   C     0.71359   0.24617   0.32317   0.00000  Uiso   1.00
H219   H     0.90424   0.24879   0.31988   0.00000  Uiso   1.00
H220   H     0.91041   0.30723   0.38639   0.00000  Uiso   1.00
H221   H     0.67057   0.33324   0.41855   0.00000  Uiso   1.00
H222   H     0.75946   0.29677   0.37678   0.00000  Uiso   1.00
H223   H     0.75648   0.23915   0.31174   0.00000  Uiso   1.00
C224   C     0.67335   0.10872   0.19671   0.00000  Uiso   1.00
C225   C     0.72048   0.08095   0.17145   0.00000  Uiso   1.00
C226   C     0.71724   0.04312   0.13124   0.00000  Uiso   1.00
C227   C     0.99823   0.02761   0.11344   0.00000  Uiso   1.00
C228   C     0.94902   0.04892   0.13679   0.00000  Uiso   1.00
C229   C     0.95295   0.08690   0.17700   0.00000  Uiso   1.00
H230   H     0.76250   0.08460   0.18011   0.00000  Uiso   1.00
H231   H     0.75583   0.02516   0.11417   0.00000  Uiso   1.00
H232   H     0.99528   0.33156   0.08245   0.00000  Uiso   1.00
H233   H     0.90672   0.03548   0.12384   0.00000  Uiso   1.00
H234   H     0.91017   0.09424   0.18825   0.00000  Uiso   1.00
C235   C     0.18177   0.60040   0.25222   0.00000  Uiso   1.00
C236   C     0.15156   0.39960   0.24779   0.00000  Uiso   1.00
C237   C     0.09652   0.46567   0.03092   0.00000  Uiso   1.00
C238   C     0.23846   0.52875   0.46724   0.00000  Uiso   1.00
C239   C     0.05596   0.45379   0.00182   0.00000  Uiso   1.00
C240   C     0.27904   0.54036   0.49629   0.00000  Uiso   1.00
C241   C     0.18537   0.65814   0.25932   0.00000  Uiso   1.00
C242   C     0.14794   0.34186   0.24071   0.00000  Uiso   1.00
C243   C     0.12998   0.49582   0.33216   0.00000  Uiso   1.00
C244   C     0.20336   0.50409   0.16781   0.00000  Uiso   1.00
C245   C     0.10945   0.48885   0.37736   0.00000  Uiso   1.00
C246   C     0.22397   0.51007   0.12234   0.00000  Uiso   1.00
C247   C     0.03189   0.45449   0.43241   0.00000  Uiso   1.00
C248   C     0.30256   0.54104   0.06622   0.00000  Uiso   1.00
C249   C     0.04932   0.46569   0.39094   0.00000  Uiso   1.00
C250   C     0.28463   0.53130   0.10818   0.00000  Uiso   1.00
C251   C     0.15135   0.50244   0.40616   0.00000  Uiso   1.00
C252   C     0.18200   0.49688   0.09362   0.00000  Uiso   1.00
C253   C     0.13496   0.49172   0.44846   0.00000  Uiso   1.00
C254   C     0.19919   0.50510   0.05052   0.00000  Uiso   1.00
C255   C     0.07414   0.46682   0.46104   0.00000  Uiso   1.00
C256   C     0.26038   0.52870   0.03755   0.00000  Uiso   1.00
C257   C     0.17715   0.50426   0.47824   0.00000  Uiso   1.00
C258   C     0.15733   0.49168   0.02042   0.00000  Uiso   1.00
Cu259  Cu    0.10737   0.49441   0.24516   0.00000  Uiso   1.00
Cu260  Cu    0.22596   0.50559   0.25483   0.00000  Uiso   1.00
H261   H     0.00977   0.43408   0.01138   0.00000  Uiso   1.00
H262   H     0.32561   0.55886   0.48632   0.00000  Uiso   1.00
H263   H     0.13597   0.48130   0.10628   0.00000  Uiso   1.00
H264   H     0.19658   0.52081   0.39424   0.00000  Uiso   1.00
H265   H     0.31792   0.54188   0.12993   0.00000  Uiso   1.00
H266   H     0.01611   0.45481   0.36911   0.00000  Uiso   1.00
H267   H     0.31870   0.43561   0.44198   0.00000  Uiso   1.00
H268   H     0.01609   0.55874   0.05630   0.00000  Uiso   1.00
H269   H     0.07835   0.45309   0.06126   0.00000  Uiso   1.00
H270   H     0.25739   0.53954   0.43626   0.00000  Uiso   1.00
N271   N     0.31506   0.51401   0.26212   0.00000  Uiso   1.00
N272   N     0.01827   0.48599   0.23788   0.00000  Uiso   1.00
O273   O     0.12815   0.57142   0.24686   0.00000  Uiso   1.00
O274   O     0.20518   0.42858   0.25314   0.00000  Uiso   1.00
O275   O     0.22829   0.58086   0.25502   0.00000  Uiso   1.00
O276   O     0.10504   0.41914   0.24498   0.00000  Uiso   1.00
O277   O     0.08851   0.49263   0.30855   0.00000  Uiso   1.00
O278   O     0.24482   0.50737   0.19145   0.00000  Uiso   1.00
O279   O     0.18866   0.50207   0.31671   0.00000  Uiso   1.00
O280   O     0.14468   0.49793   0.18329   0.00000  Uiso   1.00
O281   O     0.21206   0.35937   0.29433   0.00000  Uiso   1.00
C282   C     0.27550   0.36722   0.28311   0.00000  Uiso   1.00
H283   H     0.29182   0.36739   0.24772   0.00000  Uiso   1.00
H284   H     0.29228   0.33667   0.29211   0.00000  Uiso   1.00
H285   H     0.29532   0.40682   0.30264   0.00000  Uiso   1.00
O286   O     0.12123   0.64063   0.20570   0.00000  Uiso   1.00
C287   C     0.05779   0.63271   0.21697   0.00000  Uiso   1.00
H288   H     0.04096   0.66333   0.20813   0.00000  Uiso   1.00
H289   H     0.04152   0.63238   0.25234   0.00000  Uiso   1.00
H290   H     0.03798   0.59317   0.19733   0.00000  Uiso   1.00
C291   C     0.32657   0.55780   0.30339   0.00000  Uiso   1.00
C292   C     0.27943   0.58549   0.32870   0.00000  Uiso   1.00
C293   C     0.28239   0.62272   0.36923   0.00000  Uiso   1.00
C294   C     0.00119   0.63775   0.38726   0.00000  Uiso   1.00
C295   C     0.05057   0.61684   0.36373   0.00000  Uiso   1.00
C296   C     0.04692   0.57950   0.32317   0.00000  Uiso   1.00
H297   H     0.23757   0.58213   0.31988   0.00000  Uiso   1.00
H298   H     0.24374   0.64056   0.38639   0.00000  Uiso   1.00
H299   H     0.00390   0.66657   0.41855   0.00000  Uiso   1.00
H300   H     0.09279   0.63010   0.37678   0.00000  Uiso   1.00
H301   H     0.08981   0.57249   0.31174   0.00000  Uiso   1.00
C302   C     0.00669   0.44205   0.19671   0.00000  Uiso   1.00
C303   C     0.05381   0.41428   0.17145   0.00000  Uiso   1.00
C304   C     0.05058   0.37645   0.13124   0.00000  Uiso   1.00
C305   C     0.33156   0.36094   0.11344   0.00000  Uiso   1.00
C306   C     0.28235   0.38225   0.13679   0.00000  Uiso   1.00
C307   C     0.28628   0.42023   0.17700   0.00000  Uiso   1.00
H308   H     0.09584   0.41794   0.18011   0.00000  Uiso   1.00
H309   H     0.08917   0.35849   0.11417   0.00000  Uiso   1.00
H310   H     0.32861   0.66489   0.08245   0.00000  Uiso   1.00
H311   H     0.24005   0.36881   0.12384   0.00000  Uiso   1.00
H312   H     0.24350   0.42757   0.18825   0.00000  Uiso   1.00
C313   C     0.51510   0.60040   0.25222   0.00000  Uiso   1.00
C314   C     0.48489   0.39960   0.24779   0.00000  Uiso   1.00
C315   C     0.42986   0.46567   0.03092   0.00000  Uiso   1.00
C316   C     0.57180   0.52875   0.46724   0.00000  Uiso   1.00
C317   C     0.38929   0.45379   0.00182   0.00000  Uiso   1.00
C318   C     0.61238   0.54036   0.49629   0.00000  Uiso   1.00
C319   C     0.51870   0.65814   0.25932   0.00000  Uiso   1.00
C320   C     0.48127   0.34186   0.24071   0.00000  Uiso   1.00
C321   C     0.46331   0.49582   0.33216   0.00000  Uiso   1.00
C322   C     0.53669   0.50409   0.16781   0.00000  Uiso   1.00
C323   C     0.44278   0.48885   0.37736   0.00000  Uiso   1.00
C324   C     0.55731   0.51007   0.12234   0.00000  Uiso   1.00
C325   C     0.36522   0.45449   0.43241   0.00000  Uiso   1.00
C326   C     0.63589   0.54104   0.06622   0.00000  Uiso   1.00
C327   C     0.38265   0.46569   0.39094   0.00000  Uiso   1.00
C328   C     0.61796   0.53130   0.10818   0.00000  Uiso   1.00
C329   C     0.48469   0.50244   0.40616   0.00000  Uiso   1.00
C330   C     0.51533   0.49688   0.09362   0.00000  Uiso   1.00
C331   C     0.46829   0.49172   0.44846   0.00000  Uiso   1.00
C332   C     0.53253   0.50510   0.05052   0.00000  Uiso   1.00
C333   C     0.40748   0.46682   0.46104   0.00000  Uiso   1.00
C334   C     0.59372   0.52870   0.03755   0.00000  Uiso   1.00
C335   C     0.51048   0.50426   0.47824   0.00000  Uiso   1.00
C336   C     0.49066   0.49168   0.02042   0.00000  Uiso   1.00
Cu337  Cu    0.44071   0.49441   0.24516   0.00000  Uiso   1.00
Cu338  Cu    0.55929   0.50559   0.25483   0.00000  Uiso   1.00
H339   H     0.34311   0.43408   0.01138   0.00000  Uiso   1.00
H340   H     0.65895   0.55886   0.48632   0.00000  Uiso   1.00
H341   H     0.46931   0.48130   0.10628   0.00000  Uiso   1.00
H342   H     0.52991   0.52081   0.39424   0.00000  Uiso   1.00
H343   H     0.65125   0.54188   0.12993   0.00000  Uiso   1.00
H344   H     0.34944   0.45481   0.36911   0.00000  Uiso   1.00
H345   H     0.65203   0.43561   0.44198   0.00000  Uiso   1.00
H346   H     0.34943   0.55874   0.05630   0.00000  Uiso   1.00
H347   H     0.41168   0.45309   0.06126   0.00000  Uiso   1.00
H348   H     0.59073   0.53954   0.43626   0.00000  Uiso   1.00
N349   N     0.64839   0.51401   0.26212   0.00000  Uiso   1.00
N350   N     0.35161   0.48599   0.23788   0.00000  Uiso   1.00
O351   O     0.46148   0.57142   0.24686   0.00000  Uiso   1.00
O352   O     0.53852   0.42858   0.25314   0.00000  Uiso   1.00
O353   O     0.56163   0.58086   0.25502   0.00000  Uiso   1.00
O354   O     0.43837   0.41914   0.24498   0.00000  Uiso   1.00
O355   O     0.42185   0.49263   0.30855   0.00000  Uiso   1.00
O356   O     0.57815   0.50737   0.19145   0.00000  Uiso   1.00
O357   O     0.52199   0.50207   0.31671   0.00000  Uiso   1.00
O358   O     0.47801   0.49793   0.18329   0.00000  Uiso   1.00
O359   O     0.54539   0.35937   0.29433   0.00000  Uiso   1.00
C360   C     0.60883   0.36722   0.28311   0.00000  Uiso   1.00
H361   H     0.62515   0.36739   0.24772   0.00000  Uiso   1.00
H362   H     0.62561   0.33667   0.29211   0.00000  Uiso   1.00
H363   H     0.62865   0.40682   0.30264   0.00000  Uiso   1.00
O364   O     0.45456   0.64063   0.20570   0.00000  Uiso   1.00
C365   C     0.39112   0.63271   0.21697   0.00000  Uiso   1.00
H366   H     0.37429   0.66333   0.20813   0.00000  Uiso   1.00
H367   H     0.37485   0.63238   0.25234   0.00000  Uiso   1.00
H368   H     0.37131   0.59317   0.19733   0.00000  Uiso   1.00
C369   C     0.65991   0.55780   0.30339   0.00000  Uiso   1.00
C370   C     0.61276   0.58549   0.32870   0.00000  Uiso   1.00
C371   C     0.61572   0.62272   0.36923   0.00000  Uiso   1.00
C372   C     0.33453   0.63775   0.38726   0.00000  Uiso   1.00
C373   C     0.38391   0.61684   0.36373   0.00000  Uiso   1.00
C374   C     0.38025   0.57950   0.32317   0.00000  Uiso   1.00
H375   H     0.57090   0.58213   0.31988   0.00000  Uiso   1.00
H376   H     0.57707   0.64056   0.38639   0.00000  Uiso   1.00
H377   H     0.33723   0.66657   0.41855   0.00000  Uiso   1.00
H378   H     0.42612   0.63010   0.37678   0.00000  Uiso   1.00
H379   H     0.42315   0.57249   0.31174   0.00000  Uiso   1.00
C380   C     0.34002   0.44205   0.19671   0.00000  Uiso   1.00
C381   C     0.38714   0.41428   0.17145   0.00000  Uiso   1.00
C382   C     0.38391   0.37645   0.13124   0.00000  Uiso   1.00
C383   C     0.66489   0.36094   0.11344   0.00000  Uiso   1.00
C384   C     0.61569   0.38225   0.13679   0.00000  Uiso   1.00
C385   C     0.61961   0.42023   0.17700   0.00000  Uiso   1.00
H386   H     0.42917   0.41794   0.18011   0.00000  Uiso   1.00
H387   H     0.42250   0.35849   0.11417   0.00000  Uiso   1.00
H388   H     0.66195   0.66489   0.08245   0.00000  Uiso   1.00
H389   H     0.57339   0.36881   0.12384   0.00000  Uiso   1.00
H390   H     0.57684   0.42757   0.18825   0.00000  Uiso   1.00
C391   C     0.84844   0.60040   0.25222   0.00000  Uiso   1.00
C392   C     0.81823   0.39960   0.24779   0.00000  Uiso   1.00
C393   C     0.76319   0.46567   0.03092   0.00000  Uiso   1.00
C394   C     0.90513   0.52875   0.46724   0.00000  Uiso   1.00
C395   C     0.72263   0.45379   0.00182   0.00000  Uiso   1.00
C396   C     0.94571   0.54036   0.49629   0.00000  Uiso   1.00
C397   C     0.85204   0.65814   0.25932   0.00000  Uiso   1.00
C398   C     0.81460   0.34186   0.24071   0.00000  Uiso   1.00
C399   C     0.79665   0.49582   0.33216   0.00000  Uiso   1.00
C400   C     0.87002   0.50409   0.16781   0.00000  Uiso   1.00
C401   C     0.77612   0.48885   0.37736   0.00000  Uiso   1.00
C402   C     0.89064   0.51007   0.12234   0.00000  Uiso   1.00
C403   C     0.69855   0.45449   0.43241   0.00000  Uiso   1.00
C404   C     0.96923   0.54104   0.06622   0.00000  Uiso   1.00
C405   C     0.71598   0.46569   0.39094   0.00000  Uiso   1.00
C406   C     0.95129   0.53130   0.10818   0.00000  Uiso   1.00
C407   C     0.81802   0.50244   0.40616   0.00000  Uiso   1.00
C408   C     0.84866   0.49688   0.09362   0.00000  Uiso   1.00
C409   C     0.80163   0.49172   0.44846   0.00000  Uiso   1.00
C410   C     0.86586   0.50510   0.05052   0.00000  Uiso   1.00
C411   C     0.74081   0.46682   0.46104   0.00000  Uiso   1.00
C412   C     0.92705   0.52870   0.03755   0.00000  Uiso   1.00
C413   C     0.84381   0.50426   0.47824   0.00000  Uiso   1.00
C414   C     0.82399   0.49168   0.02042   0.00000  Uiso   1.00
Cu415  Cu    0.77404   0.49441   0.24516   0.00000  Uiso   1.00
Cu416  Cu    0.89263   0.50559   0.25483   0.00000  Uiso   1.00
H417   H     0.67644   0.43408   0.01138   0.00000  Uiso   1.00
H418   H     0.99228   0.55886   0.48632   0.00000  Uiso   1.00
H419   H     0.80264   0.48130   0.10628   0.00000  Uiso   1.00
H420   H     0.86325   0.52081   0.39424   0.00000  Uiso   1.00
H421   H     0.98458   0.54188   0.12993   0.00000  Uiso   1.00
H422   H     0.68277   0.45481   0.36911   0.00000  Uiso   1.00
H423   H     0.98537   0.43561   0.44198   0.00000  Uiso   1.00
H424   H     0.68276   0.55874   0.05630   0.00000  Uiso   1.00
H425   H     0.74501   0.45309   0.06126   0.00000  Uiso   1.00
H426   H     0.92406   0.53954   0.43626   0.00000  Uiso   1.00
N427   N     0.98173   0.51401   0.26212   0.00000  Uiso   1.00
N428   N     0.68494   0.48599   0.23788   0.00000  Uiso   1.00
O429   O     0.79482   0.57142   0.24686   0.00000  Uiso   1.00
O430   O     0.87185   0.42858   0.25314   0.00000  Uiso   1.00
O431   O     0.89496   0.58086   0.25502   0.00000  Uiso   1.00
O432   O     0.77171   0.41914   0.24498   0.00000  Uiso   1.00
O433   O     0.75518   0.49263   0.30855   0.00000  Uiso   1.00
O434   O     0.91149   0.50737   0.19145   0.00000  Uiso   1.00
O435   O     0.85532   0.50207   0.31671   0.00000  Uiso   1.00
O436   O     0.81134   0.49793   0.18329   0.00000  Uiso   1.00
O437   O     0.87873   0.35937   0.29433   0.00000  Uiso   1.00
C438   C     0.94217   0.36722   0.28311   0.00000  Uiso   1.00
H439   H     0.95849   0.36739   0.24772   0.00000  Uiso   1.00
H440   H     0.95894   0.33667   0.29211   0.00000  Uiso   1.00
H441   H     0.96198   0.40682   0.30264   0.00000  Uiso   1.00
O442   O     0.78790   0.64063   0.20570   0.00000  Uiso   1.00
C443   C     0.72445   0.63271   0.21697   0.00000  Uiso   1.00
H444   H     0.70762   0.66333   0.20813   0.00000  Uiso   1.00
H445   H     0.70819   0.63238   0.25234   0.00000  Uiso   1.00
H446   H     0.70464   0.59317   0.19733   0.00000  Uiso   1.00
C447   C     0.99324   0.55780   0.30339   0.00000  Uiso   1.00
C448   C     0.94609   0.58549   0.32870   0.00000  Uiso   1.00
C449   C     0.94905   0.62272   0.36923   0.00000  Uiso   1.00
C450   C     0.66786   0.63775   0.38726   0.00000  Uiso   1.00
C451   C     0.71724   0.61684   0.36373   0.00000  Uiso   1.00
C452   C     0.71359   0.57950   0.32317   0.00000  Uiso   1.00
H453   H     0.90424   0.58213   0.31988   0.00000  Uiso   1.00
H454   H     0.91041   0.64056   0.38639   0.00000  Uiso   1.00
H455   H     0.67057   0.66657   0.41855   0.00000  Uiso   1.00
H456   H     0.75946   0.63010   0.37678   0.00000  Uiso   1.00
H457   H     0.75648   0.57249   0.31174   0.00000  Uiso   1.00
C458   C     0.67335   0.44205   0.19671   0.00000  Uiso   1.00
C459   C     0.72048   0.41428   0.17145   0.00000  Uiso   1.00
C460   C     0.71724   0.37645   0.13124   0.00000  Uiso   1.00
C461   C     0.99823   0.36094   0.11344   0.00000  Uiso   1.00
C462   C     0.94902   0.38225   0.13679   0.00000  Uiso   1.00
C463   C     0.95295   0.42023   0.17700   0.00000  Uiso   1.00
H464   H     0.76250   0.41794   0.18011   0.00000  Uiso   1.00
H465   H     0.75583   0.35849   0.11417   0.00000  Uiso   1.00
H466   H     0.99528   0.66489   0.08245   0.00000  Uiso   1.00
H467   H     0.90672   0.36881   0.12384   0.00000  Uiso   1.00
H468   H     0.91017   0.42757   0.18825   0.00000  Uiso   1.00
C469   C     0.18177   0.93373   0.25222   0.00000  Uiso   1.00
C470   C     0.15156   0.73294   0.24779   0.00000  Uiso   1.00
C471   C     0.09652   0.79900   0.03092   0.00000  Uiso   1.00
C472   C     0.23846   0.86209   0.46724   0.00000  Uiso   1.00
C473   C     0.05596   0.78713   0.00182   0.00000  Uiso   1.00
C474   C     0.27904   0.87369   0.49629   0.00000  Uiso   1.00
C475   C     0.18537   0.99147   0.25932   0.00000  Uiso   1.00
C476   C     0.14794   0.67519   0.24071   0.00000  Uiso   1.00
C477   C     0.12998   0.82916   0.33216   0.00000  Uiso   1.00
C478   C     0.20336   0.83743   0.16781   0.00000  Uiso   1.00
C479   C     0.10945   0.82219   0.37736   0.00000  Uiso   1.00
C480   C     0.22397   0.84341   0.12234   0.00000  Uiso   1.00
C481   C     0.03189   0.78783   0.43241   0.00000  Uiso   1.00
C482   C     0.30256   0.87437   0.06622   0.00000  Uiso   1.00
C483   C     0.04932   0.79903   0.39094   0.00000  Uiso   1.00
C484   C     0.28463   0.86464   0.10818   0.00000  Uiso   1.00
C485   C     0.15135   0.83577   0.40616   0.00000  Uiso   1.00
C486   C     0.18200   0.83021   0.09362   0.00000  Uiso   1.00
C487   C     0.13496   0.82505   0.44846   0.00000  Uiso   1.00
C488   C     0.19919   0.83844   0.05052   0.00000  Uiso   1.00
C489   C     0.07414   0.80016   0.46104   0.00000  Uiso   1.00
C490   C     0.26038   0.86203   0.03755   0.00000  Uiso   1.00
C491   C     0.17715   0.83759   0.47824   0.00000  Uiso   1.00
C492   C     0.15733   0.82502   0.02042   0.00000  Uiso   1.00
Cu493  Cu    0.10737   0.82775   0.24516   0.00000  Uiso   1.00
Cu494  Cu    0.22596   0.83892   0.25483   0.00000  Uiso   1.00
H495   H     0.00977   0.76741   0.01138   0.00000  Uiso   1.00
H496   H     0.32561   0.89219   0.48632   0.00000  Uiso   1.00
H497   H     0.13597   0.81463   0.10628   0.00000  Uiso   1.00
H498   H     0.19658   0.85415   0.39424   0.00000  Uiso   1.00
H499   H     0.31792   0.87522   0.12993   0.00000  Uiso   1.00
H500   H     0.01611   0.78815   0.36911   0.00000  Uiso   1.00
H501   H     0.31870   0.76895   0.44198   0.00000  Uiso   1.00
H502   H     0.01609   0.89207   0.05630   0.00000  Uiso   1.00
H503   H     0.07835   0.78643   0.06126   0.00000  Uiso   1.00
H504   H     0.25739   0.87287   0.43626   0.00000  Uiso   1.00
N505   N     0.31506   0.84735   0.26212   0.00000  Uiso   1.00
N506   N     0.01827   0.81932   0.23788   0.00000  Uiso   1.00
O507   O     0.12815   0.90476   0.24686   0.00000  Uiso   1.00
O508   O     0.20518   0.76191   0.25314   0.00000  Uiso   1.00
O509   O     0.22829   0.91420   0.25502   0.00000  Uiso   1.00
O510   O     0.10504   0.75247   0.24498   0.00000  Uiso   1.00
O511   O     0.08851   0.82597   0.30855   0.00000  Uiso   1.00
O512   O     0.24482   0.84070   0.19145   0.00000  Uiso   1.00
O513   O     0.18866   0.83540   0.31671   0.00000  Uiso   1.00
O514   O     0.14468   0.83126   0.18329   0.00000  Uiso   1.00
O515   O     0.21206   0.69270   0.29433   0.00000  Uiso   1.00
C516   C     0.27550   0.70055   0.28311   0.00000  Uiso   1.00
H517   H     0.29182   0.70072   0.24772   0.00000  Uiso   1.00
H518   H     0.29228   0.67001   0.29211   0.00000  Uiso   1.00
H519   H     0.29532   0.74016   0.30264   0.00000  Uiso   1.00
O520   O     0.12123   0.97396   0.20570   0.00000  Uiso   1.00
C521   C     0.05779   0.96604   0.21697   0.00000  Uiso   1.00
H522   H     0.04096   0.99667   0.20813   0.00000  Uiso   1.00
H523   H     0.04152   0.96572   0.25234   0.00000  Uiso   1.00
H524   H     0.03798   0.92651   0.19733   0.00000  Uiso   1.00
C525   C     0.32657   0.89113   0.30339   0.00000  Uiso   1.00
C526   C     0.27943   0.91882   0.32870   0.00000  Uiso   1.00
C527   C     0.28239   0.95606   0.36923   0.00000  Uiso   1.00
C528   C     0.00119   0.97109   0.38726   0.00000  Uiso   1.00
C529   C     0.05057   0.95017   0.36373   0.00000  Uiso   1.00
C530   C     0.04692   0.91284   0.32317   0.00000  Uiso   1.00
H531   H     0.23757   0.91546   0.31988   0.00000  Uiso   1.00
H532   H     0.24374   0.97390   0.38639   0.00000  Uiso   1.00
H533   H     0.00390   0.99990   0.41855   0.00000  Uiso   1.00
H534   H     0.09279   0.96343   0.37678   0.00000  Uiso   1.00
H535   H     0.08981   0.90582   0.31174   0.00000  Uiso   1.00
C536   C     0.00669   0.77538   0.19671   0.00000  Uiso   1.00
C537   C     0.05381   0.74762   0.17145   0.00000  Uiso   1.00
C538   C     0.05058   0.70979   0.13124   0.00000  Uiso   1.00
C539   C     0.33156   0.69428   0.11344   0.00000  Uiso   1.00
C540   C     0.28235   0.71559   0.13679   0.00000  Uiso   1.00
C541   C     0.28628   0.75356   0.17700   0.00000  Uiso   1.00
H542   H     0.09584   0.75127   0.18011   0.00000  Uiso   1.00
H543   H     0.08917   0.69182   0.11417   0.00000  Uiso   1.00
H544   H     0.32861   0.99823   0.08245   0.00000  Uiso   1.00
H545   H     0.24005   0.70214   0.12384   0.00000  Uiso   1.00
H546   H     0.24350   0.76091   0.18825   0.00000  Uiso   1.00
C547   C     0.51510   0.93373   0.25222   0.00000  Uiso   1.00
C548   C     0.48489   0.73294   0.24779   0.00000  Uiso   1.00
C549   C     0.42986   0.79900   0.03092   0.00000  Uiso   1.00
C550   C     0.57180   0.86209   0.46724   0.00000  Uiso   1.00
C551   C     0.38929   0.78713   0.00182   0.00000  Uiso   1.00
C552   C     0.61238   0.87369   0.49629   0.00000  Uiso   1.00
C553   C     0.51870   0.99147   0.25932   0.00000  Uiso   1.00
C554   C     0.48127   0.67519   0.24071   0.00000  Uiso   1.00
C555   C     0.46331   0.82916   0.33216   0.00000  Uiso   1.00
C556   C     0.53669   0.83743   0.16781   0.00000  Uiso   1.00
C557   C     0.44278   0.82219   0.37736   0.00000  Uiso   1.00
C558   C     0.55731   0.84341   0.12234   0.00000  Uiso   1.00
C559   C     0.36522   0.78783   0.43241   0.00000  Uiso   1.00
C560   C     0.63589   0.87437   0.06622   0.00000  Uiso   1.00
C561   C     0.38265   0.79903   0.39094   0.00000  Uiso   1.00
C562   C     0.61796   0.86464   0.10818   0.00000  Uiso   1.00
C563   C     0.48469   0.83577   0.40616   0.00000  Uiso   1.00
C564   C     0.51533   0.83021   0.09362   0.00000  Uiso   1.00
C565   C     0.46829   0.82505   0.44846   0.00000  Uiso   1.00
C566   C     0.53253   0.83844   0.05052   0.00000  Uiso   1.00
C567   C     0.40748   0.80016   0.46104   0.00000  Uiso   1.00
C568   C     0.59372   0.86203   0.03755   0.00000  Uiso   1.00
C569   C     0.51048   0.83759   0.47824   0.00000  Uiso   1.00
C570   C     0.49066   0.82502   0.02042   0.00000  Uiso   1.00
Cu571  Cu    0.44071   0.82775   0.24516   0.00000  Uiso   1.00
Cu572  Cu    0.55929   0.83892   0.25483   0.00000  Uiso   1.00
H573   H     0.34311   0.76741   0.01138   0.00000  Uiso   1.00
H574   H     0.65895   0.89219   0.48632   0.00000  Uiso   1.00
H575   H     0.46931   0.81463   0.10628   0.00000  Uiso   1.00
H576   H     0.52991   0.85415   0.39424   0.00000  Uiso   1.00
H577   H     0.65125   0.87522   0.12993   0.00000  Uiso   1.00
H578   H     0.34944   0.78815   0.36911   0.00000  Uiso   1.00
H579   H     0.65203   0.76895   0.44198   0.00000  Uiso   1.00
H580   H     0.34943   0.89207   0.05630   0.00000  Uiso   1.00
H581   H     0.41168   0.78643   0.06126   0.00000  Uiso   1.00
H582   H     0.59073   0.87287   0.43626   0.00000  Uiso   1.00
N583   N     0.64839   0.84735   0.26212   0.00000  Uiso   1.00
N584   N     0.35161   0.81932   0.23788   0.00000  Uiso   1.00
O585   O     0.46148   0.90476   0.24686   0.00000  Uiso   1.00
O586   O     0.53852   0.76191   0.25314   0.00000  Uiso   1.00
O587   O     0.56163   0.91420   0.25502   0.00000  Uiso   1.00
O588   O     0.43837   0.75247   0.24498   0.00000  Uiso   1.00
O589   O     0.42185   0.82597   0.30855   0.00000  Uiso   1.00
O590   O     0.57815   0.84070   0.19145   0.00000  Uiso   1.00
O591   O     0.52199   0.83540   0.31671   0.00000  Uiso   1.00
O592   O     0.47801   0.83126   0.18329   0.00000  Uiso   1.00
O593   O     0.54539   0.69270   0.29433   0.00000  Uiso   1.00
C594   C     0.60883   0.70055   0.28311   0.00000  Uiso   1.00
H595   H     0.62515   0.70072   0.24772   0.00000  Uiso   1.00
H596   H     0.62561   0.67001   0.29211   0.00000  Uiso   1.00
H597   H     0.62865   0.74016   0.30264   0.00000  Uiso   1.00
O598   O     0.45456   0.97396   0.20570   0.00000  Uiso   1.00
C599   C     0.39112   0.96604   0.21697   0.00000  Uiso   1.00
H600   H     0.37429   0.99667   0.20813   0.00000  Uiso   1.00
H601   H     0.37485   0.96572   0.25234   0.00000  Uiso   1.00
H602   H     0.37131   0.92651   0.19733   0.00000  Uiso   1.00
C603   C     0.65991   0.89113   0.30339   0.00000  Uiso   1.00
C604   C     0.61276   0.91882   0.32870   0.00000  Uiso   1.00
C605   C     0.61572   0.95606   0.36923   0.00000  Uiso   1.00
C606   C     0.33453   0.97109   0.38726   0.00000  Uiso   1.00
C607   C     0.38391   0.95017   0.36373   0.00000  Uiso   1.00
C608   C     0.38025   0.91284   0.32317   0.00000  Uiso   1.00
H609   H     0.57090   0.91546   0.31988   0.00000  Uiso   1.00
H610   H     0.57707   0.97390   0.38639   0.00000  Uiso   1.00
H611   H     0.33723   0.99990   0.41855   0.00000  Uiso   1.00
H612   H     0.42612   0.96343   0.37678   0.00000  Uiso   1.00
H613   H     0.42315   0.90582   0.31174   0.00000  Uiso   1.00
C614   C     0.34002   0.77538   0.19671   0.00000  Uiso   1.00
C615   C     0.38714   0.74762   0.17145   0.00000  Uiso   1.00
C616   C     0.38391   0.70979   0.13124   0.00000  Uiso   1.00
C617   C     0.66489   0.69428   0.11344   0.00000  Uiso   1.00
C618   C     0.61569   0.71559   0.13679   0.00000  Uiso   1.00
C619   C     0.61961   0.75356   0.17700   0.00000  Uiso   1.00
H620   H     0.42917   0.75127   0.18011   0.00000  Uiso   1.00
H621   H     0.42250   0.69182   0.11417   0.00000  Uiso   1.00
H622   H     0.66195   0.99823   0.08245   0.00000  Uiso   1.00
H623   H     0.57339   0.70214   0.12384   0.00000  Uiso   1.00
H624   H     0.57684   0.76091   0.18825   0.00000  Uiso   1.00
C625   C     0.84844   0.93373   0.25222   0.00000  Uiso   1.00
C626   C     0.81823   0.73294   0.24779   0.00000  Uiso   1.00
C627   C     0.76319   0.79900   0.03092   0.00000  Uiso   1.00
C628   C     0.90513   0.86209   0.46724   0.00000  Uiso   1.00
C629   C     0.72263   0.78713   0.00182   0.00000  Uiso   1.00
C630   C     0.94571   0.87369   0.49629   0.00000  Uiso   1.00
C631   C     0.85204   0.99147   0.25932   0.00000  Uiso   1.00
C632   C     0.81460   0.67519   0.24071   0.00000  Uiso   1.00
C633   C     0.79665   0.82916   0.33216   0.00000  Uiso   1.00
C634   C     0.87002   0.83743   0.16781   0.00000  Uiso   1.00
C635   C     0.77612   0.82219   0.37736   0.00000  Uiso   1.00
C636   C     0.89064   0.84341   0.12234   0.00000  Uiso   1.00
C637   C     0.69855   0.78783   0.43241   0.00000  Uiso   1.00
C638   C     0.96923   0.87437   0.06622   0.00000  Uiso   1.00
C639   C     0.71598   0.79903   0.39094   0.00000  Uiso   1.00
C640   C     0.95129   0.86464   0.10818   0.00000  Uiso   1.00
C641   C     0.81802   0.83577   0.40616   0.00000  Uiso   1.00
C642   C     0.84866   0.83021   0.09362   0.00000  Uiso   1.00
C643   C     0.80163   0.82505   0.44846   0.00000  Uiso   1.00
C644   C     0.86586   0.83844   0.05052   0.00000  Uiso   1.00
C645   C     0.74081   0.80016   0.46104   0.00000  Uiso   1.00
C646   C     0.92705   0.86203   0.03755   0.00000  Uiso   1.00
C647   C     0.84381   0.83759   0.47824   0.00000  Uiso   1.00
C648   C     0.82399   0.82502   0.02042   0.00000  Uiso   1.00
Cu649  Cu    0.77404   0.82775   0.24516   0.00000  Uiso   1.00
Cu650  Cu    0.89263   0.83892   0.25483   0.00000  Uiso   1.00
H651   H     0.67644   0.76741   0.01138   0.00000  Uiso   1.00
H652   H     0.99228   0.89219   0.48632   0.00000  Uiso   1.00
H653   H     0.80264   0.81463   0.10628   0.00000  Uiso   1.00
H654   H     0.86325   0.85415   0.39424   0.00000  Uiso   1.00
H655   H     0.98458   0.87522   0.12993   0.00000  Uiso   1.00
H656   H     0.68277   0.78815   0.36911   0.00000  Uiso   1.00
H657   H     0.98537   0.76895   0.44198   0.00000  Uiso   1.00
H658   H     0.68276   0.89207   0.05630   0.00000  Uiso   1.00
H659   H     0.74501   0.78643   0.06126   0.00000  Uiso   1.00
H660   H     0.92406   0.87287   0.43626   0.00000  Uiso   1.00
N661   N     0.98173   0.84735   0.26212   0.00000  Uiso   1.00
N662   N     0.68494   0.81932   0.23788   0.00000  Uiso   1.00
O663   O     0.79482   0.90476   0.24686   0.00000  Uiso   1.00
O664   O     0.87185   0.76191   0.25314   0.00000  Uiso   1.00
O665   O     0.89496   0.91420   0.25502   0.00000  Uiso   1.00
O666   O     0.77171   0.75247   0.24498   0.00000  Uiso   1.00
O667   O     0.75518   0.82597   0.30855   0.00000  Uiso   1.00
O668   O     0.91149   0.84070   0.19145   0.00000  Uiso   1.00
O669   O     0.85532   0.83540   0.31671   0.00000  Uiso   1.00
O670   O     0.81134   0.83126   0.18329   0.00000  Uiso   1.00
O671   O     0.87873   0.69270   0.29433   0.00000  Uiso   1.00
C672   C     0.94217   0.70055   0.28311   0.00000  Uiso   1.00
H673   H     0.95849   0.70072   0.24772   0.00000  Uiso   1.00
H674   H     0.95894   0.67001   0.29211   0.00000  Uiso   1.00
H675   H     0.96198   0.74016   0.30264   0.00000  Uiso   1.00
O676   O     0.78790   0.97396   0.20570   0.00000  Uiso   1.00
C677   C     0.72445   0.96604   0.21697   0.00000  Uiso   1.00
H678   H     0.70762   0.99667   0.20813   0.00000  Uiso   1.00
H679   H     0.70819   0.96572   0.25234   0.00000  Uiso   1.00
H680   H     0.70464   0.92651   0.19733   0.00000  Uiso   1.00
C681   C     0.99324   0.89113   0.30339   0.00000  Uiso   1.00
C682   C     0.94609   0.91882   0.32870   0.00000  Uiso   1.00
C683   C     0.94905   0.95606   0.36923   0.00000  Uiso   1.00
C684   C     0.66786   0.97109   0.38726   0.00000  Uiso   1.00
C685   C     0.71724   0.95017   0.36373   0.00000  Uiso   1.00
C686   C     0.71359   0.91284   0.32317   0.00000  Uiso   1.00
H687   H     0.90424   0.91546   0.31988   0.00000  Uiso   1.00
H688   H     0.91041   0.97390   0.38639   0.00000  Uiso   1.00
H689   H     0.67057   0.99990   0.41855   0.00000  Uiso   1.00
H690   H     0.75946   0.96343   0.37678   0.00000  Uiso   1.00
H691   H     0.75648   0.90582   0.31174   0.00000  Uiso   1.00
C692   C     0.67335   0.77538   0.19671   0.00000  Uiso   1.00
C693   C     0.72048   0.74762   0.17145   0.00000  Uiso   1.00
C694   C     0.71724   0.70979   0.13124   0.00000  Uiso   1.00
C695   C     0.99823   0.69428   0.11344   0.00000  Uiso   1.00
C696   C     0.94902   0.71559   0.13679   0.00000  Uiso   1.00
C697   C     0.95295   0.75356   0.17700   0.00000  Uiso   1.00
H698   H     0.76250   0.75127   0.18011   0.00000  Uiso   1.00
H699   H     0.75583   0.69182   0.11417   0.00000  Uiso   1.00
H700   H     0.99528   0.99823   0.08245   0.00000  Uiso   1.00
H701   H     0.90672   0.70214   0.12384   0.00000  Uiso   1.00
H702   H     0.91017   0.76091   0.18825   0.00000  Uiso   1.00
C703   C     0.18177   0.26707   0.75222   0.00000  Uiso   1.00
C704   C     0.15156   0.06627   0.74779   0.00000  Uiso   1.00
C705   C     0.09652   0.13234   0.53092   0.00000  Uiso   1.00
C706   C     0.23846   0.19542   0.96724   0.00000  Uiso   1.00
C707   C     0.05596   0.12046   0.50182   0.00000  Uiso   1.00
C708   C     0.27904   0.20703   0.99629   0.00000  Uiso   1.00
C709   C     0.18537   0.32481   0.75932   0.00000  Uiso   1.00
C710   C     0.14794   0.00853   0.74071   0.00000  Uiso   1.00
C711   C     0.12998   0.16249   0.83216   0.00000  Uiso   1.00
C712   C     0.20336   0.17076   0.66781   0.00000  Uiso   1.00
C713   C     0.10945   0.15552   0.87736   0.00000  Uiso   1.00
C714   C     0.22397   0.17674   0.62234   0.00000  Uiso   1.00
C715   C     0.03189   0.12116   0.93241   0.00000  Uiso   1.00
C716   C     0.30256   0.20771   0.56622   0.00000  Uiso   1.00
C717   C     0.04932   0.13236   0.89094   0.00000  Uiso   1.00
C718   C     0.28463   0.19797   0.60818   0.00000  Uiso   1.00
C719   C     0.15135   0.16910   0.90616   0.00000  Uiso   1.00
C720   C     0.18200   0.16355   0.59362   0.00000  Uiso   1.00
C721   C     0.13496   0.15839   0.94846   0.00000  Uiso   1.00
C722   C     0.19919   0.17177   0.55052   0.00000  Uiso   1.00
C723   C     0.07414   0.13349   0.96104   0.00000  Uiso   1.00
C724   C     0.26038   0.19536   0.53755   0.00000  Uiso   1.00
C725   C     0.17715   0.17093   0.97824   0.00000  Uiso   1.00
C726   C     0.15733   0.15835   0.52042   0.00000  Uiso   1.00
Cu727  Cu    0.10737   0.16108   0.74516   0.00000  Uiso   1.00
Cu728  Cu    0.22596   0.17225   0.75483   0.00000  Uiso   1.00
H729   H     0.00977   0.10074   0.51138   0.00000  Uiso   1.00
H730   H     0.32561   0.22552   0.98632   0.00000  Uiso   1.00
H731   H     0.13597   0.14796   0.60628   0.00000  Uiso   1.00
H732   H     0.19658   0.18748   0.89424   0.00000  Uiso   1.00
H733   H     0.31792   0.20855   0.62993   0.00000  Uiso   1.00
H734   H     0.01611   0.12148   0.86911   0.00000  Uiso   1.00
H735   H     0.31870   0.10228   0.94198   0.00000  Uiso   1.00
H736   H     0.01609   0.22540   0.55630   0.00000  Uiso   1.00
H737   H     0.07835   0.11976   0.56126   0.00000  Uiso   1.00
H738   H     0.25739   0.20621   0.93626   0.00000  Uiso   1.00
N739   N     0.31506   0.18068   0.76212   0.00000  Uiso   1.00
N740   N     0.01827   0.15265   0.73788   0.00000  Uiso   1.00
O741   O     0.12815   0.23809   0.74686   0.00000  Uiso   1.00
O742   O     0.20518   0.09524   0.75314   0.00000  Uiso   1.00
O743   O     0.22829   0.24753   0.75502   0.00000  Uiso   1.00
O744   O     0.10504   0.08580   0.74498   0.00000  Uiso   1.00
O745   O     0.08851   0.15930   0.80855   0.00000  Uiso   1.00
O746   O     0.24482   0.17403   0.69145   0.00000  Uiso   1.00
O747   O     0.18866   0.16874   0.81671   0.00000  Uiso   1.00
O748   O     0.14468   0.16460   0.68329   0.00000  Uiso   1.00
O749   O     0.21206   0.02604   0.79433   0.00000  Uiso   1.00
C750   C     0.27550   0.03389   0.78311   0.00000  Uiso   1.00
H751   H     0.29182   0.03405   0.74772   0.00000  Uiso   1.00
H752   H     0.29228   0.00334   0.79211   0.00000  Uiso   1.00
H753   H     0.29532   0.07349   0.80264   0.00000  Uiso   1.00
O754   O     0.12123   0.30730   0.70570   0.00000  Uiso   1.00
C755   C     0.05779   0.29938   0.71697   0.00000  Uiso   1.00
H756   H     0.04096   0.33000   0.70813   0.00000  Uiso   1.00
H757   H     0.04152   0.29905   0.75234   0.00000  Uiso   1.00
H758   H     0.03798   0.25984   0.69733   0.00000  Uiso   1.00
C759   C     0.32657   0.22446   0.80339   0.00000  Uiso   1.00
C760   C     0.27943   0.25215   0.82870   0.00000  Uiso   1.00
C761   C     0.28239   0.28939   0.86923   0.00000  Uiso   1.00
C762   C     0.00119   0.30442   0.88726   0.00000  Uiso   1.00
C763   C     0.05057   0.28350   0.86373   0.00000  Uiso   1.00
C764   C     0.04692   0.24617   0.82317   0.00000  Uiso   1.00
H765   H     0.23757   0.24879   0.81988   0.00000  Uiso   1.00
H766   H     0.24374   0.30723   0.88639   0.00000  Uiso   1.00
H767   H     0.00390   0.33324   0.91855   0.00000  Uiso   1.00
H768   H     0.09279   0.29677   0.87678   0.00000  Uiso   1.00
H769   H     0.08981   0.23915   0.81174   0.00000  Uiso   1.00
C770   C     0.00669   0.10872   0.69671   0.00000  Uiso   1.00
C771   C     0.05381   0.08095   0.67145   0.00000  Uiso   1.00
C772   C     0.05058   0.04312   0.63124   0.00000  Uiso   1.00
C773   C     0.33156   0.02761   0.61344   0.00000  Uiso   1.00
C774   C     0.28235   0.04892   0.63679   0.00000  Uiso   1.00
C775   C     0.28628   0.08690   0.67700   0.00000  Uiso   1.00
H776   H     0.09584   0.08460   0.68011   0.00000  Uiso   1.00
H777   H     0.08917   0.02516   0.61417   0.00000  Uiso   1.00
H778   H     0.32861   0.33156   0.58245   0.00000  Uiso   1.00
H779   H     0.24005   0.03548   0.62384   0.00000  Uiso   1.00
H780   H     0.24350   0.09424   0.68825   0.00000  Uiso   1.00
C781   C     0.51510   0.26707   0.75222   0.00000  Uiso   1.00
C782   C     0.48489   0.06627   0.74779   0.00000  Uiso   1.00
C783   C     0.42986   0.13234   0.53092   0.00000  Uiso   1.00
C784   C     0.57180   0.19542   0.96724   0.00000  Uiso   1.00
C785   C     0.38929   0.12046   0.50182   0.00000  Uiso   1.00
C786   C     0.61238   0.20703   0.99629   0.00000  Uiso   1.00
C787   C     0.51870   0.32481   0.75932   0.00000  Uiso   1.00
C788   C     0.48127   0.00853   0.74071   0.00000  Uiso   1.00
C789   C     0.46331   0.16249   0.83216   0.00000  Uiso   1.00
C790   C     0.53669   0.17076   0.66781   0.00000  Uiso   1.00
C791   C     0.44278   0.15552   0.87736   0.00000  Uiso   1.00
C792   C     0.55731   0.17674   0.62234   0.00000  Uiso   1.00
C793   C     0.36522   0.12116   0.93241   0.00000  Uiso   1.00
C794   C     0.63589   0.20771   0.56622   0.00000  Uiso   1.00
C795   C     0.38265   0.13236   0.89094   0.00000  Uiso   1.00
C796   C     0.61796   0.19797   0.60818   0.00000  Uiso   1.00
C797   C     0.48469   0.16910   0.90616   0.00000  Uiso   1.00
C798   C     0.51533   0.16355   0.59362   0.00000  Uiso   1.00
C799   C     0.46829   0.15839   0.94846   0.00000  Uiso   1.00
C800   C     0.53253   0.17177   0.55052   0.00000  Uiso   1.00
C801   C     0.40748   0.13349   0.96104   0.00000  Uiso   1.00
C802   C     0.59372   0.19536   0.53755   0.00000  Uiso   1.00
C803   C     0.51048   0.17093   0.97824   0.00000  Uiso   1.00
C804   C     0.49066   0.15835   0.52042   0.00000  Uiso   1.00
Cu805  Cu    0.44071   0.16108   0.74516   0.00000  Uiso   1.00
Cu806  Cu    0.55929   0.17225   0.75483   0.00000  Uiso   1.00
H807   H     0.34311   0.10074   0.51138   0.00000  Uiso   1.00
H808   H     0.65895   0.22552   0.98632   0.00000  Uiso   1.00
H809   H     0.46931   0.14796   0.60628   0.00000  Uiso   1.00
H810   H     0.52991   0.18748   0.89424   0.00000  Uiso   1.00
H811   H     0.65125   0.20855   0.62993   0.00000  Uiso   1.00
H812   H     0.34944   0.12148   0.86911   0.00000  Uiso   1.00
H813   H     0.65203   0.10228   0.94198   0.00000  Uiso   1.00
H814   H     0.34943   0.22540   0.55630   0.00000  Uiso   1.00
H815   H     0.41168   0.11976   0.56126   0.00000  Uiso   1.00
H816   H     0.59073   0.20621   0.93626   0.00000  Uiso   1.00
N817   N     0.64839   0.18068   0.76212   0.00000  Uiso   1.00
N818   N     0.35161   0.15265   0.73788   0.00000  Uiso   1.00
O819   O     0.46148   0.23809   0.74686   0.00000  Uiso   1.00
O820   O     0.53852   0.09524   0.75314   0.00000  Uiso   1.00
O821   O     0.56163   0.24753   0.75502   0.00000  Uiso   1.00
O822   O     0.43837   0.08580   0.74498   0.00000  Uiso   1.00
O823   O     0.42185   0.15930   0.80855   0.00000  Uiso   1.00
O824   O     0.57815   0.17403   0.69145   0.00000  Uiso   1.00
O825   O     0.52199   0.16874   0.81671   0.00000  Uiso   1.00
O826   O     0.47801   0.16460   0.68329   0.00000  Uiso   1.00
O827   O     0.54539   0.02604   0.79433   0.00000  Uiso   1.00
C828   C     0.60883   0.03389   0.78311   0.00000  Uiso   1.00
H829   H     0.62515   0.03405   0.74772   0.00000  Uiso   1.00
H830   H     0.62561   0.00334   0.79211   0.00000  Uiso   1.00
H831   H     0.62865   0.07349   0.80264   0.00000  Uiso   1.00
O832   O     0.45456   0.30730   0.70570   0.00000  Uiso   1.00
C833   C     0.39112   0.29938   0.71697   0.00000  Uiso   1.00
H834   H     0.37429   0.33000   0.70813   0.00000  Uiso   1.00
H835   H     0.37485   0.29905   0.75234   0.00000  Uiso   1.00
H836   H     0.37131   0.25984   0.69733   0.00000  Uiso   1.00
C837   C     0.65991   0.22446   0.80339   0.00000  Uiso   1.00
C838   C     0.61276   0.25215   0.82870   0.00000  Uiso   1.00
C839   C     0.61572   0.28939   0.86923   0.00000  Uiso   1.00
C840   C     0.33453   0.30442   0.88726   0.00000  Uiso   1.00
C841   C     0.38391   0.28350   0.86373   0.00000  Uiso   1.00
C842   C     0.38025   0.24617   0.82317   0.00000  Uiso   1.00
H843   H     0.57090   0.24879   0.81988   0.00000  Uiso   1.00
H844   H     0.57707   0.30723   0.88639   0.00000  Uiso   1.00
H845   H     0.33723   0.33324   0.91855   0.00000  Uiso   1.00
H846   H     0.42612   0.29677   0.87678   0.00000  Uiso   1.00
H847   H     0.42315   0.23915   0.81174   0.00000  Uiso   1.00
C848   C     0.34002   0.10872   0.69671   0.00000  Uiso   1.00
C849   C     0.38714   0.08095   0.67145   0.00000  Uiso   1.00
C850   C     0.38391   0.04312   0.63124   0.00000  Uiso   1.00
C851   C     0.66489   0.02761   0.61344   0.00000  Uiso   1.00
C852   C     0.61569   0.04892   0.63679   0.00000  Uiso   1.00
C853   C     0.61961   0.08690   0.67700   0.00000  Uiso   1.00
H854   H     0.42917   0.08460   0.68011   0.00000  Uiso   1.00
H855   H     0.42250   0.02516   0.61417   0.00000  Uiso   1.00
H856   H     0.66195   0.33156   0.58245   0.00000  Uiso   1.00
H857   H     0.57339   0.03548   0.62384   0.00000  Uiso   1.00
H858   H     0.57684   0.09424   0.68825   0.00000  Uiso   1.00
C859   C     0.84844   0.26707   0.75222   0.00000  Uiso   1.00
C860   C     0.81823   0.06627   0.74779   0.00000  Uiso   1.00
C861   C     0.76319   0.13234   0.53092   0.00000  Uiso   1.00
C862   C     0.90513   0.19542   0.96724   0.00000  Uiso   1.00
C863   C     0.72263   0.12046   0.50182   0.00000  Uiso   1.00
C864   C     0.94571   0.20703   0.99629   0.00000  Uiso   1.00
C865   C     0.85204   0.32481   0.75932   0.00000  Uiso   1.00
C866   C     0.81460   0.00853   0.74071   0.00000  Uiso   1.00
C867   C     0.79665   0.16249   0.83216   0.00000  Uiso   1.00
C868   C     0.87002   0.17076   0.66781   0.00000  Uiso   1.00
C869   C     0.77612   0.15552   0.87736   0.00000  Uiso   1.00
C870   C     0.89064   0.17674   0.62234   0.00000  Uiso   1.00
C871   C     0.69855   0.12116   0.93241   0.00000  Uiso   1.00
C872   C     0.96923   0.20771   0.56622   0.00000  Uiso   1.00
C873   C     0.71598   0.13236   0.89094   0.00000  Uiso   1.00
C874   C     0.95129   0.19797   0.60818   0.00000  Uiso   1.00
C875   C     0.81802   0.16910   0.90616   0.00000  Uiso   1.00
C876   C     0.84866   0.16355   0.59362   0.00000  Uiso   1.00
C877   C     0.80163   0.15839   0.94846   0.00000  Uiso   1.00
C878   C     0.86586   0.17177   0.55052   0.00000  Uiso   1.00
C879   C     0.74081   0.13349   0.96104   0.00000  Uiso   1.00
C880   C     0.92705   0.19536   0.53755   0.00000  Uiso   1.00
C881   C     0.84381   0.17093   0.97824   0.00000  Uiso   1.00
C882   C     0.82399   0.15835   0.52042   0.00000  Uiso   1.00
Cu883  Cu    0.77404   0.16108   0.74516   0.00000  Uiso   1.00
Cu884  Cu    0.89263   0.17225   0.75483   0.00000  Uiso   1.00
H885   H     0.67644   0.10074   0.51138   0.00000  Uiso   1.00
H886   H     0.99228   0.22552   0.98632   0.00000  Uiso   1.00
H887   H     0.80264   0.14796   0.60628   0.00000  Uiso   1.00
H888   H     0.86325   0.18748   0.89424   0.00000  Uiso   1.00
H889   H     0.98458   0.20855   0.62993   0.00000  Uiso   1.00
H890   H     0.68277   0.12148   0.86911   0.00000  Uiso   1.00
H891   H     0.98537   0.10228   0.94198   0.00000  Uiso   1.00
H892   H     0.68276   0.22540   0.55630   0.00000  Uiso   1.00
H893   H     0.74501   0.11976   0.56126   0.00000  Uiso   1.00
H894   H     0.92406   0.20621   0.93626   0.00000  Uiso   1.00
N895   N     0.98173   0.18068   0.76212   0.00000  Uiso   1.00
N896   N     0.68494   0.15265   0.73788   0.00000  Uiso   1.00
O897   O     0.79482   0.23809   0.74686   0.00000  Uiso   1.00
O898   O     0.87185   0.09524   0.75314   0.00000  Uiso   1.00
O899   O     0.89496   0.24753   0.75502   0.00000  Uiso   1.00
O900   O     0.77171   0.08580   0.74498   0.00000  Uiso   1.00
O901   O     0.75518   0.15930   0.80855   0.00000  Uiso   1.00
O902   O     0.91149   0.17403   0.69145   0.00000  Uiso   1.00
O903   O     0.85532   0.16874   0.81671   0.00000  Uiso   1.00
O904   O     0.81134   0.16460   0.68329   0.00000  Uiso   1.00
O905   O     0.87873   0.02604   0.79433   0.00000  Uiso   1.00
C906   C     0.94217   0.03389   0.78311   0.00000  Uiso   1.00
H907   H     0.95849   0.03405   0.74772   0.00000  Uiso   1.00
H908   H     0.95894   0.00334   0.79211   0.00000  Uiso   1.00
H909   H     0.96198   0.07349   0.80264   0.00000  Uiso   1.00
O910   O     0.78790   0.30730   0.70570   0.00000  Uiso   1.00
C911   C     0.72445   0.29938   0.71697   0.00000  Uiso   1.00
H912   H     0.70762   0.33000   0.70813   0.00000  Uiso   1.00
H913   H     0.70819   0.29905   0.75234   0.00000  Uiso   1.00
H914   H     0.70464   0.25984   0.69733   0.00000  Uiso   1.00
C915   C     0.99324   0.22446   0.80339   0.00000  Uiso   1.00
C916   C     0.94609   0.25215   0.82870   0.00000  Uiso   1.00
C917   C     0.94905   0.28939   0.86923   0.00000  Uiso   1.00
C918   C     0.66786   0.30442   0.88726   0.00000  Uiso   1.00
C919   C     0.71724   0.28350   0.86373   0.00000  Uiso   1.00
C920   C     0.71359   0.24617   0.82317   0.00000  Uiso   1.00
H921   H     0.90424   0.24879   0.81988   0.00000  Uiso   1.00
H922   H     0.91041   0.30723   0.88639   0.00000  Uiso   1.00
H923   H     0.67057   0.33324   0.91855   0.00000  Uiso   1.00
H924   H     0.75946   0.29677   0.87678   0.00000  Uiso   1.00
H925   H     0.75648   0.23915   0.81174   0.00000  Uiso   1.00
C926   C     0.67335   0.10872   0.69671   0.00000  Uiso   1.00
C927   C     0.72048   0.08095   0.67145   0.00000  Uiso   1.00
C928   C     0.71724   0.04312   0.63124   0.00000  Uiso   1.00
C929   C     0.99823   0.02761   0.61344   0.00000  Uiso   1.00
C930   C     0.94902   0.04892   0.63679   0.00000  Uiso   1.00
C931   C     0.95295   0.08690   0.67700   0.00000  Uiso   1.00
H932   H     0.76250   0.08460   0.68011   0.00000  Uiso   1.00
H933   H     0.75583   0.02516   0.61417   0.00000  Uiso   1.00
H934   H     0.99528   0.33156   0.58245   0.00000  Uiso   1.00
H935   H     0.90672   0.03548   0.62384   0.00000  Uiso   1.00
H936   H     0.91017   0.09424   0.68825   0.00000  Uiso   1.00
C937   C     0.18177   0.60040   0.75222   0.00000  Uiso   1.00
C938   C     0.15156   0.39960   0.74779   0.00000  Uiso   1.00
C939   C     0.09652   0.46567   0.53092   0.00000  Uiso   1.00
C940   C     0.23846   0.52875   0.96724   0.00000  Uiso   1.00
C941   C     0.05596   0.45379   0.50182   0.00000  Uiso   1.00
C942   C     0.27904   0.54036   0.99629   0.00000  Uiso   1.00
C943   C     0.18537   0.65814   0.75932   0.00000  Uiso   1.00
C944   C     0.14794   0.34186   0.74071   0.00000  Uiso   1.00
C945   C     0.12998   0.49582   0.83216   0.00000  Uiso   1.00
C946   C     0.20336   0.50409   0.66781   0.00000  Uiso   1.00
C947   C     0.10945   0.48885   0.87736   0.00000  Uiso   1.00
C948   C     0.22397   0.51007   0.62234   0.00000  Uiso   1.00
C949   C     0.03189   0.45449   0.93241   0.00000  Uiso   1.00
C950   C     0.30256   0.54104   0.56622   0.00000  Uiso   1.00
C951   C     0.04932   0.46569   0.89094   0.00000  Uiso   1.00
C952   C     0.28463   0.53130   0.60818   0.00000  Uiso   1.00
C953   C     0.15135   0.50244   0.90616   0.00000  Uiso   1.00
C954   C     0.18200   0.49688   0.59362   0.00000  Uiso   1.00
C955   C     0.13496   0.49172   0.94846   0.00000  Uiso   1.00
C956   C     0.19919   0.50510   0.55052   0.00000  Uiso   1.00
C957   C     0.07414   0.46682   0.96104   0.00000  Uiso   1.00
C958   C     0.26038   0.52870   0.53755   0.00000  Uiso   1.00
C959   C     0.17715   0.50426   0.97824   0.00000  Uiso   1.00
C960   C     0.15733   0.49168   0.52042   0.00000  Uiso   1.00
Cu961  Cu    0.10737   0.49441   0.74516   0.00000  Uiso   1.00
Cu962  Cu    0.22596   0.50559   0.75483   0.00000  Uiso   1.00
H963   H     0.00977   0.43408   0.51138   0.00000  Uiso   1.00
H964   H     0.32561   0.55886   0.98632   0.00000  Uiso   1.00
H965   H     0.13597   0.48130   0.60628   0.00000  Uiso   1.00
H966   H     0.19658   0.52081   0.89424   0.00000  Uiso   1.00
H967   H     0.31792   0.54188   0.62993   0.00000  Uiso   1.00
H968   H     0.01611   0.45481   0.86911   0.00000  Uiso   1.00
H969   H     0.31870   0.43561   0.94198   0.00000  Uiso   1.00
H970   H     0.01609   0.55874   0.55630   0.00000  Uiso   1.00
H971   H     0.07835   0.45309   0.56126   0.00000  Uiso   1.00
H972   H     0.25739   0.53954   0.93626   0.00000  Uiso   1.00
N973   N     0.31506   0.51401   0.76212   0.00000  Uiso   1.00
N974   N     0.01827   0.48599   0.73788   0.00000  Uiso   1.00
O975   O     0.12815   0.57142   0.74686   0.00000  Uiso   1.00
O976   O     0.20518   0.42858   0.75314   0.00000  Uiso   1.00
O977   O     0.22829   0.58086   0.75502   0.00000  Uiso   1.00
O978   O     0.10504   0.41914   0.74498   0.00000  Uiso   1.00
O979   O     0.08851   0.49263   0.80855   0.00000  Uiso   1.00
O980   O     0.24482   0.50737   0.69145   0.00000  Uiso   1.00
O981   O     0.18866   0.50207   0.81671   0.00000  Uiso   1.00
O982   O     0.14468   0.49793   0.68329   0.00000  Uiso   1.00
O983   O     0.21206   0.35937   0.79433   0.00000  Uiso   1.00
C984   C     0.27550   0.36722   0.78311   0.00000  Uiso   1.00
H985   H     0.29182   0.36739   0.74772   0.00000  Uiso   1.00
H986   H     0.29228   0.33667   0.79211   0.00000  Uiso   1.00
H987   H     0.29532   0.40682   0.80264   0.00000  Uiso   1.00
O988   O     0.12123   0.64063   0.70570   0.00000  Uiso   1.00
C989   C     0.05779   0.63271   0.71697   0.00000  Uiso   1.00
H990   H     0.04096   0.66333   0.70813   0.00000  Uiso   1.00
H991   H     0.04152   0.63238   0.75234   0.00000  Uiso   1.00
H992   H     0.03798   0.59317   0.69733   0.00000  Uiso   1.00
C993   C     0.32657   0.55780   0.80339   0.00000  Uiso   1.00
C994   C     0.27943   0.58549   0.82870   0.00000  Uiso   1.00
C995   C     0.28239   0.62272   0.86923   0.00000  Uiso   1.00
C996   C     0.00119   0.63775   0.88726   0.00000  Uiso   1.00
C997   C     0.05057   0.61684   0.86373   0.00000  Uiso   1.00
C998   C     0.04692   0.57950   0.82317   0.00000  Uiso   1.00
H999   H     0.23757   0.58213   0.81988   0.00000  Uiso   1.00
H1000  H     0.24374   0.64056   0.88639   0.00000  Uiso   1.00
H1001  H     0.00390   0.66657   0.91855   0.00000  Uiso   1.00
H1002  H     0.09279   0.63010   0.87678   0.00000  Uiso   1.00
H1003  H     0.08981   0.57249   0.81174   0.00000  Uiso   1.00
C1004  C     0.00669   0.44205   0.69671   0.00000  Uiso   1.00
C1005  C     0.05381   0.41428   0.67145   0.00000  Uiso   1.00
C1006  C     0.05058   0.37645   0.63124   0.00000  Uiso   1.00
C1007  C     0.33156   0.36094   0.61344   0.00000  Uiso   1.00
C1008  C     0.28235   0.38225   0.63679   0.00000  Uiso   1.00
C1009  C     0.28628   0.42023   0.67700   0.00000  Uiso   1.00
H1010  H     0.09584   0.41794   0.68011   0.00000  Uiso   1.00
H1011  H     0.08917   0.35849   0.61417   0.00000  Uiso   1.00
H1012  H     0.32861   0.66489   0.58245   0.00000  Uiso   1.00
H1013  H     0.24005   0.36881   0.62384   0.00000  Uiso   1.00
H1014  H     0.24350   0.42757   0.68825   0.00000  Uiso   1.00
C1015  C     0.51510   0.60040   0.75222   0.00000  Uiso   1.00
C1016  C     0.48489   0.39960   0.74779   0.00000  Uiso   1.00
C1017  C     0.42986   0.46567   0.53092   0.00000  Uiso   1.00
C1018  C     0.57180   0.52875   0.96724   0.00000  Uiso   1.00
C1019  C     0.38929   0.45379   0.50182   0.00000  Uiso   1.00
C1020  C     0.61238   0.54036   0.99629   0.00000  Uiso   1.00
C1021  C     0.51870   0.65814   0.75932   0.00000  Uiso   1.00
C1022  C     0.48127   0.34186   0.74071   0.00000  Uiso   1.00
C1023  C     0.46331   0.49582   0.83216   0.00000  Uiso   1.00
C1024  C     0.53669   0.50409   0.66781   0.00000  Uiso   1.00
C1025  C     0.44278   0.48885   0.87736   0.00000  Uiso   1.00
C1026  C     0.55731   0.51007   0.62234   0.00000  Uiso   1.00
C1027  C     0.36522   0.45449   0.93241   0.00000  Uiso   1.00
C1028  C     0.63589   0.54104   0.56622   0.00000  Uiso   1.00
C1029  C     0.38265   0.46569   0.89094   0.00000  Uiso   1.00
C1030  C     0.61796   0.53130   0.60818   0.00000  Uiso   1.00
C1031  C     0.48469   0.50244   0.90616   0.00000  Uiso   1.00
C1032  C     0.51533   0.49688   0.59362   0.00000  Uiso   1.00
C1033  C     0.46829   0.49172   0.94846   0.00000  Uiso   1.00
C1034  C     0.53253   0.50510   0.55052   0.00000  Uiso   1.00
C1035  C     0.40748   0.46682   0.96104   0.00000  Uiso   1.00
C1036  C     0.59372   0.52870   0.53755   0.00000  Uiso   1.00
C1037  C     0.51048   0.50426   0.97824   0.00000  Uiso   1.00
C1038  C     0.49066   0.49168   0.52042   0.00000  Uiso   1.00
Cu1039 Cu    0.44071   0.49441   0.74516   0.00000  Uiso   1.00
Cu1040 Cu    0.55929   0.50559   0.75483   0.00000  Uiso   1.00
H1041  H     0.34311   0.43408   0.51138   0.00000  Uiso   1.00
H1042  H     0.65895   0.55886   0.98632   0.00000  Uiso   1.00
H1043  H     0.46931   0.48130   0.60628   0.00000  Uiso   1.00
H1044  H     0.52991   0.52081   0.89424   0.00000  Uiso   1.00
H1045  H     0.65125   0.54188   0.62993   0.00000  Uiso   1.00
H1046  H     0.34944   0.45481   0.86911   0.00000  Uiso   1.00
H1047  H     0.65203   0.43561   0.94198   0.00000  Uiso   1.00
H1048  H     0.34943   0.55874   0.55630   0.00000  Uiso   1.00
H1049  H     0.41168   0.45309   0.56126   0.00000  Uiso   1.00
H1050  H     0.59073   0.53954   0.93626   0.00000  Uiso   1.00
N1051  N     0.64839   0.51401   0.76212   0.00000  Uiso   1.00
N1052  N     0.35161   0.48599   0.73788   0.00000  Uiso   1.00
O1053  O     0.46148   0.57142   0.74686   0.00000  Uiso   1.00
O1054  O     0.53852   0.42858   0.75314   0.00000  Uiso   1.00
O1055  O     0.56163   0.58086   0.75502   0.00000  Uiso   1.00
O1056  O     0.43837   0.41914   0.74498   0.00000  Uiso   1.00
O1057  O     0.42185   0.49263   0.80855   0.00000  Uiso   1.00
O1058  O     0.57815   0.50737   0.69145   0.00000  Uiso   1.00
O1059  O     0.52199   0.50207   0.81671   0.00000  Uiso   1.00
O1060  O     0.47801   0.49793   0.68329   0.00000  Uiso   1.00
O1061  O     0.54539   0.35937   0.79433   0.00000  Uiso   1.00
C1062  C     0.60883   0.36722   0.78311   0.00000  Uiso   1.00
H1063  H     0.62515   0.36739   0.74772   0.00000  Uiso   1.00
H1064  H     0.62561   0.33667   0.79211   0.00000  Uiso   1.00
H1065  H     0.62865   0.40682   0.80264   0.00000  Uiso   1.00
O1066  O     0.45456   0.64063   0.70570   0.00000  Uiso   1.00
C1067  C     0.39112   0.63271   0.71697   0.00000  Uiso   1.00
H1068  H     0.37429   0.66333   0.70813   0.00000  Uiso   1.00
H1069  H     0.37485   0.63238   0.75234   0.00000  Uiso   1.00
H1070  H     0.37131   0.59317   0.69733   0.00000  Uiso   1.00
C1071  C     0.65991   0.55780   0.80339   0.00000  Uiso   1.00
C1072  C     0.61276   0.58549   0.82870   0.00000  Uiso   1.00
C1073  C     0.61572   0.62272   0.86923   0.00000  Uiso   1.00
C1074  C     0.33453   0.63775   0.88726   0.00000  Uiso   1.00
C1075  C     0.38391   0.61684   0.86373   0.00000  Uiso   1.00
C1076  C     0.38025   0.57950   0.82317   0.00000  Uiso   1.00
H1077  H     0.57090   0.58213   0.81988   0.00000  Uiso   1.00
H1078  H     0.57707   0.64056   0.88639   0.00000  Uiso   1.00
H1079  H     0.33723   0.66657   0.91855   0.00000  Uiso   1.00
H1080  H     0.42612   0.63010   0.87678   0.00000  Uiso   1.00
H1081  H     0.42315   0.57249   0.81174   0.00000  Uiso   1.00
C1082  C     0.34002   0.44205   0.69671   0.00000  Uiso   1.00
C1083  C     0.38714   0.41428   0.67145   0.00000  Uiso   1.00
C1084  C     0.38391   0.37645   0.63124   0.00000  Uiso   1.00
C1085  C     0.66489   0.36094   0.61344   0.00000  Uiso   1.00
C1086  C     0.61569   0.38225   0.63679   0.00000  Uiso   1.00
C1087  C     0.61961   0.42023   0.67700   0.00000  Uiso   1.00
H1088  H     0.42917   0.41794   0.68011   0.00000  Uiso   1.00
H1089  H     0.42250   0.35849   0.61417   0.00000  Uiso   1.00
H1090  H     0.66195   0.66489   0.58245   0.00000  Uiso   1.00
H1091  H     0.57339   0.36881   0.62384   0.00000  Uiso   1.00
H1092  H     0.57684   0.42757   0.68825   0.00000  Uiso   1.00
C1093  C     0.84844   0.60040   0.75222   0.00000  Uiso   1.00
C1094  C     0.81823   0.39960   0.74779   0.00000  Uiso   1.00
C1095  C     0.76319   0.46567   0.53092   0.00000  Uiso   1.00
C1096  C     0.90513   0.52875   0.96724   0.00000  Uiso   1.00
C1097  C     0.72263   0.45379   0.50182   0.00000  Uiso   1.00
C1098  C     0.94571   0.54036   0.99629   0.00000  Uiso   1.00
C1099  C     0.85204   0.65814   0.75932   0.00000  Uiso   1.00
C1100  C     0.81460   0.34186   0.74071   0.00000  Uiso   1.00
C1101  C     0.79665   0.49582   0.83216   0.00000  Uiso   1.00
C1102  C     0.87002   0.50409   0.66781   0.00000  Uiso   1.00
C1103  C     0.77612   0.48885   0.87736   0.00000  Uiso   1.00
C1104  C     0.89064   0.51007   0.62234   0.00000  Uiso   1.00
C1105  C     0.69855   0.45449   0.93241   0.00000  Uiso   1.00
C1106  C     0.96923   0.54104   0.56622   0.00000  Uiso   1.00
C1107  C     0.71598   0.46569   0.89094   0.00000  Uiso   1.00
C1108  C     0.95129   0.53130   0.60818   0.00000  Uiso   1.00
C1109  C     0.81802   0.50244   0.90616   0.00000  Uiso   1.00
C1110  C     0.84866   0.49688   0.59362   0.00000  Uiso   1.00
C1111  C     0.80163   0.49172   0.94846   0.00000  Uiso   1.00
C1112  C     0.86586   0.50510   0.55052   0.00000  Uiso   1.00
C1113  C     0.74081   0.46682   0.96104   0.00000  Uiso   1.00
C1114  C     0.92705   0.52870   0.53755   0.00000  Uiso   1.00
C1115  C     0.84381   0.50426   0.97824   0.00000  Uiso   1.00
C1116  C     0.82399   0.49168   0.52042   0.00000  Uiso   1.00
Cu1117 Cu    0.77404   0.49441   0.74516   0.00000  Uiso   1.00
Cu1118 Cu    0.89263   0.50559   0.75483   0.00000  Uiso   1.00
H1119  H     0.67644   0.43408   0.51138   0.00000  Uiso   1.00
H1120  H     0.99228   0.55886   0.98632   0.00000  Uiso   1.00
H1121  H     0.80264   0.48130   0.60628   0.00000  Uiso   1.00
H1122  H     0.86325   0.52081   0.89424   0.00000  Uiso   1.00
H1123  H     0.98458   0.54188   0.62993   0.00000  Uiso   1.00
H1124  H     0.68277   0.45481   0.86911   0.00000  Uiso   1.00
H1125  H     0.98537   0.43561   0.94198   0.00000  Uiso   1.00
H1126  H     0.68276   0.55874   0.55630   0.00000  Uiso   1.00
H1127  H     0.74501   0.45309   0.56126   0.00000  Uiso   1.00
H1128  H     0.92406   0.53954   0.93626   0.00000  Uiso   1.00
N1129  N     0.98173   0.51401   0.76212   0.00000  Uiso   1.00
N1130  N     0.68494   0.48599   0.73788   0.00000  Uiso   1.00
O1131  O     0.79482   0.57142   0.74686   0.00000  Uiso   1.00
O1132  O     0.87185   0.42858   0.75314   0.00000  Uiso   1.00
O1133  O     0.89496   0.58086   0.75502   0.00000  Uiso   1.00
O1134  O     0.77171   0.41914   0.74498   0.00000  Uiso   1.00
O1135  O     0.75518   0.49263   0.80855   0.00000  Uiso   1.00
O1136  O     0.91149   0.50737   0.69145   0.00000  Uiso   1.00
O1137  O     0.85532   0.50207   0.81671   0.00000  Uiso   1.00
O1138  O     0.81134   0.49793   0.68329   0.00000  Uiso   1.00
O1139  O     0.87873   0.35937   0.79433   0.00000  Uiso   1.00
C1140  C     0.94217   0.36722   0.78311   0.00000  Uiso   1.00
H1141  H     0.95849   0.36739   0.74772   0.00000  Uiso   1.00
H1142  H     0.95894   0.33667   0.79211   0.00000  Uiso   1.00
H1143  H     0.96198   0.40682   0.80264   0.00000  Uiso   1.00
O1144  O     0.78790   0.64063   0.70570   0.00000  Uiso   1.00
C1145  C     0.72445   0.63271   0.71697   0.00000  Uiso   1.00
H1146  H     0.70762   0.66333   0.70813   0.00000  Uiso   1.00
H1147  H     0.70819   0.63238   0.75234   0.00000  Uiso   1.00
H1148  H     0.70464   0.59317   0.69733   0.00000  Uiso   1.00
C1149  C     0.99324   0.55780   0.80339   0.00000  Uiso   1.00
C1150  C     0.94609   0.58549   0.82870   0.00000  Uiso   1.00
C1151  C     0.94905   0.62272   0.86923   0.00000  Uiso   1.00
C1152  C     0.66786   0.63775   0.88726   0.00000  Uiso   1.00
C1153  C     0.71724   0.61684   0.86373   0.00000  Uiso   1.00
C1154  C     0.71359   0.57950   0.82317   0.00000  Uiso   1.00
H1155  H     0.90424   0.58213   0.81988   0.00000  Uiso   1.00
H1156  H     0.91041   0.64056   0.88639   0.00000  Uiso   1.00
H1157  H     0.67057   0.66657   0.91855   0.00000  Uiso   1.00
H1158  H     0.75946   0.63010   0.87678   0.00000  Uiso   1.00
H1159  H     0.75648   0.57249   0.81174   0.00000  Uiso   1.00
C1160  C     0.67335   0.44205   0.69671   0.00000  Uiso   1.00
C1161  C     0.72048   0.41428   0.67145   0.00000  Uiso   1.00
C1162  C     0.71724   0.37645   0.63124   0.00000  Uiso   1.00
C1163  C     0.99823   0.36094   0.61344   0.00000  Uiso   1.00
C1164  C     0.94902   0.38225   0.63679   0.00000  Uiso   1.00
C1165  C     0.95295   0.42023   0.67700   0.00000  Uiso   1.00
H1166  H     0.76250   0.41794   0.68011   0.00000  Uiso   1.00
H1167  H     0.75583   0.35849   0.61417   0.00000  Uiso   1.00
H1168  H     0.99528   0.66489   0.58245   0.00000  Uiso   1.00
H1169  H     0.90672   0.36881   0.62384   0.00000  Uiso   1.00
H1170  H     0.91017   0.42757   0.68825   0.00000  Uiso   1.00
C1171  C     0.18177   0.93373   0.75222   0.00000  Uiso   1.00
C1172  C     0.15156   0.73294   0.74779   0.00000  Uiso   1.00
C1173  C     0.09652   0.79900   0.53092   0.00000  Uiso   1.00
C1174  C     0.23846   0.86209   0.96724   0.00000  Uiso   1.00
C1175  C     0.05596   0.78713   0.50182   0.00000  Uiso   1.00
C1176  C     0.27904   0.87369   0.99629   0.00000  Uiso   1.00
C1177  C     0.18537   0.99147   0.75932   0.00000  Uiso   1.00
C1178  C     0.14794   0.67519   0.74071   0.00000  Uiso   1.00
C1179  C     0.12998   0.82916   0.83216   0.00000  Uiso   1.00
C1180  C     0.20336   0.83743   0.66781   0.00000  Uiso   1.00
C1181  C     0.10945   0.82219   0.87736   0.00000  Uiso   1.00
C1182  C     0.22397   0.84341   0.62234   0.00000  Uiso   1.00
C1183  C     0.03189   0.78783   0.93241   0.00000  Uiso   1.00
C1184  C     0.30256   0.87437   0.56622   0.00000  Uiso   1.00
C1185  C     0.04932   0.79903   0.89094   0.00000  Uiso   1.00
C1186  C     0.28463   0.86464   0.60818   0.00000  Uiso   1.00
C1187  C     0.15135   0.83577   0.90616   0.00000  Uiso   1.00
C1188  C     0.18200   0.83021   0.59362   0.00000  Uiso   1.00
C1189  C     0.13496   0.82505   0.94846   0.00000  Uiso   1.00
C1190  C     0.19919   0.83844   0.55052   0.00000  Uiso   1.00
C1191  C     0.07414   0.80016   0.96104   0.00000  Uiso   1.00
C1192  C     0.26038   0.86203   0.53755   0.00000  Uiso   1.00
C1193  C     0.17715   0.83759   0.97824   0.00000  Uiso   1.00
C1194  C     0.15733   0.82502   0.52042   0.00000  Uiso   1.00
Cu1195 Cu    0.10737   0.82775   0.74516   0.00000  Uiso   1.00
Cu1196 Cu    0.22596   0.83892   0.75483   0.00000  Uiso   1.00
H1197  H     0.00977   0.76741   0.51138   0.00000  Uiso   1.00
H1198  H     0.32561   0.89219   0.98632   0.00000  Uiso   1.00
H1199  H     0.13597   0.81463   0.60628   0.00000  Uiso   1.00
H1200  H     0.19658   0.85415   0.89424   0.00000  Uiso   1.00
H1201  H     0.31792   0.87522   0.62993   0.00000  Uiso   1.00
H1202  H     0.01611   0.78815   0.86911   0.00000  Uiso   1.00
H1203  H     0.31870   0.76895   0.94198   0.00000  Uiso   1.00
H1204  H     0.01609   0.89207   0.55630   0.00000  Uiso   1.00
H1205  H     0.07835   0.78643   0.56126   0.00000  Uiso   1.00
H1206  H     0.25739   0.87287   0.93626   0.00000  Uiso   1.00
N1207  N     0.31506   0.84735   0.76212   0.00000  Uiso   1.00
N1208  N     0.01827   0.81932   0.73788   0.00000  Uiso   1.00
O1209  O     0.12815   0.90476   0.74686   0.00000  Uiso   1.00
O1210  O     0.20518   0.76191   0.75314   0.00000  Uiso   1.00
O1211  O     0.22829   0.91420   0.75502   0.00000  Uiso   1.00
O1212  O     0.10504   0.75247   0.74498   0.00000  Uiso   1.00
O1213  O     0.08851   0.82597   0.80855   0.00000  Uiso   1.00
O1214  O     0.24482   0.84070   0.69145   0.00000  Uiso   1.00
O1215  O     0.18866   0.83540   0.81671   0.00000  Uiso   1.00
O1216  O     0.14468   0.83126   0.68329   0.00000  Uiso   1.00
O1217  O     0.21206   0.69270   0.79433   0.00000  Uiso   1.00
C1218  C     0.27550   0.70055   0.78311   0.00000  Uiso   1.00
H1219  H     0.29182   0.70072   0.74772   0.00000  Uiso   1.00
H1220  H     0.29228   0.67001   0.79211   0.00000  Uiso   1.00
H1221  H     0.29532   0.74016   0.80264   0.00000  Uiso   1.00
O1222  O     0.12123   0.97396   0.70570   0.00000  Uiso   1.00
C1223  C     0.05779   0.96604   0.71697   0.00000  Uiso   1.00
H1224  H     0.04096   0.99667   0.70813   0.00000  Uiso   1.00
H1225  H     0.04152   0.96572   0.75234   0.00000  Uiso   1.00
H1226  H     0.03798   0.92651   0.69733   0.00000  Uiso   1.00
C1227  C     0.32657   0.89113   0.80339   0.00000  Uiso   1.00
C1228  C     0.27943   0.91882   0.82870   0.00000  Uiso   1.00
C1229  C     0.28239   0.95606   0.86923   0.00000  Uiso   1.00
C1230  C     0.00119   0.97109   0.88726   0.00000  Uiso   1.00
C1231  C     0.05057   0.95017   0.86373   0.00000  Uiso   1.00
C1232  C     0.04692   0.91284   0.82317   0.00000  Uiso   1.00
H1233  H     0.23757   0.91546   0.81988   0.00000  Uiso   1.00
H1234  H     0.24374   0.97390   0.88639   0.00000  Uiso   1.00
H1235  H     0.00390   0.99990   0.91855   0.00000  Uiso   1.00
H1236  H     0.09279   0.96343   0.87678   0.00000  Uiso   1.00
H1237  H     0.08981   0.90582   0.81174   0.00000  Uiso   1.00
C1238  C     0.00669   0.77538   0.69671   0.00000  Uiso   1.00
C1239  C     0.05381   0.74762   0.67145   0.00000  Uiso   1.00
C1240  C     0.05058   0.70979   0.63124   0.00000  Uiso   1.00
C1241  C     0.33156   0.69428   0.61344   0.00000  Uiso   1.00
C1242  C     0.28235   0.71559   0.63679   0.00000  Uiso   1.00
C1243  C     0.28628   0.75356   0.67700   0.00000  Uiso   1.00
H1244  H     0.09584   0.75127   0.68011   0.00000  Uiso   1.00
H1245  H     0.08917   0.69182   0.61417   0.00000  Uiso   1.00
H1246  H     0.32861   0.99823   0.58245   0.00000  Uiso   1.00
H1247  H     0.24005   0.70214   0.62384   0.00000  Uiso   1.00
H1248  H     0.24350   0.76091   0.68825   0.00000  Uiso   1.00
C1249  C     0.51510   0.93373   0.75222   0.00000  Uiso   1.00
C1250  C     0.48489   0.73294   0.74779   0.00000  Uiso   1.00
C1251  C     0.42986   0.79900   0.53092   0.00000  Uiso   1.00
C1252  C     0.57180   0.86209   0.96724   0.00000  Uiso   1.00
C1253  C     0.38929   0.78713   0.50182   0.00000  Uiso   1.00
C1254  C     0.61238   0.87369   0.99629   0.00000  Uiso   1.00
C1255  C     0.51870   0.99147   0.75932   0.00000  Uiso   1.00
C1256  C     0.48127   0.67519   0.74071   0.00000  Uiso   1.00
C1257  C     0.46331   0.82916   0.83216   0.00000  Uiso   1.00
C1258  C     0.53669   0.83743   0.66781   0.00000  Uiso   1.00
C1259  C     0.44278   0.82219   0.87736   0.00000  Uiso   1.00
C1260  C     0.55731   0.84341   0.62234   0.00000  Uiso   1.00
C1261  C     0.36522   0.78783   0.93241   0.00000  Uiso   1.00
C1262  C     0.63589   0.87437   0.56622   0.00000  Uiso   1.00
C1263  C     0.38265   0.79903   0.89094   0.00000  Uiso   1.00
C1264  C     0.61796   0.86464   0.60818   0.00000  Uiso   1.00
C1265  C     0.48469   0.83577   0.90616   0.00000  Uiso   1.00
C1266  C     0.51533   0.83021   0.59362   0.00000  Uiso   1.00
C1267  C     0.46829   0.82505   0.94846   0.00000  Uiso   1.00
C1268  C     0.53253   0.83844   0.55052   0.00000  Uiso   1.00
C1269  C     0.40748   0.80016   0.96104   0.00000  Uiso   1.00
C1270  C     0.59372   0.86203   0.53755   0.00000  Uiso   1.00
C1271  C     0.51048   0.83759   0.97824   0.00000  Uiso   1.00
C1272  C     0.49066   0.82502   0.52042   0.00000  Uiso   1.00
Cu1273 Cu    0.44071   0.82775   0.74516   0.00000  Uiso   1.00
Cu1274 Cu    0.55929   0.83892   0.75483   0.00000  Uiso   1.00
H1275  H     0.34311   0.76741   0.51138   0.00000  Uiso   1.00
H1276  H     0.65895   0.89219   0.98632   0.00000  Uiso   1.00
H1277  H     0.46931   0.81463   0.60628   0.00000  Uiso   1.00
H1278  H     0.52991   0.85415   0.89424   0.00000  Uiso   1.00
H1279  H     0.65125   0.87522   0.62993   0.00000  Uiso   1.00
H1280  H     0.34944   0.78815   0.86911   0.00000  Uiso   1.00
H1281  H     0.65203   0.76895   0.94198   0.00000  Uiso   1.00
H1282  H     0.34943   0.89207   0.55630   0.00000  Uiso   1.00
H1283  H     0.41168   0.78643   0.56126   0.00000  Uiso   1.00
H1284  H     0.59073   0.87287   0.93626   0.00000  Uiso   1.00
N1285  N     0.64839   0.84735   0.76212   0.00000  Uiso   1.00
N1286  N     0.35161   0.81932   0.73788   0.00000  Uiso   1.00
O1287  O     0.46148   0.90476   0.74686   0.00000  Uiso   1.00
O1288  O     0.53852   0.76191   0.75314   0.00000  Uiso   1.00
O1289  O     0.56163   0.91420   0.75502   0.00000  Uiso   1.00
O1290  O     0.43837   0.75247   0.74498   0.00000  Uiso   1.00
O1291  O     0.42185   0.82597   0.80855   0.00000  Uiso   1.00
O1292  O     0.57815   0.84070   0.69145   0.00000  Uiso   1.00
O1293  O     0.52199   0.83540   0.81671   0.00000  Uiso   1.00
O1294  O     0.47801   0.83126   0.68329   0.00000  Uiso   1.00
O1295  O     0.54539   0.69270   0.79433   0.00000  Uiso   1.00
C1296  C     0.60883   0.70055   0.78311   0.00000  Uiso   1.00
H1297  H     0.62515   0.70072   0.74772   0.00000  Uiso   1.00
H1298  H     0.62561   0.67001   0.79211   0.00000  Uiso   1.00
H1299  H     0.62865   0.74016   0.80264   0.00000  Uiso   1.00
O1300  O     0.45456   0.97396   0.70570   0.00000  Uiso   1.00
C1301  C     0.39112   0.96604   0.71697   0.00000  Uiso   1.00
H1302  H     0.37429   0.99667   0.70813   0.00000  Uiso   1.00
H1303  H     0.37485   0.96572   0.75234   0.00000  Uiso   1.00
H1304  H     0.37131   0.92651   0.69733   0.00000  Uiso   1.00
C1305  C     0.65991   0.89113   0.80339   0.00000  Uiso   1.00
C1306  C     0.61276   0.91882   0.82870   0.00000  Uiso   1.00
C1307  C     0.61572   0.95606   0.86923   0.00000  Uiso   1.00
C1308  C     0.33453   0.97109   0.88726   0.00000  Uiso   1.00
C1309  C     0.38391   0.95017   0.86373   0.00000  Uiso   1.00
C1310  C     0.38025   0.91284   0.82317   0.00000  Uiso   1.00
H1311  H     0.57090   0.91546   0.81988   0.00000  Uiso   1.00
H1312  H     0.57707   0.97390   0.88639   0.00000  Uiso   1.00
H1313  H     0.33723   0.99990   0.91855   0.00000  Uiso   1.00
H1314  H     0.42612   0.96343   0.87678   0.00000  Uiso   1.00
H1315  H     0.42315   0.90582   0.81174   0.00000  Uiso   1.00
C1316  C     0.34002   0.77538   0.69671   0.00000  Uiso   1.00
C1317  C     0.38714   0.74762   0.67145   0.00000  Uiso   1.00
C1318  C     0.38391   0.70979   0.63124   0.00000  Uiso   1.00
C1319  C     0.66489   0.69428   0.61344   0.00000  Uiso   1.00
C1320  C     0.61569   0.71559   0.63679   0.00000  Uiso   1.00
C1321  C     0.61961   0.75356   0.67700   0.00000  Uiso   1.00
H1322  H     0.42917   0.75127   0.68011   0.00000  Uiso   1.00
H1323  H     0.42250   0.69182   0.61417   0.00000  Uiso   1.00
H1324  H     0.66195   0.99823   0.58245   0.00000  Uiso   1.00
H1325  H     0.57339   0.70214   0.62384   0.00000  Uiso   1.00
H1326  H     0.57684   0.76091   0.68825   0.00000  Uiso   1.00
C1327  C     0.84844   0.93373   0.75222   0.00000  Uiso   1.00
C1328  C     0.81823   0.73294   0.74779   0.00000  Uiso   1.00
C1329  C     0.76319   0.79900   0.53092   0.00000  Uiso   1.00
C1330  C     0.90513   0.86209   0.96724   0.00000  Uiso   1.00
C1331  C     0.72263   0.78713   0.50182   0.00000  Uiso   1.00
C1332  C     0.94571   0.87369   0.99629   0.00000  Uiso   1.00
C1333  C     0.85204   0.99147   0.75932   0.00000  Uiso   1.00
C1334  C     0.81460   0.67519   0.74071   0.00000  Uiso   1.00
C1335  C     0.79665   0.82916   0.83216   0.00000  Uiso   1.00
C1336  C     0.87002   0.83743   0.66781   0.00000  Uiso   1.00
C1337  C     0.77612   0.82219   0.87736   0.00000  Uiso   1.00
C1338  C     0.89064   0.84341   0.62234   0.00000  Uiso   1.00
C1339  C     0.69855   0.78783   0.93241   0.00000  Uiso   1.00
C1340  C     0.96923   0.87437   0.56622   0.00000  Uiso   1.00
C1341  C     0.71598   0.79903   0.89094   0.00000  Uiso   1.00
C1342  C     0.95129   0.86464   0.60818   0.00000  Uiso   1.00
C1343  C     0.81802   0.83577   0.90616   0.00000  Uiso   1.00
C1344  C     0.84866   0.83021   0.59362   0.00000  Uiso   1.00
C1345  C     0.80163   0.82505   0.94846   0.00000  Uiso   1.00
C1346  C     0.86586   0.83844   0.55052   0.00000  Uiso   1.00
C1347  C     0.74081   0.80016   0.96104   0.00000  Uiso   1.00
C1348  C     0.92705   0.86203   0.53755   0.00000  Uiso   1.00
C1349  C     0.84381   0.83759   0.97824   0.00000  Uiso   1.00
C1350  C     0.82399   0.82502   0.52042   0.00000  Uiso   1.00
Cu1351 Cu    0.77404   0.82775   0.74516   0.00000  Uiso   1.00
Cu1352 Cu    0.89263   0.83892   0.75483   0.00000  Uiso   1.00
H1353  H     0.67644   0.76741   0.51138   0.00000  Uiso   1.00
H1354  H     0.99228   0.89219   0.98632   0.00000  Uiso   1.00
H1355  H     0.80264   0.81463   0.60628   0.00000  Uiso   1.00
H1356  H     0.86325   0.85415   0.89424   0.00000  Uiso   1.00
H1357  H     0.98458   0.87522   0.62993   0.00000  Uiso   1.00
H1358  H     0.68277   0.78815   0.86911   0.00000  Uiso   1.00
H1359  H     0.98537   0.76895   0.94198   0.00000  Uiso   1.00
H1360  H     0.68276   0.89207   0.55630   0.00000  Uiso   1.00
H1361  H     0.74501   0.78643   0.56126   0.00000  Uiso   1.00
H1362  H     0.92406   0.87287   0.93626   0.00000  Uiso   1.00
N1363  N     0.98173   0.84735   0.76212   0.00000  Uiso   1.00
N1364  N     0.68494   0.81932   0.73788   0.00000  Uiso   1.00
O1365  O     0.79482   0.90476   0.74686   0.00000  Uiso   1.00
O1366  O     0.87185   0.76191   0.75314   0.00000  Uiso   1.00
O1367  O     0.89496   0.91420   0.75502   0.00000  Uiso   1.00
O1368  O     0.77171   0.75247   0.74498   0.00000  Uiso   1.00
O1369  O     0.75518   0.82597   0.80855   0.00000  Uiso   1.00
O1370  O     0.91149   0.84070   0.69145   0.00000  Uiso   1.00
O1371  O     0.85532   0.83540   0.81671   0.00000  Uiso   1.00
O1372  O     0.81134   0.83126   0.68329   0.00000  Uiso   1.00
O1373  O     0.87873   0.69270   0.79433   0.00000  Uiso   1.00
C1374  C     0.94217   0.70055   0.78311   0.00000  Uiso   1.00
H1375  H     0.95849   0.70072   0.74772   0.00000  Uiso   1.00
H1376  H     0.95894   0.67001   0.79211   0.00000  Uiso   1.00
H1377  H     0.96198   0.74016   0.80264   0.00000  Uiso   1.00
O1378  O     0.78790   0.97396   0.70570   0.00000  Uiso   1.00
C1379  C     0.72445   0.96604   0.71697   0.00000  Uiso   1.00
H1380  H     0.70762   0.99667   0.70813   0.00000  Uiso   1.00
H1381  H     0.70819   0.96572   0.75234   0.00000  Uiso   1.00
H1382  H     0.70464   0.92651   0.69733   0.00000  Uiso   1.00
C1383  C     0.99324   0.89113   0.80339   0.00000  Uiso   1.00
C1384  C     0.94609   0.91882   0.82870   0.00000  Uiso   1.00
C1385  C     0.94905   0.95606   0.86923   0.00000  Uiso   1.00
C1386  C     0.66786   0.97109   0.88726   0.00000  Uiso   1.00
C1387  C     0.71724   0.95017   0.86373   0.00000  Uiso   1.00
C1388  C     0.71359   0.91284   0.82317   0.00000  Uiso   1.00
H1389  H     0.90424   0.91546   0.81988   0.00000  Uiso   1.00
H1390  H     0.91041   0.97390   0.88639   0.00000  Uiso   1.00
H1391  H     0.67057   0.99990   0.91855   0.00000  Uiso   1.00
H1392  H     0.75946   0.96343   0.87678   0.00000  Uiso   1.00
H1393  H     0.75648   0.90582   0.81174   0.00000  Uiso   1.00
C1394  C     0.67335   0.77538   0.69671   0.00000  Uiso   1.00
C1395  C     0.72048   0.74762   0.67145   0.00000  Uiso   1.00
C1396  C     0.71724   0.70979   0.63124   0.00000  Uiso   1.00
C1397  C     0.99823   0.69428   0.61344   0.00000  Uiso   1.00
C1398  C     0.94902   0.71559   0.63679   0.00000  Uiso   1.00
C1399  C     0.95295   0.75356   0.67700   0.00000  Uiso   1.00
H1400  H     0.76250   0.75127   0.68011   0.00000  Uiso   1.00
H1401  H     0.75583   0.69182   0.61417   0.00000  Uiso   1.00
H1402  H     0.99528   0.99823   0.58245   0.00000  Uiso   1.00
H1403  H     0.90672   0.70214   0.62384   0.00000  Uiso   1.00
H1404  H     0.91017   0.76091   0.68825   0.00000  Uiso   1.00
loop_
_geom_bond_atom_site_label_1
_geom_bond_atom_site_label_2
_geom_bond_distance
_geom_bond_site_symmetry_2
_ccdc_geom_bond_type
C1     O41     1.332   .     A
C1     C7      1.469   .     S
C1     O39     1.306   .     A
C2     C8      1.469   .     S
C2     O42     1.332   .     A
C2     O40     1.307   .     A
C3     C24     1.417   .     A
C3     H35     1.075   .     S
C3     C5      1.384   .     A
C4     H36     1.075   .     S
C4     C6      1.384   .     A
C4     C23     1.417   .     A
C5     H27     1.085   .     S
C5     C723    1.388   1_554 S
C6     H28     1.085   .     S
C6     C724    1.388   .     S
C7     C242    1.368   .     S
C7     O281    1.390   .     S
C8     C475    1.368   1_545 S
C8     O520    1.390   1_545 S
C9     O45     1.324   .     A
C9     O43     1.317   .     A
C9     C11     1.465   .     S
C10    O46     1.324   .     A
C10    O44     1.317   .     A
C10    C12     1.466   .     S
C11    C15     1.400   .     A
C11    C17     1.396   .     A
C12    C16     1.400   .     A
C12    C18     1.396   .     A
C13    C21     1.401   .     A
C13    C15     1.389   .     A
C13    H189    1.084   1_455 S
C14    C16     1.389   .     A
C14    C22     1.401   .     A
C14    H112    1.084   .     S
C15    H32     1.083   .     S
C16    H31     1.083   .     S
C17    H30     1.074   .     S
C17    C19     1.408   .     A
C18    H29     1.074   .     S
C18    C20     1.408   .     A
C19    C21     1.420   .     A
C19    C23     1.427   .     A
C20    C24     1.427   .     A
C20    C22     1.419   .     A
C21    C707    1.388   .     S
C22    C708    1.388   1_554 S
C23    C726    1.427   .     S
C24    C725    1.427   1_554 S
Cu25   O43     1.986   .     S
Cu25   N38     2.074   .     S
Cu25   O42     1.982   .     S
Cu25   Cu26    2.760   .     S
Cu25   O39     1.967   .     S
Cu25   O46     1.994   .     S
Cu26   O44     1.986   .     S
Cu26   O45     1.994   .     S
Cu26   N37     2.074   .     S
Cu26   O40     1.967   .     S
Cu26   O41     1.982   .     S
H33    C91     1.084   .     S
H34    C170    1.084   1_455 S
N37    C57     1.522   .     S
N37    N116    1.255   .     S
N38    C68     1.523   .     S
N38    N193    1.255   1_455 S
O47    C48     1.409   .     S
O47    C475    1.390   1_545 S
C48    H51     1.109   .     S
C48    H50     1.104   .     S
C48    H49     1.112   .     S
O52    C53     1.409   .     S
O52    C242    1.390   .     S
C53    H54     1.104   .     S
C53    H55     1.112   .     S
C53    H56     1.109   .     S
C57    C58     1.437   .     A
C57    C140    1.435   .     S
C58    C59     1.400   .     A
C58    H63     1.042   .     S
C59    H64     1.084   .     S
C59    C138    1.372   .     S
C60    C61     1.373   .     A
C60    H65     1.082   .     S
C60    C215    1.372   1_455 S
C61    H66     1.085   .     S
C61    C62     1.403   .     A
C62    H67     1.023   .     S
C62    C213    1.435   1_455 S
C68    C69     1.437   .     A
C68    C229    1.436   1_455 S
C69    C70     1.400   .     A
C69    H74     1.042   .     S
C70    H75     1.084   .     S
C70    C227    1.372   1_455 S
C71    C72     1.373   .     A
C71    C148    1.372   .     S
C71    H544    1.083   1_545 S
C72    H77     1.085   .     S
C72    C73     1.403   .     A
C73    H78     1.023   .     S
C73    C146    1.436   .     S
H76    C305    1.083   .     S
C79    O119    1.332   .     A
C79    C85     1.469   .     S
C79    O117    1.306   .     A
C80    C86     1.469   .     S
C80    O120    1.332   .     A
C80    O118    1.307   .     A
C81    C102    1.417   .     A
C81    H113    1.075   .     S
C81    C83     1.384   .     A
C82    H114    1.075   .     S
C82    C84     1.384   .     A
C82    C101    1.417   .     A
C83    H105    1.085   .     S
C83    C801    1.388   1_554 S
C84    H106    1.085   .     S
C84    C802    1.388   .     S
C85    C320    1.368   .     S
C85    O359    1.390   .     S
C86    C553    1.368   1_545 S
C86    O598    1.390   1_545 S
C87    O123    1.324   .     A
C87    O121    1.317   .     A
C87    C89     1.465   .     S
C88    O124    1.324   .     A
C88    O122    1.317   .     A
C88    C90     1.466   .     S
C89    C93     1.400   .     A
C89    C95     1.396   .     A
C90    C94     1.400   .     A
C90    C96     1.396   .     A
C91    C99     1.401   .     A
C91    C93     1.389   .     A
C92    C94     1.389   .     A
C92    C100    1.401   .     A
C92    H190    1.084   .     S
C93    H110    1.083   .     S
C94    H109    1.083   .     S
C95    H108    1.074   .     S
C95    C97     1.408   .     A
C96    H107    1.074   .     S
C96    C98     1.408   .     A
C97    C99     1.420   .     A
C97    C101    1.427   .     A
C98    C102    1.427   .     A
C98    C100    1.419   .     A
C99    C785    1.388   .     S
C100   C786    1.388   1_554 S
C101   C804    1.427   .     S
C102   C803    1.427   1_554 S
Cu103  O121    1.986   .     S
Cu103  N116    2.074   .     S
Cu103  O120    1.982   .     S
Cu103  Cu104   2.760   .     S
Cu103  O117    1.967   .     S
Cu103  O124    1.994   .     S
Cu104  O122    1.986   .     S
Cu104  O123    1.994   .     S
Cu104  N115    2.074   .     S
Cu104  O118    1.967   .     S
Cu104  O119    1.982   .     S
H111   C169    1.084   .     S
N115   C135    1.522   .     S
N115   N194    1.255   .     S
N116   C146    1.523   .     S
O125   C126    1.409   .     S
O125   C553    1.390   1_545 S
C126   H129    1.109   .     S
C126   H128    1.104   .     S
C126   H127    1.112   .     S
O130   C131    1.409   .     S
O130   C320    1.390   .     S
C131   H132    1.104   .     S
C131   H133    1.112   .     S
C131   H134    1.109   .     S
C135   C136    1.437   .     A
C135   C218    1.435   .     S
C136   C137    1.400   .     A
C136   H141    1.042   .     S
C137   H142    1.084   .     S
C137   C216    1.372   .     S
C138   C139    1.373   .     A
C138   H143    1.082   .     S
C139   H144    1.085   .     S
C139   C140    1.403   .     A
C140   H145    1.023   .     S
C146   C147    1.437   .     A
C147   C148    1.400   .     A
C147   H152    1.042   .     S
C148   H153    1.084   .     S
C149   C150    1.373   .     A
C149   C226    1.372   .     S
C149   H622    1.083   1_545 S
C150   H155    1.085   .     S
C150   C151    1.403   .     A
C151   H156    1.023   .     S
C151   C224    1.436   .     S
H154   C383    1.083   .     S
C157   O197    1.332   .     A
C157   C163    1.469   .     S
C157   O195    1.306   .     A
C158   C164    1.469   .     S
C158   O198    1.332   .     A
C158   O196    1.307   .     A
C159   C180    1.417   .     A
C159   H191    1.075   .     S
C159   C161    1.384   .     A
C160   H192    1.075   .     S
C160   C162    1.384   .     A
C160   C179    1.417   .     A
C161   H183    1.085   .     S
C161   C879    1.388   1_554 S
C162   H184    1.085   .     S
C162   C880    1.388   .     S
C163   C398    1.368   .     S
C163   O437    1.390   .     S
C164   C631    1.368   1_545 S
C164   O676    1.390   1_545 S
C165   O201    1.324   .     A
C165   O199    1.317   .     A
C165   C167    1.465   .     S
C166   O202    1.324   .     A
C166   O200    1.317   .     A
C166   C168    1.466   .     S
C167   C171    1.400   .     A
C167   C173    1.396   .     A
C168   C172    1.400   .     A
C168   C174    1.396   .     A
C169   C177    1.401   .     A
C169   C171    1.389   .     A
C170   C172    1.389   .     A
C170   C178    1.401   .     A
C170   H34     1.084   1_655 S
C171   H188    1.083   .     S
C172   H187    1.083   .     S
C173   H186    1.074   .     S
C173   C175    1.408   .     A
C174   H185    1.074   .     S
C174   C176    1.408   .     A
C175   C177    1.420   .     A
C175   C179    1.427   .     A
C176   C180    1.427   .     A
C176   C178    1.419   .     A
C177   C863    1.388   .     S
C178   C864    1.388   1_554 S
C179   C882    1.427   .     S
C180   C881    1.427   1_554 S
Cu181  O199    1.986   .     S
Cu181  N194    2.074   .     S
Cu181  O198    1.982   .     S
Cu181  Cu182   2.760   .     S
Cu181  O195    1.967   .     S
Cu181  O202    1.994   .     S
Cu182  O200    1.986   .     S
Cu182  O201    1.994   .     S
Cu182  N193    2.074   .     S
Cu182  O196    1.967   .     S
Cu182  O197    1.982   .     S
H189   C13     1.084   1_655 S
N193   C213    1.522   .     S
N193   N38     1.255   1_655 S
N194   C224    1.523   .     S
O203   C204    1.409   .     S
O203   C631    1.390   1_545 S
C204   H207    1.109   .     S
C204   H206    1.104   .     S
C204   H205    1.112   .     S
O208   C209    1.409   .     S
O208   C398    1.390   .     S
C209   H210    1.104   .     S
C209   H211    1.112   .     S
C209   H212    1.109   .     S
C213   C214    1.437   .     A
C213   C62     1.435   1_655 S
C214   C215    1.400   .     A
C214   H219    1.042   .     S
C215   H220    1.084   .     S
C215   C60     1.372   1_655 S
C216   C217    1.373   .     A
C216   H221    1.082   .     S
C217   H222    1.085   .     S
C217   C218    1.403   .     A
C218   H223    1.023   .     S
C224   C225    1.437   .     A
C225   C226    1.400   .     A
C225   H230    1.042   .     S
C226   H231    1.084   .     S
C227   C228    1.373   .     A
C227   C70     1.372   1_655 S
C227   H700    1.083   1_545 S
C228   H233    1.085   .     S
C228   C229    1.403   .     A
C229   H234    1.023   .     S
C229   C68     1.436   1_655 S
H232   C461    1.083   .     S
C235   O275    1.332   .     A
C235   C241    1.469   .     S
C235   O273    1.306   .     A
C236   C242    1.469   .     S
C236   O276    1.332   .     A
C236   O274    1.307   .     A
C237   C258    1.417   .     A
C237   H269    1.075   .     S
C237   C239    1.384   .     A
C238   H270    1.075   .     S
C238   C240    1.384   .     A
C238   C257    1.417   .     A
C239   H261    1.085   .     S
C239   C957    1.388   1_554 S
C240   H262    1.085   .     S
C240   C958    1.388   .     S
C241   C476    1.368   .     S
C241   O515    1.390   .     S
C243   O279    1.324   .     A
C243   O277    1.317   .     A
C243   C245    1.465   .     S
C244   O280    1.324   .     A
C244   O278    1.317   .     A
C244   C246    1.466   .     S
C245   C249    1.400   .     A
C245   C251    1.396   .     A
C246   C250    1.400   .     A
C246   C252    1.396   .     A
C247   C255    1.401   .     A
C247   C249    1.389   .     A
C247   H423    1.084   1_455 S
C248   C250    1.389   .     A
C248   C256    1.401   .     A
C248   H346    1.084   .     S
C249   H266    1.083   .     S
C250   H265    1.083   .     S
C251   H264    1.074   .     S
C251   C253    1.408   .     A
C252   H263    1.074   .     S
C252   C254    1.408   .     A
C253   C255    1.420   .     A
C253   C257    1.427   .     A
C254   C258    1.427   .     A
C254   C256    1.419   .     A
C255   C941    1.388   .     S
C256   C942    1.388   1_554 S
C257   C960    1.427   .     S
C258   C959    1.427   1_554 S
Cu259  O277    1.986   .     S
Cu259  N272    2.074   .     S
Cu259  O276    1.982   .     S
Cu259  Cu260   2.760   .     S
Cu259  O273    1.967   .     S
Cu259  O280    1.994   .     S
Cu260  O278    1.986   .     S
Cu260  O279    1.994   .     S
Cu260  N271    2.074   .     S
Cu260  O274    1.967   .     S
Cu260  O275    1.982   .     S
H267   C325    1.084   .     S
H268   C404    1.084   1_455 S
N271   C291    1.522   .     S
N271   N350    1.255   .     S
N272   C302    1.523   .     S
N272   N427    1.255   1_455 S
O281   C282    1.409   .     S
C282   H285    1.109   .     S
C282   H284    1.104   .     S
C282   H283    1.112   .     S
O286   C287    1.409   .     S
O286   C476    1.390   .     S
C287   H288    1.104   .     S
C287   H289    1.112   .     S
C287   H290    1.109   .     S
C291   C292    1.437   .     A
C291   C374    1.435   .     S
C292   C293    1.400   .     A
C292   H297    1.042   .     S
C293   H298    1.084   .     S
C293   C372    1.372   .     S
C294   C295    1.373   .     A
C294   H299    1.082   .     S
C294   C449    1.372   1_455 S
C295   H300    1.085   .     S
C295   C296    1.403   .     A
C296   H301    1.023   .     S
C296   C447    1.435   1_455 S
C302   C303    1.437   .     A
C302   C463    1.436   1_455 S
C303   C304    1.400   .     A
C303   H308    1.042   .     S
C304   H309    1.084   .     S
C304   C461    1.372   1_455 S
C305   C306    1.373   .     A
C305   C382    1.372   .     S
C306   H311    1.085   .     S
C306   C307    1.403   .     A
C307   H312    1.023   .     S
C307   C380    1.436   .     S
H310   C539    1.083   .     S
C313   O353    1.332   .     A
C313   C319    1.469   .     S
C313   O351    1.306   .     A
C314   C320    1.469   .     S
C314   O354    1.332   .     A
C314   O352    1.307   .     A
C315   C336    1.417   .     A
C315   H347    1.075   .     S
C315   C317    1.384   .     A
C316   H348    1.075   .     S
C316   C318    1.384   .     A
C316   C335    1.417   .     A
C317   H339    1.085   .     S
C317   C1035   1.388   1_554 S
C318   H340    1.085   .     S
C318   C1036   1.388   .     S
C319   C554    1.368   .     S
C319   O593    1.390   .     S
C321   O357    1.324   .     A
C321   O355    1.317   .     A
C321   C323    1.465   .     S
C322   O358    1.324   .     A
C322   O356    1.317   .     A
C322   C324    1.466   .     S
C323   C327    1.400   .     A
C323   C329    1.396   .     A
C324   C328    1.400   .     A
C324   C330    1.396   .     A
C325   C333    1.401   .     A
C325   C327    1.389   .     A
C326   C328    1.389   .     A
C326   C334    1.401   .     A
C326   H424    1.084   .     S
C327   H344    1.083   .     S
C328   H343    1.083   .     S
C329   H342    1.074   .     S
C329   C331    1.408   .     A
C330   H341    1.074   .     S
C330   C332    1.408   .     A
C331   C333    1.420   .     A
C331   C335    1.427   .     A
C332   C336    1.427   .     A
C332   C334    1.419   .     A
C333   C1019   1.388   .     S
C334   C1020   1.388   1_554 S
C335   C1038   1.427   .     S
C336   C1037   1.427   1_554 S
Cu337  O355    1.986   .     S
Cu337  N350    2.074   .     S
Cu337  O354    1.982   .     S
Cu337  Cu338   2.760   .     S
Cu337  O351    1.967   .     S
Cu337  O358    1.994   .     S
Cu338  O356    1.986   .     S
Cu338  O357    1.994   .     S
Cu338  N349    2.074   .     S
Cu338  O352    1.967   .     S
Cu338  O353    1.982   .     S
H345   C403    1.084   .     S
N349   C369    1.522   .     S
N349   N428    1.255   .     S
N350   C380    1.523   .     S
O359   C360    1.409   .     S
C360   H363    1.109   .     S
C360   H362    1.104   .     S
C360   H361    1.112   .     S
O364   C365    1.409   .     S
O364   C554    1.390   .     S
C365   H366    1.104   .     S
C365   H367    1.112   .     S
C365   H368    1.109   .     S
C369   C370    1.437   .     A
C369   C452    1.435   .     S
C370   C371    1.400   .     A
C370   H375    1.042   .     S
C371   H376    1.084   .     S
C371   C450    1.372   .     S
C372   C373    1.373   .     A
C372   H377    1.082   .     S
C373   H378    1.085   .     S
C373   C374    1.403   .     A
C374   H379    1.023   .     S
C380   C381    1.437   .     A
C381   C382    1.400   .     A
C381   H386    1.042   .     S
C382   H387    1.084   .     S
C383   C384    1.373   .     A
C383   C460    1.372   .     S
C384   H389    1.085   .     S
C384   C385    1.403   .     A
C385   H390    1.023   .     S
C385   C458    1.436   .     S
H388   C617    1.083   .     S
C391   O431    1.332   .     A
C391   C397    1.469   .     S
C391   O429    1.306   .     A
C392   C398    1.469   .     S
C392   O432    1.332   .     A
C392   O430    1.307   .     A
C393   C414    1.417   .     A
C393   H425    1.075   .     S
C393   C395    1.384   .     A
C394   H426    1.075   .     S
C394   C396    1.384   .     A
C394   C413    1.417   .     A
C395   H417    1.085   .     S
C395   C1113   1.388   1_554 S
C396   H418    1.085   .     S
C396   C1114   1.388   .     S
C397   C632    1.368   .     S
C397   O671    1.390   .     S
C399   O435    1.324   .     A
C399   O433    1.317   .     A
C399   C401    1.465   .     S
C400   O436    1.324   .     A
C400   O434    1.317   .     A
C400   C402    1.466   .     S
C401   C405    1.400   .     A
C401   C407    1.396   .     A
C402   C406    1.400   .     A
C402   C408    1.396   .     A
C403   C411    1.401   .     A
C403   C405    1.389   .     A
C404   C406    1.389   .     A
C404   C412    1.401   .     A
C404   H268    1.084   1_655 S
C405   H422    1.083   .     S
C406   H421    1.083   .     S
C407   H420    1.074   .     S
C407   C409    1.408   .     A
C408   H419    1.074   .     S
C408   C410    1.408   .     A
C409   C411    1.420   .     A
C409   C413    1.427   .     A
C410   C414    1.427   .     A
C410   C412    1.419   .     A
C411   C1097   1.388   .     S
C412   C1098   1.388   1_554 S
C413   C1116   1.427   .     S
C414   C1115   1.427   1_554 S
Cu415  O433    1.986   .     S
Cu415  N428    2.074   .     S
Cu415  O432    1.982   .     S
Cu415  Cu416   2.760   .     S
Cu415  O429    1.967   .     S
Cu415  O436    1.994   .     S
Cu416  O434    1.986   .     S
Cu416  O435    1.994   .     S
Cu416  N427    2.074   .     S
Cu416  O430    1.967   .     S
Cu416  O431    1.982   .     S
H423   C247    1.084   1_655 S
N427   C447    1.522   .     S
N427   N272    1.255   1_655 S
N428   C458    1.523   .     S
O437   C438    1.409   .     S
C438   H441    1.109   .     S
C438   H440    1.104   .     S
C438   H439    1.112   .     S
O442   C443    1.409   .     S
O442   C632    1.390   .     S
C443   H444    1.104   .     S
C443   H445    1.112   .     S
C443   H446    1.109   .     S
C447   C448    1.437   .     A
C447   C296    1.435   1_655 S
C448   C449    1.400   .     A
C448   H453    1.042   .     S
C449   H454    1.084   .     S
C449   C294    1.372   1_655 S
C450   C451    1.373   .     A
C450   H455    1.082   .     S
C451   H456    1.085   .     S
C451   C452    1.403   .     A
C452   H457    1.023   .     S
C458   C459    1.437   .     A
C459   C460    1.400   .     A
C459   H464    1.042   .     S
C460   H465    1.084   .     S
C461   C462    1.373   .     A
C461   C304    1.372   1_655 S
C462   H467    1.085   .     S
C462   C463    1.403   .     A
C463   H468    1.023   .     S
C463   C302    1.436   1_655 S
H466   C695    1.083   .     S
C469   O509    1.332   .     A
C469   C475    1.469   .     S
C469   O507    1.306   .     A
C470   C476    1.469   .     S
C470   O510    1.332   .     A
C470   O508    1.307   .     A
C471   C492    1.417   .     A
C471   H503    1.075   .     S
C471   C473    1.384   .     A
C472   H504    1.075   .     S
C472   C474    1.384   .     A
C472   C491    1.417   .     A
C473   H495    1.085   .     S
C473   C1191   1.388   1_554 S
C474   H496    1.085   .     S
C474   C1192   1.388   .     S
C475   C8      1.368   1_565 S
C475   O47     1.390   1_565 S
C477   O513    1.324   .     A
C477   O511    1.317   .     A
C477   C479    1.465   .     S
C478   O514    1.324   .     A
C478   O512    1.317   .     A
C478   C480    1.466   .     S
C479   C483    1.400   .     A
C479   C485    1.396   .     A
C480   C484    1.400   .     A
C480   C486    1.396   .     A
C481   C489    1.401   .     A
C481   C483    1.389   .     A
C481   H657    1.084   1_455 S
C482   C484    1.389   .     A
C482   C490    1.401   .     A
C482   H580    1.084   .     S
C483   H500    1.083   .     S
C484   H499    1.083   .     S
C485   H498    1.074   .     S
C485   C487    1.408   .     A
C486   H497    1.074   .     S
C486   C488    1.408   .     A
C487   C489    1.420   .     A
C487   C491    1.427   .     A
C488   C492    1.427   .     A
C488   C490    1.419   .     A
C489   C1175   1.388   .     S
C490   C1176   1.388   1_554 S
C491   C1194   1.427   .     S
C492   C1193   1.427   1_554 S
Cu493  O511    1.986   .     S
Cu493  N506    2.074   .     S
Cu493  O510    1.982   .     S
Cu493  Cu494   2.760   .     S
Cu493  O507    1.967   .     S
Cu493  O514    1.994   .     S
Cu494  O512    1.986   .     S
Cu494  O513    1.994   .     S
Cu494  N505    2.074   .     S
Cu494  O508    1.967   .     S
Cu494  O509    1.982   .     S
H501   C559    1.084   .     S
H502   C638    1.084   1_455 S
N505   C525    1.522   .     S
N505   N584    1.255   .     S
N506   C536    1.523   .     S
N506   N661    1.255   1_455 S
O515   C516    1.409   .     S
C516   H519    1.109   .     S
C516   H518    1.104   .     S
C516   H517    1.112   .     S
O520   C521    1.409   .     S
O520   C8      1.390   1_565 S
C521   H522    1.104   .     S
C521   H523    1.112   .     S
C521   H524    1.109   .     S
C525   C526    1.437   .     A
C525   C608    1.435   .     S
C526   C527    1.400   .     A
C526   H531    1.042   .     S
C527   H532    1.084   .     S
C527   C606    1.372   .     S
C528   C529    1.373   .     A
C528   H533    1.082   .     S
C528   C683    1.372   1_455 S
C529   H534    1.085   .     S
C529   C530    1.403   .     A
C530   H535    1.023   .     S
C530   C681    1.435   1_455 S
C536   C537    1.437   .     A
C536   C697    1.436   1_455 S
C537   C538    1.400   .     A
C537   H542    1.042   .     S
C538   H543    1.084   .     S
C538   C695    1.372   1_455 S
C539   C540    1.373   .     A
C539   C616    1.372   .     S
C540   H545    1.085   .     S
C540   C541    1.403   .     A
C541   H546    1.023   .     S
C541   C614    1.436   .     S
H544   C71     1.083   1_565 S
C547   O587    1.332   .     A
C547   C553    1.469   .     S
C547   O585    1.306   .     A
C548   C554    1.469   .     S
C548   O588    1.332   .     A
C548   O586    1.307   .     A
C549   C570    1.417   .     A
C549   H581    1.075   .     S
C549   C551    1.384   .     A
C550   H582    1.075   .     S
C550   C552    1.384   .     A
C550   C569    1.417   .     A
C551   H573    1.085   .     S
C551   C1269   1.388   1_554 S
C552   H574    1.085   .     S
C552   C1270   1.388   .     S
C553   C86     1.368   1_565 S
C553   O125    1.390   1_565 S
C555   O591    1.324   .     A
C555   O589    1.317   .     A
C555   C557    1.465   .     S
C556   O592    1.324   .     A
C556   O590    1.317   .     A
C556   C558    1.466   .     S
C557   C561    1.400   .     A
C557   C563    1.396   .     A
C558   C562    1.400   .     A
C558   C564    1.396   .     A
C559   C567    1.401   .     A
C559   C561    1.389   .     A
C560   C562    1.389   .     A
C560   C568    1.401   .     A
C560   H658    1.084   .     S
C561   H578    1.083   .     S
C562   H577    1.083   .     S
C563   H576    1.074   .     S
C563   C565    1.408   .     A
C564   H575    1.074   .     S
C564   C566    1.408   .     A
C565   C567    1.420   .     A
C565   C569    1.427   .     A
C566   C570    1.427   .     A
C566   C568    1.419   .     A
C567   C1253   1.388   .     S
C568   C1254   1.388   1_554 S
C569   C1272   1.427   .     S
C570   C1271   1.427   1_554 S
Cu571  O589    1.986   .     S
Cu571  N584    2.074   .     S
Cu571  O588    1.982   .     S
Cu571  Cu572   2.760   .     S
Cu571  O585    1.967   .     S
Cu571  O592    1.994   .     S
Cu572  O590    1.986   .     S
Cu572  O591    1.994   .     S
Cu572  N583    2.074   .     S
Cu572  O586    1.967   .     S
Cu572  O587    1.982   .     S
H579   C637    1.084   .     S
N583   C603    1.522   .     S
N583   N662    1.255   .     S
N584   C614    1.523   .     S
O593   C594    1.409   .     S
C594   H597    1.109   .     S
C594   H596    1.104   .     S
C594   H595    1.112   .     S
O598   C599    1.409   .     S
O598   C86     1.390   1_565 S
C599   H600    1.104   .     S
C599   H601    1.112   .     S
C599   H602    1.109   .     S
C603   C604    1.437   .     A
C603   C686    1.435   .     S
C604   C605    1.400   .     A
C604   H609    1.042   .     S
C605   H610    1.084   .     S
C605   C684    1.372   .     S
C606   C607    1.373   .     A
C606   H611    1.082   .     S
C607   H612    1.085   .     S
C607   C608    1.403   .     A
C608   H613    1.023   .     S
C614   C615    1.437   .     A
C615   C616    1.400   .     A
C615   H620    1.042   .     S
C616   H621    1.084   .     S
C617   C618    1.373   .     A
C617   C694    1.372   .     S
C618   H623    1.085   .     S
C618   C619    1.403   .     A
C619   H624    1.023   .     S
C619   C692    1.436   .     S
H622   C149    1.083   1_565 S
C625   O665    1.332   .     A
C625   C631    1.469   .     S
C625   O663    1.306   .     A
C626   C632    1.469   .     S
C626   O666    1.332   .     A
C626   O664    1.307   .     A
C627   C648    1.417   .     A
C627   H659    1.075   .     S
C627   C629    1.384   .     A
C628   H660    1.075   .     S
C628   C630    1.384   .     A
C628   C647    1.417   .     A
C629   H651    1.085   .     S
C629   C1347   1.388   1_554 S
C630   H652    1.085   .     S
C630   C1348   1.388   .     S
C631   C164    1.368   1_565 S
C631   O203    1.390   1_565 S
C633   O669    1.324   .     A
C633   O667    1.317   .     A
C633   C635    1.465   .     S
C634   O670    1.324   .     A
C634   O668    1.317   .     A
C634   C636    1.466   .     S
C635   C639    1.400   .     A
C635   C641    1.396   .     A
C636   C640    1.400   .     A
C636   C642    1.396   .     A
C637   C645    1.401   .     A
C637   C639    1.389   .     A
C638   C640    1.389   .     A
C638   C646    1.401   .     A
C638   H502    1.084   1_655 S
C639   H656    1.083   .     S
C640   H655    1.083   .     S
C641   H654    1.074   .     S
C641   C643    1.408   .     A
C642   H653    1.074   .     S
C642   C644    1.408   .     A
C643   C645    1.420   .     A
C643   C647    1.427   .     A
C644   C648    1.427   .     A
C644   C646    1.419   .     A
C645   C1331   1.388   .     S
C646   C1332   1.388   1_554 S
C647   C1350   1.427   .     S
C648   C1349   1.427   1_554 S
Cu649  O667    1.986   .     S
Cu649  N662    2.074   .     S
Cu649  O666    1.982   .     S
Cu649  Cu650   2.760   .     S
Cu649  O663    1.967   .     S
Cu649  O670    1.994   .     S
Cu650  O668    1.986   .     S
Cu650  O669    1.994   .     S
Cu650  N661    2.074   .     S
Cu650  O664    1.967   .     S
Cu650  O665    1.982   .     S
H657   C481    1.084   1_655 S
N661   C681    1.522   .     S
N661   N506    1.255   1_655 S
N662   C692    1.523   .     S
O671   C672    1.409   .     S
C672   H675    1.109   .     S
C672   H674    1.104   .     S
C672   H673    1.112   .     S
O676   C677    1.409   .     S
O676   C164    1.390   1_565 S
C677   H678    1.104   .     S
C677   H679    1.112   .     S
C677   H680    1.109   .     S
C681   C682    1.437   .     A
C681   C530    1.435   1_655 S
C682   C683    1.400   .     A
C682   H687    1.042   .     S
C683   H688    1.084   .     S
C683   C528    1.372   1_655 S
C684   C685    1.373   .     A
C684   H689    1.082   .     S
C685   H690    1.085   .     S
C685   C686    1.403   .     A
C686   H691    1.023   .     S
C692   C693    1.437   .     A
C693   C694    1.400   .     A
C693   H698    1.042   .     S
C694   H699    1.084   .     S
C695   C696    1.373   .     A
C695   C538    1.372   1_655 S
C696   H701    1.085   .     S
C696   C697    1.403   .     A
C697   H702    1.023   .     S
C697   C536    1.436   1_655 S
H700   C227    1.083   1_565 S
C703   O743    1.332   .     A
C703   C709    1.469   .     S
C703   O741    1.306   .     A
C704   C710    1.469   .     S
C704   O744    1.332   .     A
C704   O742    1.307   .     A
C705   C726    1.417   .     A
C705   H737    1.075   .     S
C705   C707    1.384   .     A
C706   H738    1.075   .     S
C706   C708    1.384   .     A
C706   C725    1.417   .     A
C707   H729    1.085   .     S
C708   H730    1.085   .     S
C708   C22     1.388   1_556 S
C709   C944    1.368   .     S
C709   O983    1.390   .     S
C710   C1177   1.368   1_545 S
C710   O1222   1.390   1_545 S
C711   O747    1.324   .     A
C711   O745    1.317   .     A
C711   C713    1.465   .     S
C712   O748    1.324   .     A
C712   O746    1.317   .     A
C712   C714    1.466   .     S
C713   C717    1.400   .     A
C713   C719    1.396   .     A
C714   C718    1.400   .     A
C714   C720    1.396   .     A
C715   C723    1.401   .     A
C715   C717    1.389   .     A
C715   H891    1.084   1_455 S
C716   C718    1.389   .     A
C716   C724    1.401   .     A
C716   H814    1.084   .     S
C717   H734    1.083   .     S
C718   H733    1.083   .     S
C719   H732    1.074   .     S
C719   C721    1.408   .     A
C720   H731    1.074   .     S
C720   C722    1.408   .     A
C721   C723    1.420   .     A
C721   C725    1.427   .     A
C722   C726    1.427   .     A
C722   C724    1.419   .     A
C723   C5      1.388   1_556 S
C725   C24     1.427   1_556 S
Cu727  O745    1.986   .     S
Cu727  N740    2.074   .     S
Cu727  O744    1.982   .     S
Cu727  Cu728   2.760   .     S
Cu727  O741    1.967   .     S
Cu727  O748    1.994   .     S
Cu728  O746    1.986   .     S
Cu728  O747    1.994   .     S
Cu728  N739    2.074   .     S
Cu728  O742    1.967   .     S
Cu728  O743    1.982   .     S
H735   C793    1.084   .     S
H736   C872    1.084   1_455 S
N739   C759    1.522   .     S
N739   N818    1.255   .     S
N740   C770    1.523   .     S
N740   N895    1.255   1_455 S
O749   C750    1.409   .     S
O749   C1177   1.390   1_545 S
C750   H753    1.109   .     S
C750   H752    1.104   .     S
C750   H751    1.112   .     S
O754   C755    1.409   .     S
O754   C944    1.390   .     S
C755   H756    1.104   .     S
C755   H757    1.112   .     S
C755   H758    1.109   .     S
C759   C760    1.437   .     A
C759   C842    1.435   .     S
C760   C761    1.400   .     A
C760   H765    1.042   .     S
C761   H766    1.084   .     S
C761   C840    1.372   .     S
C762   C763    1.373   .     A
C762   H767    1.082   .     S
C762   C917    1.372   1_455 S
C763   H768    1.085   .     S
C763   C764    1.403   .     A
C764   H769    1.023   .     S
C764   C915    1.435   1_455 S
C770   C771    1.437   .     A
C770   C931    1.436   1_455 S
C771   C772    1.400   .     A
C771   H776    1.042   .     S
C772   H777    1.084   .     S
C772   C929    1.372   1_455 S
C773   C774    1.373   .     A
C773   C850    1.372   .     S
C773   H1246   1.083   1_545 S
C774   H779    1.085   .     S
C774   C775    1.403   .     A
C775   H780    1.023   .     S
C775   C848    1.436   .     S
H778   C1007   1.083   .     S
C781   O821    1.332   .     A
C781   C787    1.469   .     S
C781   O819    1.306   .     A
C782   C788    1.469   .     S
C782   O822    1.332   .     A
C782   O820    1.307   .     A
C783   C804    1.417   .     A
C783   H815    1.075   .     S
C783   C785    1.384   .     A
C784   H816    1.075   .     S
C784   C786    1.384   .     A
C784   C803    1.417   .     A
C785   H807    1.085   .     S
C786   H808    1.085   .     S
C786   C100    1.388   1_556 S
C787   C1022   1.368   .     S
C787   O1061   1.390   .     S
C788   C1255   1.368   1_545 S
C788   O1300   1.390   1_545 S
C789   O825    1.324   .     A
C789   O823    1.317   .     A
C789   C791    1.465   .     S
C790   O826    1.324   .     A
C790   O824    1.317   .     A
C790   C792    1.466   .     S
C791   C795    1.400   .     A
C791   C797    1.396   .     A
C792   C796    1.400   .     A
C792   C798    1.396   .     A
C793   C801    1.401   .     A
C793   C795    1.389   .     A
C794   C796    1.389   .     A
C794   C802    1.401   .     A
C794   H892    1.084   .     S
C795   H812    1.083   .     S
C796   H811    1.083   .     S
C797   H810    1.074   .     S
C797   C799    1.408   .     A
C798   H809    1.074   .     S
C798   C800    1.408   .     A
C799   C801    1.420   .     A
C799   C803    1.427   .     A
C800   C804    1.427   .     A
C800   C802    1.419   .     A
C801   C83     1.388   1_556 S
C803   C102    1.427   1_556 S
Cu805  O823    1.986   .     S
Cu805  N818    2.074   .     S
Cu805  O822    1.982   .     S
Cu805  Cu806   2.760   .     S
Cu805  O819    1.967   .     S
Cu805  O826    1.994   .     S
Cu806  O824    1.986   .     S
Cu806  O825    1.994   .     S
Cu806  N817    2.074   .     S
Cu806  O820    1.967   .     S
Cu806  O821    1.982   .     S
H813   C871    1.084   .     S
N817   C837    1.522   .     S
N817   N896    1.255   .     S
N818   C848    1.523   .     S
O827   C828    1.409   .     S
O827   C1255   1.390   1_545 S
C828   H831    1.109   .     S
C828   H830    1.104   .     S
C828   H829    1.112   .     S
O832   C833    1.409   .     S
O832   C1022   1.390   .     S
C833   H834    1.104   .     S
C833   H835    1.112   .     S
C833   H836    1.109   .     S
C837   C838    1.437   .     A
C837   C920    1.435   .     S
C838   C839    1.400   .     A
C838   H843    1.042   .     S
C839   H844    1.084   .     S
C839   C918    1.372   .     S
C840   C841    1.373   .     A
C840   H845    1.082   .     S
C841   H846    1.085   .     S
C841   C842    1.403   .     A
C842   H847    1.023   .     S
C848   C849    1.437   .     A
C849   C850    1.400   .     A
C849   H854    1.042   .     S
C850   H855    1.084   .     S
C851   C852    1.373   .     A
C851   C928    1.372   .     S
C851   H1324   1.083   1_545 S
C852   H857    1.085   .     S
C852   C853    1.403   .     A
C853   H858    1.023   .     S
C853   C926    1.436   .     S
H856   C1085   1.083   .     S
C859   O899    1.332   .     A
C859   C865    1.469   .     S
C859   O897    1.306   .     A
C860   C866    1.469   .     S
C860   O900    1.332   .     A
C860   O898    1.307   .     A
C861   C882    1.417   .     A
C861   H893    1.075   .     S
C861   C863    1.384   .     A
C862   H894    1.075   .     S
C862   C864    1.384   .     A
C862   C881    1.417   .     A
C863   H885    1.085   .     S
C864   H886    1.085   .     S
C864   C178    1.388   1_556 S
C865   C1100   1.368   .     S
C865   O1139   1.390   .     S
C866   C1333   1.368   1_545 S
C866   O1378   1.390   1_545 S
C867   O903    1.324   .     A
C867   O901    1.317   .     A
C867   C869    1.465   .     S
C868   O904    1.324   .     A
C868   O902    1.317   .     A
C868   C870    1.466   .     S
C869   C873    1.400   .     A
C869   C875    1.396   .     A
C870   C874    1.400   .     A
C870   C876    1.396   .     A
C871   C879    1.401   .     A
C871   C873    1.389   .     A
C872   C874    1.389   .     A
C872   C880    1.401   .     A
C872   H736    1.084   1_655 S
C873   H890    1.083   .     S
C874   H889    1.083   .     S
C875   H888    1.074   .     S
C875   C877    1.408   .     A
C876   H887    1.074   .     S
C876   C878    1.408   .     A
C877   C879    1.420   .     A
C877   C881    1.427   .     A
C878   C882    1.427   .     A
C878   C880    1.419   .     A
C879   C161    1.388   1_556 S
C881   C180    1.427   1_556 S
Cu883  O901    1.986   .     S
Cu883  N896    2.074   .     S
Cu883  O900    1.982   .     S
Cu883  Cu884   2.760   .     S
Cu883  O897    1.967   .     S
Cu883  O904    1.994   .     S
Cu884  O902    1.986   .     S
Cu884  O903    1.994   .     S
Cu884  N895    2.074   .     S
Cu884  O898    1.967   .     S
Cu884  O899    1.982   .     S
H891   C715    1.084   1_655 S
N895   C915    1.522   .     S
N895   N740    1.255   1_655 S
N896   C926    1.523   .     S
O905   C906    1.409   .     S
O905   C1333   1.390   1_545 S
C906   H909    1.109   .     S
C906   H908    1.104   .     S
C906   H907    1.112   .     S
O910   C911    1.409   .     S
O910   C1100   1.390   .     S
C911   H912    1.104   .     S
C911   H913    1.112   .     S
C911   H914    1.109   .     S
C915   C916    1.437   .     A
C915   C764    1.435   1_655 S
C916   C917    1.400   .     A
C916   H921    1.042   .     S
C917   H922    1.084   .     S
C917   C762    1.372   1_655 S
C918   C919    1.373   .     A
C918   H923    1.082   .     S
C919   H924    1.085   .     S
C919   C920    1.403   .     A
C920   H925    1.023   .     S
C926   C927    1.437   .     A
C927   C928    1.400   .     A
C927   H932    1.042   .     S
C928   H933    1.084   .     S
C929   C930    1.373   .     A
C929   C772    1.372   1_655 S
C929   H1402   1.083   1_545 S
C930   H935    1.085   .     S
C930   C931    1.403   .     A
C931   H936    1.023   .     S
C931   C770    1.436   1_655 S
H934   C1163   1.083   .     S
C937   O977    1.332   .     A
C937   C943    1.469   .     S
C937   O975    1.306   .     A
C938   C944    1.469   .     S
C938   O978    1.332   .     A
C938   O976    1.307   .     A
C939   C960    1.417   .     A
C939   H971    1.075   .     S
C939   C941    1.384   .     A
C940   H972    1.075   .     S
C940   C942    1.384   .     A
C940   C959    1.417   .     A
C941   H963    1.085   .     S
C942   H964    1.085   .     S
C942   C256    1.388   1_556 S
C943   C1178   1.368   .     S
C943   O1217   1.390   .     S
C945   O981    1.324   .     A
C945   O979    1.317   .     A
C945   C947    1.465   .     S
C946   O982    1.324   .     A
C946   O980    1.317   .     A
C946   C948    1.466   .     S
C947   C951    1.400   .     A
C947   C953    1.396   .     A
C948   C952    1.400   .     A
C948   C954    1.396   .     A
C949   C957    1.401   .     A
C949   C951    1.389   .     A
C949   H1125   1.084   1_455 S
C950   C952    1.389   .     A
C950   C958    1.401   .     A
C950   H1048   1.084   .     S
C951   H968    1.083   .     S
C952   H967    1.083   .     S
C953   H966    1.074   .     S
C953   C955    1.408   .     A
C954   H965    1.074   .     S
C954   C956    1.408   .     A
C955   C957    1.420   .     A
C955   C959    1.427   .     A
C956   C960    1.427   .     A
C956   C958    1.419   .     A
C957   C239    1.388   1_556 S
C959   C258    1.427   1_556 S
Cu961  O979    1.986   .     S
Cu961  N974    2.074   .     S
Cu961  O978    1.982   .     S
Cu961  Cu962   2.760   .     S
Cu961  O975    1.967   .     S
Cu961  O982    1.994   .     S
Cu962  O980    1.986   .     S
Cu962  O981    1.994   .     S
Cu962  N973    2.074   .     S
Cu962  O976    1.967   .     S
Cu962  O977    1.982   .     S
H969   C1027   1.084   .     S
H970   C1106   1.084   1_455 S
N973   C993    1.522   .     S
N973   N1052   1.255   .     S
N974   C1004   1.523   .     S
N974   N1129   1.255   1_455 S
O983   C984    1.409   .     S
C984   H987    1.109   .     S
C984   H986    1.104   .     S
C984   H985    1.112   .     S
O988   C989    1.409   .     S
O988   C1178   1.390   .     S
C989   H990    1.104   .     S
C989   H991    1.112   .     S
C989   H992    1.109   .     S
C993   C994    1.437   .     A
C993   C1076   1.435   .     S
C994   C995    1.400   .     A
C994   H999    1.042   .     S
C995   H1000   1.084   .     S
C995   C1074   1.372   .     S
C996   C997    1.373   .     A
C996   H1001   1.082   .     S
C996   C1151   1.372   1_455 S
C997   H1002   1.085   .     S
C997   C998    1.403   .     A
C998   H1003   1.023   .     S
C998   C1149   1.435   1_455 S
C1004  C1005   1.437   .     A
C1004  C1165   1.436   1_455 S
C1005  C1006   1.400   .     A
C1005  H1010   1.042   .     S
C1006  H1011   1.084   .     S
C1006  C1163   1.372   1_455 S
C1007  C1008   1.373   .     A
C1007  C1084   1.372   .     S
C1008  H1013   1.085   .     S
C1008  C1009   1.403   .     A
C1009  H1014   1.023   .     S
C1009  C1082   1.436   .     S
H1012  C1241   1.083   .     S
C1015  O1055   1.332   .     A
C1015  C1021   1.469   .     S
C1015  O1053   1.306   .     A
C1016  C1022   1.469   .     S
C1016  O1056   1.332   .     A
C1016  O1054   1.307   .     A
C1017  C1038   1.417   .     A
C1017  H1049   1.075   .     S
C1017  C1019   1.384   .     A
C1018  H1050   1.075   .     S
C1018  C1020   1.384   .     A
C1018  C1037   1.417   .     A
C1019  H1041   1.085   .     S
C1020  H1042   1.085   .     S
C1020  C334    1.388   1_556 S
C1021  C1256   1.368   .     S
C1021  O1295   1.390   .     S
C1023  O1059   1.324   .     A
C1023  O1057   1.317   .     A
C1023  C1025   1.465   .     S
C1024  O1060   1.324   .     A
C1024  O1058   1.317   .     A
C1024  C1026   1.466   .     S
C1025  C1029   1.400   .     A
C1025  C1031   1.396   .     A
C1026  C1030   1.400   .     A
C1026  C1032   1.396   .     A
C1027  C1035   1.401   .     A
C1027  C1029   1.389   .     A
C1028  C1030   1.389   .     A
C1028  C1036   1.401   .     A
C1028  H1126   1.084   .     S
C1029  H1046   1.083   .     S
C1030  H1045   1.083   .     S
C1031  H1044   1.074   .     S
C1031  C1033   1.408   .     A
C1032  H1043   1.074   .     S
C1032  C1034   1.408   .     A
C1033  C1035   1.420   .     A
C1033  C1037   1.427   .     A
C1034  C1038   1.427   .     A
C1034  C1036   1.419   .     A
C1035  C317    1.388   1_556 S
C1037  C336    1.427   1_556 S
Cu1039 O1057   1.986   .     S
Cu1039 N1052   2.074   .     S
Cu1039 O1056   1.982   .     S
Cu1039 Cu1040  2.760   .     S
Cu1039 O1053   1.967   .     S
Cu1039 O1060   1.994   .     S
Cu1040 O1058   1.986   .     S
Cu1040 O1059   1.994   .     S
Cu1040 N1051   2.074   .     S
Cu1040 O1054   1.967   .     S
Cu1040 O1055   1.982   .     S
H1047  C1105   1.084   .     S
N1051  C1071   1.522   .     S
N1051  N1130   1.255   .     S
N1052  C1082   1.523   .     S
O1061  C1062   1.409   .     S
C1062  H1065   1.109   .     S
C1062  H1064   1.104   .     S
C1062  H1063   1.112   .     S
O1066  C1067   1.409   .     S
O1066  C1256   1.390   .     S
C1067  H1068   1.104   .     S
C1067  H1069   1.112   .     S
C1067  H1070   1.109   .     S
C1071  C1072   1.437   .     A
C1071  C1154   1.435   .     S
C1072  C1073   1.400   .     A
C1072  H1077   1.042   .     S
C1073  H1078   1.084   .     S
C1073  C1152   1.372   .     S
C1074  C1075   1.373   .     A
C1074  H1079   1.082   .     S
C1075  H1080   1.085   .     S
C1075  C1076   1.403   .     A
C1076  H1081   1.023   .     S
C1082  C1083   1.437   .     A
C1083  C1084   1.400   .     A
C1083  H1088   1.042   .     S
C1084  H1089   1.084   .     S
C1085  C1086   1.373   .     A
C1085  C1162   1.372   .     S
C1086  H1091   1.085   .     S
C1086  C1087   1.403   .     A
C1087  H1092   1.023   .     S
C1087  C1160   1.436   .     S
H1090  C1319   1.083   .     S
C1093  O1133   1.332   .     A
C1093  C1099   1.469   .     S
C1093  O1131   1.306   .     A
C1094  C1100   1.469   .     S
C1094  O1134   1.332   .     A
C1094  O1132   1.307   .     A
C1095  C1116   1.417   .     A
C1095  H1127   1.075   .     S
C1095  C1097   1.384   .     A
C1096  H1128   1.075   .     S
C1096  C1098   1.384   .     A
C1096  C1115   1.417   .     A
C1097  H1119   1.085   .     S
C1098  H1120   1.085   .     S
C1098  C412    1.388   1_556 S
C1099  C1334   1.368   .     S
C1099  O1373   1.390   .     S
C1101  O1137   1.324   .     A
C1101  O1135   1.317   .     A
C1101  C1103   1.465   .     S
C1102  O1138   1.324   .     A
C1102  O1136   1.317   .     A
C1102  C1104   1.466   .     S
C1103  C1107   1.400   .     A
C1103  C1109   1.396   .     A
C1104  C1108   1.400   .     A
C1104  C1110   1.396   .     A
C1105  C1113   1.401   .     A
C1105  C1107   1.389   .     A
C1106  C1108   1.389   .     A
C1106  C1114   1.401   .     A
C1106  H970    1.084   1_655 S
C1107  H1124   1.083   .     S
C1108  H1123   1.083   .     S
C1109  H1122   1.074   .     S
C1109  C1111   1.408   .     A
C1110  H1121   1.074   .     S
C1110  C1112   1.408   .     A
C1111  C1113   1.420   .     A
C1111  C1115   1.427   .     A
C1112  C1116   1.427   .     A
C1112  C1114   1.419   .     A
C1113  C395    1.388   1_556 S
C1115  C414    1.427   1_556 S
Cu1117 O1135   1.986   .     S
Cu1117 N1130   2.074   .     S
Cu1117 O1134   1.982   .     S
Cu1117 Cu1118  2.760   .     S
Cu1117 O1131   1.967   .     S
Cu1117 O1138   1.994   .     S
Cu1118 O1136   1.986   .     S
Cu1118 O1137   1.994   .     S
Cu1118 N1129   2.074   .     S
Cu1118 O1132   1.967   .     S
Cu1118 O1133   1.982   .     S
H1125  C949    1.084   1_655 S
N1129  C1149   1.522   .     S
N1129  N974    1.255   1_655 S
N1130  C1160   1.523   .     S
O1139  C1140   1.409   .     S
C1140  H1143   1.109   .     S
C1140  H1142   1.104   .     S
C1140  H1141   1.112   .     S
O1144  C1145   1.409   .     S
O1144  C1334   1.390   .     S
C1145  H1146   1.104   .     S
C1145  H1147   1.112   .     S
C1145  H1148   1.109   .     S
C1149  C1150   1.437   .     A
C1149  C998    1.435   1_655 S
C1150  C1151   1.400   .     A
C1150  H1155   1.042   .     S
C1151  H1156   1.084   .     S
C1151  C996    1.372   1_655 S
C1152  C1153   1.373   .     A
C1152  H1157   1.082   .     S
C1153  H1158   1.085   .     S
C1153  C1154   1.403   .     A
C1154  H1159   1.023   .     S
C1160  C1161   1.437   .     A
C1161  C1162   1.400   .     A
C1161  H1166   1.042   .     S
C1162  H1167   1.084   .     S
C1163  C1164   1.373   .     A
C1163  C1006   1.372   1_655 S
C1164  H1169   1.085   .     S
C1164  C1165   1.403   .     A
C1165  H1170   1.023   .     S
C1165  C1004   1.436   1_655 S
H1168  C1397   1.083   .     S
C1171  O1211   1.332   .     A
C1171  C1177   1.469   .     S
C1171  O1209   1.306   .     A
C1172  C1178   1.469   .     S
C1172  O1212   1.332   .     A
C1172  O1210   1.307   .     A
C1173  C1194   1.417   .     A
C1173  H1205   1.075   .     S
C1173  C1175   1.384   .     A
C1174  H1206   1.075   .     S
C1174  C1176   1.384   .     A
C1174  C1193   1.417   .     A
C1175  H1197   1.085   .     S
C1176  H1198   1.085   .     S
C1176  C490    1.388   1_556 S
C1177  C710    1.368   1_565 S
C1177  O749    1.390   1_565 S
C1179  O1215   1.324   .     A
C1179  O1213   1.317   .     A
C1179  C1181   1.465   .     S
C1180  O1216   1.324   .     A
C1180  O1214   1.317   .     A
C1180  C1182   1.466   .     S
C1181  C1185   1.400   .     A
C1181  C1187   1.396   .     A
C1182  C1186   1.400   .     A
C1182  C1188   1.396   .     A
C1183  C1191   1.401   .     A
C1183  C1185   1.389   .     A
C1183  H1359   1.084   1_455 S
C1184  C1186   1.389   .     A
C1184  C1192   1.401   .     A
C1184  H1282   1.084   .     S
C1185  H1202   1.083   .     S
C1186  H1201   1.083   .     S
C1187  H1200   1.074   .     S
C1187  C1189   1.408   .     A
C1188  H1199   1.074   .     S
C1188  C1190   1.408   .     A
C1189  C1191   1.420   .     A
C1189  C1193   1.427   .     A
C1190  C1194   1.427   .     A
C1190  C1192   1.419   .     A
C1191  C473    1.388   1_556 S
C1193  C492    1.427   1_556 S
Cu1195 O1213   1.986   .     S
Cu1195 N1208   2.074   .     S
Cu1195 O1212   1.982   .     S
Cu1195 Cu1196  2.760   .     S
Cu1195 O1209   1.967   .     S
Cu1195 O1216   1.994   .     S
Cu1196 O1214   1.986   .     S
Cu1196 O1215   1.994   .     S
Cu1196 N1207   2.074   .     S
Cu1196 O1210   1.967   .     S
Cu1196 O1211   1.982   .     S
H1203  C1261   1.084   .     S
H1204  C1340   1.084   1_455 S
N1207  C1227   1.522   .     S
N1207  N1286   1.255   .     S
N1208  C1238   1.523   .     S
N1208  N1363   1.255   1_455 S
O1217  C1218   1.409   .     S
C1218  H1221   1.109   .     S
C1218  H1220   1.104   .     S
C1218  H1219   1.112   .     S
O1222  C1223   1.409   .     S
O1222  C710    1.390   1_565 S
C1223  H1224   1.104   .     S
C1223  H1225   1.112   .     S
C1223  H1226   1.109   .     S
C1227  C1228   1.437   .     A
C1227  C1310   1.435   .     S
C1228  C1229   1.400   .     A
C1228  H1233   1.042   .     S
C1229  H1234   1.084   .     S
C1229  C1308   1.372   .     S
C1230  C1231   1.373   .     A
C1230  H1235   1.082   .     S
C1230  C1385   1.372   1_455 S
C1231  H1236   1.085   .     S
C1231  C1232   1.403   .     A
C1232  H1237   1.023   .     S
C1232  C1383   1.435   1_455 S
C1238  C1239   1.437   .     A
C1238  C1399   1.436   1_455 S
C1239  C1240   1.400   .     A
C1239  H1244   1.042   .     S
C1240  H1245   1.084   .     S
C1240  C1397   1.372   1_455 S
C1241  C1242   1.373   .     A
C1241  C1318   1.372   .     S
C1242  H1247   1.085   .     S
C1242  C1243   1.403   .     A
C1243  H1248   1.023   .     S
C1243  C1316   1.436   .     S
H1246  C773    1.083   1_565 S
C1249  O1289   1.332   .     A
C1249  C1255   1.469   .     S
C1249  O1287   1.306   .     A
C1250  C1256   1.469   .     S
C1250  O1290   1.332   .     A
C1250  O1288   1.307   .     A
C1251  C1272   1.417   .     A
C1251  H1283   1.075   .     S
C1251  C1253   1.384   .     A
C1252  H1284   1.075   .     S
C1252  C1254   1.384   .     A
C1252  C1271   1.417   .     A
C1253  H1275   1.085   .     S
C1254  H1276   1.085   .     S
C1254  C568    1.388   1_556 S
C1255  C788    1.368   1_565 S
C1255  O827    1.390   1_565 S
C1257  O1293   1.324   .     A
C1257  O1291   1.317   .     A
C1257  C1259   1.465   .     S
C1258  O1294   1.324   .     A
C1258  O1292   1.317   .     A
C1258  C1260   1.466   .     S
C1259  C1263   1.400   .     A
C1259  C1265   1.396   .     A
C1260  C1264   1.400   .     A
C1260  C1266   1.396   .     A
C1261  C1269   1.401   .     A
C1261  C1263   1.389   .     A
C1262  C1264   1.389   .     A
C1262  C1270   1.401   .     A
C1262  H1360   1.084   .     S
C1263  H1280   1.083   .     S
C1264  H1279   1.083   .     S
C1265  H1278   1.074   .     S
C1265  C1267   1.408   .     A
C1266  H1277   1.074   .     S
C1266  C1268   1.408   .     A
C1267  C1269   1.420   .     A
C1267  C1271   1.427   .     A
C1268  C1272   1.427   .     A
C1268  C1270   1.419   .     A
C1269  C551    1.388   1_556 S
C1271  C570    1.427   1_556 S
Cu1273 O1291   1.986   .     S
Cu1273 N1286   2.074   .     S
Cu1273 O1290   1.982   .     S
Cu1273 Cu1274  2.760   .     S
Cu1273 O1287   1.967   .     S
Cu1273 O1294   1.994   .     S
Cu1274 O1292   1.986   .     S
Cu1274 O1293   1.994   .     S
Cu1274 N1285   2.074   .     S
Cu1274 O1288   1.967   .     S
Cu1274 O1289   1.982   .     S
H1281  C1339   1.084   .     S
N1285  C1305   1.522   .     S
N1285  N1364   1.255   .     S
N1286  C1316   1.523   .     S
O1295  C1296   1.409   .     S
C1296  H1299   1.109   .     S
C1296  H1298   1.104   .     S
C1296  H1297   1.112   .     S
O1300  C1301   1.409   .     S
O1300  C788    1.390   1_565 S
C1301  H1302   1.104   .     S
C1301  H1303   1.112   .     S
C1301  H1304   1.109   .     S
C1305  C1306   1.437   .     A
C1305  C1388   1.435   .     S
C1306  C1307   1.400   .     A
C1306  H1311   1.042   .     S
C1307  H1312   1.084   .     S
C1307  C1386   1.372   .     S
C1308  C1309   1.373   .     A
C1308  H1313   1.082   .     S
C1309  H1314   1.085   .     S
C1309  C1310   1.403   .     A
C1310  H1315   1.023   .     S
C1316  C1317   1.437   .     A
C1317  C1318   1.400   .     A
C1317  H1322   1.042   .     S
C1318  H1323   1.084   .     S
C1319  C1320   1.373   .     A
C1319  C1396   1.372   .     S
C1320  H1325   1.085   .     S
C1320  C1321   1.403   .     A
C1321  H1326   1.023   .     S
C1321  C1394   1.436   .     S
H1324  C851    1.083   1_565 S
C1327  O1367   1.332   .     A
C1327  C1333   1.469   .     S
C1327  O1365   1.306   .     A
C1328  C1334   1.469   .     S
C1328  O1368   1.332   .     A
C1328  O1366   1.307   .     A
C1329  C1350   1.417   .     A
C1329  H1361   1.075   .     S
C1329  C1331   1.384   .     A
C1330  H1362   1.075   .     S
C1330  C1332   1.384   .     A
C1330  C1349   1.417   .     A
C1331  H1353   1.085   .     S
C1332  H1354   1.085   .     S
C1332  C646    1.388   1_556 S
C1333  C866    1.368   1_565 S
C1333  O905    1.390   1_565 S
C1335  O1371   1.324   .     A
C1335  O1369   1.317   .     A
C1335  C1337   1.465   .     S
C1336  O1372   1.324   .     A
C1336  O1370   1.317   .     A
C1336  C1338   1.466   .     S
C1337  C1341   1.400   .     A
C1337  C1343   1.396   .     A
C1338  C1342   1.400   .     A
C1338  C1344   1.396   .     A
C1339  C1347   1.401   .     A
C1339  C1341   1.389   .     A
C1340  C1342   1.389   .     A
C1340  C1348   1.401   .     A
C1340  H1204   1.084   1_655 S
C1341  H1358   1.083   .     S
C1342  H1357   1.083   .     S
C1343  H1356   1.074   .     S
C1343  C1345   1.408   .     A
C1344  H1355   1.074   .     S
C1344  C1346   1.408   .     A
C1345  C1347   1.420   .     A
C1345  C1349   1.427   .     A
C1346  C1350   1.427   .     A
C1346  C1348   1.419   .     A
C1347  C629    1.388   1_556 S
C1349  C648    1.427   1_556 S
Cu1351 O1369   1.986   .     S
Cu1351 N1364   2.074   .     S
Cu1351 O1368   1.982   .     S
Cu1351 Cu1352  2.760   .     S
Cu1351 O1365   1.967   .     S
Cu1351 O1372   1.994   .     S
Cu1352 O1370   1.986   .     S
Cu1352 O1371   1.994   .     S
Cu1352 N1363   2.074   .     S
Cu1352 O1366   1.967   .     S
Cu1352 O1367   1.982   .     S
H1359  C1183   1.084   1_655 S
N1363  C1383   1.522   .     S
N1363  N1208   1.255   1_655 S
N1364  C1394   1.523   .     S
O1373  C1374   1.409   .     S
C1374  H1377   1.109   .     S
C1374  H1376   1.104   .     S
C1374  H1375   1.112   .     S
O1378  C1379   1.409   .     S
O1378  C866    1.390   1_565 S
C1379  H1380   1.104   .     S
C1379  H1381   1.112   .     S
C1379  H1382   1.109   .     S
C1383  C1384   1.437   .     A
C1383  C1232   1.435   1_655 S
C1384  C1385   1.400   .     A
C1384  H1389   1.042   .     S
C1385  H1390   1.084   .     S
C1385  C1230   1.372   1_655 S
C1386  C1387   1.373   .     A
C1386  H1391   1.082   .     S
C1387  H1392   1.085   .     S
C1387  C1388   1.403   .     A
C1388  H1393   1.023   .     S
C1394  C1395   1.437   .     A
C1395  C1396   1.400   .     A
C1395  H1400   1.042   .     S
C1396  H1401   1.084   .     S
C1397  C1398   1.373   .     A
C1397  C1240   1.372   1_655 S
C1398  H1403   1.085   .     S
C1398  C1399   1.403   .     A
C1399  H1404   1.023   .     S
C1399  C1238   1.436   1_655 S
H1402  C929    1.083   1_565 S
