data_str_m3_o1_o17_pcu_sym.23
_audit_creation_date              2020-01-03
_audit_creation_method            'Materials Studio'
_symmetry_space_group_name_H-M    'P1'
_symmetry_Int_Tables_number       1
_symmetry_cell_setting            triclinic
loop_
_symmetry_equiv_pos_as_xyz
  x,y,z
_cell_length_a                    32.0839
_cell_length_b                    29.5442
_cell_length_c                    29.7691
_cell_angle_alpha                 89.8264
_cell_angle_beta                  88.4281
_cell_angle_gamma                 90.2576
loop_
_atom_site_label
_atom_site_type_symbol
_atom_site_fract_x
_atom_site_fract_y
_atom_site_fract_z
_atom_site_U_iso_or_equiv
_atom_site_adp_type
_atom_site_occupancy
C1     C     0.08664   0.16661   0.25010   0.00000  Uiso   1.00
C2     C     0.04249   0.16662   0.25034   0.00000  Uiso   1.00
C3     C     0.19366   0.02403   0.27588   0.00000  Uiso   1.00
C4     C     0.13967   0.30930   0.22413   0.00000  Uiso   1.00
C5     C     0.13967   0.02392   0.22413   0.00000  Uiso   1.00
C6     C     0.19366   0.30941   0.27587   0.00000  Uiso   1.00
C7     C     0.16780   0.16676   0.16350   0.00000  Uiso   1.00
C8     C     0.16552   0.16659   0.33649   0.00000  Uiso   1.00
C9     C     0.19970   0.14880   0.40526   0.00000  Uiso   1.00
C10    C     0.13320   0.18399   0.09483   0.00000  Uiso   1.00
C11    C     0.16541   0.16639   0.38411   0.00000  Uiso   1.00
C12    C     0.24668   0.16674   0.25022   0.00000  Uiso   1.00
C13    C     0.16792   0.16718   0.11585   0.00000  Uiso   1.00
C14    C     0.13159   0.18423   0.40794   0.00000  Uiso   1.00
C15    C     0.20260   0.15153   0.09188   0.00000  Uiso   1.00
C16    C     0.13153   0.18379   0.45447   0.00000  Uiso   1.00
C17    C     0.20281   0.15267   0.04537   0.00000  Uiso   1.00
C18    C     0.16704   0.16793   0.47656   0.00000  Uiso   1.00
C19    C     0.16713   0.16828   0.02329   0.00000  Uiso   1.00
C20    C     0.20229   0.15155   0.45173   0.00000  Uiso   1.00
C21    C     0.13150   0.18370   0.04812   0.00000  Uiso   1.00
C22    C     0.09631   0.19859   0.47879   0.00000  Uiso   1.00
C23    C     0.09515   0.19782   0.02593   0.00000  Uiso   1.00
C24    C     0.23821   0.13854   0.02092   0.00000  Uiso   1.00
C25    C     0.05589   0.21111   0.05302   0.00000  Uiso   1.00
C26    C     0.01599   0.21628   0.02627   0.00000  Uiso   1.00
C27    C     0.31159   0.22561   0.05718   0.00000  Uiso   1.00
C28    C     0.27870   0.12435   0.44904   0.00000  Uiso   1.00
C29    C     0.29963   0.16442   0.42386   0.00000  Uiso   1.00
C30    C     0.00873   0.15109   0.40367   0.00000  Uiso   1.00
C31    C     0.23880   0.13836   0.47396   0.00000  Uiso   1.00
C32    C     0.02080   0.12828   0.26569   0.00000  Uiso   1.00
C33    C     0.31252   0.20529   0.23560   0.00000  Uiso   1.00
C34    C     0.31139   0.12841   0.26589   0.00000  Uiso   1.00
C35    C     0.02189   0.20516   0.23541   0.00000  Uiso   1.00
C36    C     0.29081   0.16686   0.25067   0.00000  Uiso   1.00
H37    H     0.22427   0.13386   0.38469   0.00000  Uiso   1.00
H38    H     0.03871   0.23483   0.22317   0.00000  Uiso   1.00
H39    H     0.21524   0.04222   0.29659   0.00000  Uiso   1.00
H40    H     0.11809   0.29111   0.20342   0.00000  Uiso   1.00
H41    H     0.11808   0.04203   0.20343   0.00000  Uiso   1.00
H42    H     0.21525   0.29131   0.29657   0.00000  Uiso   1.00
H43    H     0.30635   0.19710   0.08113   0.00000  Uiso   1.00
H44    H     0.31637   0.25735   0.07631   0.00000  Uiso   1.00
H45    H     0.28335   0.22938   0.03676   0.00000  Uiso   1.00
H46    H     0.01939   0.24482   0.00202   0.00000  Uiso   1.00
H47    H     0.01031   0.18423   0.00803   0.00000  Uiso   1.00
H48    H     0.10770   0.19661   0.11573   0.00000  Uiso   1.00
H49    H     0.04928   0.18408   0.07834   0.00000  Uiso   1.00
H50    H     0.06214   0.24324   0.07102   0.00000  Uiso   1.00
H51    H     0.02981   0.13988   0.43046   0.00000  Uiso   1.00
H52    H     0.00506   0.12328   0.37904   0.00000  Uiso   1.00
H53    H     0.02315   0.18066   0.38603   0.00000  Uiso   1.00
H54    H     0.28017   0.17668   0.39622   0.00000  Uiso   1.00
H55    H     0.30362   0.19329   0.44707   0.00000  Uiso   1.00
H56    H     0.30130   0.11051   0.47316   0.00000  Uiso   1.00
H57    H     0.27203   0.09639   0.42539   0.00000  Uiso   1.00
H58    H     0.10505   0.19717   0.39014   0.00000  Uiso   1.00
H59    H     0.22946   0.13925   0.10957   0.00000  Uiso   1.00
H60    H     0.06980   0.21020   0.46038   0.00000  Uiso   1.00
H61    H     0.26558   0.12783   0.03865   0.00000  Uiso   1.00
H62    H     0.03676   0.09859   0.27782   0.00000  Uiso   1.00
H63    H     0.29658   0.23501   0.22348   0.00000  Uiso   1.00
H64    H     0.29454   0.09878   0.27813   0.00000  Uiso   1.00
N65    N     0.16667   0.28573   0.25000   0.00000  Uiso   1.00
N66    N     0.16667   0.04760   0.25000   0.00000  Uiso   1.00
O67    O     0.10559   0.20487   0.25000   0.00000  Uiso   1.00
O68    O     0.22774   0.12846   0.25001   0.00000  Uiso   1.00
O69    O     0.22774   0.20487   0.25001   0.00000  Uiso   1.00
O70    O     0.10559   0.12846   0.25000   0.00000  Uiso   1.00
O71    O     0.16666   0.20489   0.18393   0.00000  Uiso   1.00
O72    O     0.16667   0.12844   0.31608   0.00000  Uiso   1.00
O73    O     0.16667   0.20489   0.31608   0.00000  Uiso   1.00
O74    O     0.16666   0.12844   0.18393   0.00000  Uiso   1.00
Zn75   Zn    0.16667   0.21771   0.25000   0.00000  Uiso   1.00
Zn76   Zn    0.16667   0.11563   0.25000   0.00000  Uiso   1.00
C77    C     0.41998   0.16661   0.25010   0.00000  Uiso   1.00
C78    C     0.37583   0.16662   0.25034   0.00000  Uiso   1.00
C79    C     0.52699   0.02403   0.27588   0.00000  Uiso   1.00
C80    C     0.47300   0.30930   0.22413   0.00000  Uiso   1.00
C81    C     0.47300   0.02392   0.22413   0.00000  Uiso   1.00
C82    C     0.52700   0.30941   0.27587   0.00000  Uiso   1.00
C83    C     0.50113   0.16676   0.16350   0.00000  Uiso   1.00
C84    C     0.49885   0.16659   0.33649   0.00000  Uiso   1.00
C85    C     0.53304   0.14880   0.40526   0.00000  Uiso   1.00
C86    C     0.46654   0.18399   0.09483   0.00000  Uiso   1.00
C87    C     0.49874   0.16639   0.38411   0.00000  Uiso   1.00
C88    C     0.58001   0.16674   0.25022   0.00000  Uiso   1.00
C89    C     0.50125   0.16718   0.11585   0.00000  Uiso   1.00
C90    C     0.46492   0.18423   0.40794   0.00000  Uiso   1.00
C91    C     0.53593   0.15153   0.09188   0.00000  Uiso   1.00
C92    C     0.46486   0.18379   0.45447   0.00000  Uiso   1.00
C93    C     0.53614   0.15267   0.04537   0.00000  Uiso   1.00
C94    C     0.50037   0.16793   0.47656   0.00000  Uiso   1.00
C95    C     0.50047   0.16828   0.02329   0.00000  Uiso   1.00
C96    C     0.53562   0.15155   0.45173   0.00000  Uiso   1.00
C97    C     0.46483   0.18370   0.04812   0.00000  Uiso   1.00
C98    C     0.42964   0.19859   0.47879   0.00000  Uiso   1.00
C99    C     0.42849   0.19782   0.02593   0.00000  Uiso   1.00
C100   C     0.57154   0.13854   0.02092   0.00000  Uiso   1.00
C101   C     0.38922   0.21111   0.05302   0.00000  Uiso   1.00
C102   C     0.34932   0.21628   0.02627   0.00000  Uiso   1.00
C103   C     0.64492   0.22561   0.05718   0.00000  Uiso   1.00
C104   C     0.61203   0.12435   0.44904   0.00000  Uiso   1.00
C105   C     0.63297   0.16442   0.42386   0.00000  Uiso   1.00
C106   C     0.34206   0.15109   0.40367   0.00000  Uiso   1.00
C107   C     0.57213   0.13836   0.47396   0.00000  Uiso   1.00
C108   C     0.35413   0.12828   0.26569   0.00000  Uiso   1.00
C109   C     0.64585   0.20529   0.23560   0.00000  Uiso   1.00
C110   C     0.64473   0.12841   0.26589   0.00000  Uiso   1.00
C111   C     0.35522   0.20516   0.23541   0.00000  Uiso   1.00
C112   C     0.62414   0.16686   0.25067   0.00000  Uiso   1.00
H113   H     0.55760   0.13386   0.38469   0.00000  Uiso   1.00
H114   H     0.37204   0.23483   0.22317   0.00000  Uiso   1.00
H115   H     0.54857   0.04222   0.29659   0.00000  Uiso   1.00
H116   H     0.45142   0.29111   0.20342   0.00000  Uiso   1.00
H117   H     0.45142   0.04203   0.20343   0.00000  Uiso   1.00
H118   H     0.54858   0.29131   0.29657   0.00000  Uiso   1.00
H119   H     0.63968   0.19710   0.08113   0.00000  Uiso   1.00
H120   H     0.64970   0.25735   0.07631   0.00000  Uiso   1.00
H121   H     0.61669   0.22938   0.03676   0.00000  Uiso   1.00
H122   H     0.35272   0.24482   0.00202   0.00000  Uiso   1.00
H123   H     0.34364   0.18423   0.00803   0.00000  Uiso   1.00
H124   H     0.44103   0.19661   0.11573   0.00000  Uiso   1.00
H125   H     0.38261   0.18408   0.07834   0.00000  Uiso   1.00
H126   H     0.39548   0.24324   0.07102   0.00000  Uiso   1.00
H127   H     0.36314   0.13988   0.43046   0.00000  Uiso   1.00
H128   H     0.33840   0.12328   0.37904   0.00000  Uiso   1.00
H129   H     0.35648   0.18066   0.38603   0.00000  Uiso   1.00
H130   H     0.61350   0.17668   0.39622   0.00000  Uiso   1.00
H131   H     0.63695   0.19329   0.44707   0.00000  Uiso   1.00
H132   H     0.63463   0.11051   0.47316   0.00000  Uiso   1.00
H133   H     0.60537   0.09639   0.42539   0.00000  Uiso   1.00
H134   H     0.43839   0.19717   0.39014   0.00000  Uiso   1.00
H135   H     0.56280   0.13925   0.10957   0.00000  Uiso   1.00
H136   H     0.40314   0.21020   0.46038   0.00000  Uiso   1.00
H137   H     0.59891   0.12783   0.03865   0.00000  Uiso   1.00
H138   H     0.37010   0.09859   0.27782   0.00000  Uiso   1.00
H139   H     0.62992   0.23501   0.22348   0.00000  Uiso   1.00
H140   H     0.62787   0.09878   0.27813   0.00000  Uiso   1.00
N141   N     0.50000   0.28573   0.25000   0.00000  Uiso   1.00
N142   N     0.50000   0.04760   0.25000   0.00000  Uiso   1.00
O143   O     0.43892   0.20487   0.25000   0.00000  Uiso   1.00
O144   O     0.56108   0.12846   0.25001   0.00000  Uiso   1.00
O145   O     0.56108   0.20487   0.25001   0.00000  Uiso   1.00
O146   O     0.43892   0.12846   0.25000   0.00000  Uiso   1.00
O147   O     0.49999   0.20489   0.18393   0.00000  Uiso   1.00
O148   O     0.50001   0.12844   0.31608   0.00000  Uiso   1.00
O149   O     0.50001   0.20489   0.31608   0.00000  Uiso   1.00
O150   O     0.49999   0.12844   0.18393   0.00000  Uiso   1.00
Zn151  Zn    0.50000   0.21771   0.25000   0.00000  Uiso   1.00
Zn152  Zn    0.50000   0.11563   0.25000   0.00000  Uiso   1.00
C153   C     0.75331   0.16661   0.25010   0.00000  Uiso   1.00
C154   C     0.70916   0.16662   0.25034   0.00000  Uiso   1.00
C155   C     0.86033   0.02403   0.27588   0.00000  Uiso   1.00
C156   C     0.80634   0.30930   0.22413   0.00000  Uiso   1.00
C157   C     0.80634   0.02392   0.22413   0.00000  Uiso   1.00
C158   C     0.86033   0.30941   0.27587   0.00000  Uiso   1.00
C159   C     0.83446   0.16676   0.16350   0.00000  Uiso   1.00
C160   C     0.83218   0.16659   0.33649   0.00000  Uiso   1.00
C161   C     0.86637   0.14880   0.40526   0.00000  Uiso   1.00
C162   C     0.79987   0.18399   0.09483   0.00000  Uiso   1.00
C163   C     0.83208   0.16639   0.38411   0.00000  Uiso   1.00
C164   C     0.91335   0.16674   0.25022   0.00000  Uiso   1.00
C165   C     0.83458   0.16718   0.11585   0.00000  Uiso   1.00
C166   C     0.79825   0.18423   0.40794   0.00000  Uiso   1.00
C167   C     0.86926   0.15153   0.09188   0.00000  Uiso   1.00
C168   C     0.79819   0.18379   0.45447   0.00000  Uiso   1.00
C169   C     0.86947   0.15267   0.04537   0.00000  Uiso   1.00
C170   C     0.83370   0.16793   0.47656   0.00000  Uiso   1.00
C171   C     0.83380   0.16828   0.02329   0.00000  Uiso   1.00
C172   C     0.86895   0.15155   0.45173   0.00000  Uiso   1.00
C173   C     0.79816   0.18370   0.04812   0.00000  Uiso   1.00
C174   C     0.76298   0.19859   0.47879   0.00000  Uiso   1.00
C175   C     0.76182   0.19782   0.02593   0.00000  Uiso   1.00
C176   C     0.90487   0.13854   0.02092   0.00000  Uiso   1.00
C177   C     0.72255   0.21111   0.05302   0.00000  Uiso   1.00
C178   C     0.68266   0.21628   0.02627   0.00000  Uiso   1.00
C179   C     0.97825   0.22561   0.05718   0.00000  Uiso   1.00
C180   C     0.94537   0.12435   0.44904   0.00000  Uiso   1.00
C181   C     0.96630   0.16442   0.42386   0.00000  Uiso   1.00
C182   C     0.67539   0.15109   0.40367   0.00000  Uiso   1.00
C183   C     0.90546   0.13836   0.47396   0.00000  Uiso   1.00
C184   C     0.68746   0.12828   0.26569   0.00000  Uiso   1.00
C185   C     0.97918   0.20529   0.23560   0.00000  Uiso   1.00
C186   C     0.97806   0.12841   0.26589   0.00000  Uiso   1.00
C187   C     0.68856   0.20516   0.23541   0.00000  Uiso   1.00
C188   C     0.95748   0.16686   0.25067   0.00000  Uiso   1.00
H189   H     0.89094   0.13386   0.38469   0.00000  Uiso   1.00
H190   H     0.70538   0.23483   0.22317   0.00000  Uiso   1.00
H191   H     0.88191   0.04222   0.29659   0.00000  Uiso   1.00
H192   H     0.78476   0.29111   0.20342   0.00000  Uiso   1.00
H193   H     0.78475   0.04203   0.20343   0.00000  Uiso   1.00
H194   H     0.88191   0.29131   0.29657   0.00000  Uiso   1.00
H195   H     0.97301   0.19710   0.08113   0.00000  Uiso   1.00
H196   H     0.98304   0.25735   0.07631   0.00000  Uiso   1.00
H197   H     0.95002   0.22938   0.03676   0.00000  Uiso   1.00
H198   H     0.68605   0.24482   0.00202   0.00000  Uiso   1.00
H199   H     0.67698   0.18423   0.00803   0.00000  Uiso   1.00
H200   H     0.77437   0.19661   0.11573   0.00000  Uiso   1.00
H201   H     0.71594   0.18408   0.07834   0.00000  Uiso   1.00
H202   H     0.72881   0.24324   0.07102   0.00000  Uiso   1.00
H203   H     0.69648   0.13988   0.43046   0.00000  Uiso   1.00
H204   H     0.67173   0.12328   0.37904   0.00000  Uiso   1.00
H205   H     0.68981   0.18066   0.38603   0.00000  Uiso   1.00
H206   H     0.94683   0.17668   0.39622   0.00000  Uiso   1.00
H207   H     0.97029   0.19329   0.44707   0.00000  Uiso   1.00
H208   H     0.96796   0.11051   0.47316   0.00000  Uiso   1.00
H209   H     0.93870   0.09639   0.42539   0.00000  Uiso   1.00
H210   H     0.77172   0.19717   0.39014   0.00000  Uiso   1.00
H211   H     0.89613   0.13925   0.10957   0.00000  Uiso   1.00
H212   H     0.73647   0.21020   0.46038   0.00000  Uiso   1.00
H213   H     0.93224   0.12783   0.03865   0.00000  Uiso   1.00
H214   H     0.70343   0.09859   0.27782   0.00000  Uiso   1.00
H215   H     0.96325   0.23501   0.22348   0.00000  Uiso   1.00
H216   H     0.96121   0.09878   0.27813   0.00000  Uiso   1.00
N217   N     0.83333   0.28573   0.25000   0.00000  Uiso   1.00
N218   N     0.83333   0.04760   0.25000   0.00000  Uiso   1.00
O219   O     0.77226   0.20487   0.25000   0.00000  Uiso   1.00
O220   O     0.89441   0.12846   0.25001   0.00000  Uiso   1.00
O221   O     0.89441   0.20487   0.25001   0.00000  Uiso   1.00
O222   O     0.77226   0.12846   0.25000   0.00000  Uiso   1.00
O223   O     0.83333   0.20489   0.18393   0.00000  Uiso   1.00
O224   O     0.83334   0.12844   0.31608   0.00000  Uiso   1.00
O225   O     0.83334   0.20489   0.31608   0.00000  Uiso   1.00
O226   O     0.83333   0.12844   0.18393   0.00000  Uiso   1.00
Zn227  Zn    0.83333   0.21771   0.25000   0.00000  Uiso   1.00
Zn228  Zn    0.83333   0.11563   0.25000   0.00000  Uiso   1.00
C229   C     0.08664   0.49994   0.25010   0.00000  Uiso   1.00
C230   C     0.04249   0.49995   0.25034   0.00000  Uiso   1.00
C231   C     0.19366   0.35736   0.27588   0.00000  Uiso   1.00
C232   C     0.13967   0.64264   0.22413   0.00000  Uiso   1.00
C233   C     0.13967   0.35725   0.22413   0.00000  Uiso   1.00
C234   C     0.19366   0.64275   0.27587   0.00000  Uiso   1.00
C235   C     0.16780   0.50009   0.16350   0.00000  Uiso   1.00
C236   C     0.16552   0.49992   0.33649   0.00000  Uiso   1.00
C237   C     0.19970   0.48213   0.40526   0.00000  Uiso   1.00
C238   C     0.13320   0.51732   0.09483   0.00000  Uiso   1.00
C239   C     0.16541   0.49972   0.38411   0.00000  Uiso   1.00
C240   C     0.24668   0.50007   0.25022   0.00000  Uiso   1.00
C241   C     0.16792   0.50052   0.11585   0.00000  Uiso   1.00
C242   C     0.13159   0.51756   0.40794   0.00000  Uiso   1.00
C243   C     0.20260   0.48486   0.09188   0.00000  Uiso   1.00
C244   C     0.13153   0.51712   0.45447   0.00000  Uiso   1.00
C245   C     0.20281   0.48600   0.04537   0.00000  Uiso   1.00
C246   C     0.16704   0.50127   0.47656   0.00000  Uiso   1.00
C247   C     0.16713   0.50161   0.02329   0.00000  Uiso   1.00
C248   C     0.20229   0.48489   0.45173   0.00000  Uiso   1.00
C249   C     0.13150   0.51703   0.04812   0.00000  Uiso   1.00
C250   C     0.09631   0.53192   0.47879   0.00000  Uiso   1.00
C251   C     0.09515   0.53115   0.02593   0.00000  Uiso   1.00
C252   C     0.23821   0.47187   0.02092   0.00000  Uiso   1.00
C253   C     0.05589   0.54444   0.05302   0.00000  Uiso   1.00
C254   C     0.01599   0.54961   0.02627   0.00000  Uiso   1.00
C255   C     0.31159   0.55894   0.05718   0.00000  Uiso   1.00
C256   C     0.27870   0.45768   0.44904   0.00000  Uiso   1.00
C257   C     0.29963   0.49775   0.42386   0.00000  Uiso   1.00
C258   C     0.00873   0.48443   0.40367   0.00000  Uiso   1.00
C259   C     0.23880   0.47169   0.47396   0.00000  Uiso   1.00
C260   C     0.02080   0.46161   0.26569   0.00000  Uiso   1.00
C261   C     0.31252   0.53863   0.23560   0.00000  Uiso   1.00
C262   C     0.31139   0.46175   0.26589   0.00000  Uiso   1.00
C263   C     0.02189   0.53850   0.23541   0.00000  Uiso   1.00
C264   C     0.29081   0.50019   0.25067   0.00000  Uiso   1.00
H265   H     0.22427   0.46719   0.38469   0.00000  Uiso   1.00
H266   H     0.03871   0.56816   0.22317   0.00000  Uiso   1.00
H267   H     0.21524   0.37556   0.29659   0.00000  Uiso   1.00
H268   H     0.11809   0.62444   0.20342   0.00000  Uiso   1.00
H269   H     0.11808   0.37536   0.20343   0.00000  Uiso   1.00
H270   H     0.21525   0.62464   0.29657   0.00000  Uiso   1.00
H271   H     0.30635   0.53043   0.08113   0.00000  Uiso   1.00
H272   H     0.31637   0.59068   0.07631   0.00000  Uiso   1.00
H273   H     0.28335   0.56271   0.03676   0.00000  Uiso   1.00
H274   H     0.01939   0.57815   0.00202   0.00000  Uiso   1.00
H275   H     0.01031   0.51757   0.00803   0.00000  Uiso   1.00
H276   H     0.10770   0.52994   0.11573   0.00000  Uiso   1.00
H277   H     0.04928   0.51741   0.07834   0.00000  Uiso   1.00
H278   H     0.06214   0.57658   0.07102   0.00000  Uiso   1.00
H279   H     0.02981   0.47321   0.43046   0.00000  Uiso   1.00
H280   H     0.00506   0.45662   0.37904   0.00000  Uiso   1.00
H281   H     0.02315   0.51399   0.38603   0.00000  Uiso   1.00
H282   H     0.28017   0.51001   0.39622   0.00000  Uiso   1.00
H283   H     0.30362   0.52662   0.44707   0.00000  Uiso   1.00
H284   H     0.30130   0.44384   0.47316   0.00000  Uiso   1.00
H285   H     0.27203   0.42973   0.42539   0.00000  Uiso   1.00
H286   H     0.10505   0.53051   0.39014   0.00000  Uiso   1.00
H287   H     0.22946   0.47259   0.10957   0.00000  Uiso   1.00
H288   H     0.06980   0.54353   0.46038   0.00000  Uiso   1.00
H289   H     0.26558   0.46116   0.03865   0.00000  Uiso   1.00
H290   H     0.03676   0.43192   0.27782   0.00000  Uiso   1.00
H291   H     0.29658   0.56834   0.22348   0.00000  Uiso   1.00
H292   H     0.29454   0.43211   0.27813   0.00000  Uiso   1.00
N293   N     0.16667   0.61907   0.25000   0.00000  Uiso   1.00
N294   N     0.16667   0.38093   0.25000   0.00000  Uiso   1.00
O295   O     0.10559   0.53821   0.25000   0.00000  Uiso   1.00
O296   O     0.22774   0.46179   0.25001   0.00000  Uiso   1.00
O297   O     0.22774   0.53821   0.25001   0.00000  Uiso   1.00
O298   O     0.10559   0.46179   0.25000   0.00000  Uiso   1.00
O299   O     0.16666   0.53823   0.18393   0.00000  Uiso   1.00
O300   O     0.16667   0.46177   0.31608   0.00000  Uiso   1.00
O301   O     0.16667   0.53823   0.31608   0.00000  Uiso   1.00
O302   O     0.16666   0.46177   0.18393   0.00000  Uiso   1.00
Zn303  Zn    0.16667   0.55104   0.25000   0.00000  Uiso   1.00
Zn304  Zn    0.16667   0.44896   0.25000   0.00000  Uiso   1.00
C305   C     0.41998   0.49994   0.25010   0.00000  Uiso   1.00
C306   C     0.37583   0.49995   0.25034   0.00000  Uiso   1.00
C307   C     0.52699   0.35736   0.27588   0.00000  Uiso   1.00
C308   C     0.47300   0.64264   0.22413   0.00000  Uiso   1.00
C309   C     0.47300   0.35725   0.22413   0.00000  Uiso   1.00
C310   C     0.52700   0.64275   0.27587   0.00000  Uiso   1.00
C311   C     0.50113   0.50009   0.16350   0.00000  Uiso   1.00
C312   C     0.49885   0.49992   0.33649   0.00000  Uiso   1.00
C313   C     0.53304   0.48213   0.40526   0.00000  Uiso   1.00
C314   C     0.46654   0.51732   0.09483   0.00000  Uiso   1.00
C315   C     0.49874   0.49972   0.38411   0.00000  Uiso   1.00
C316   C     0.58001   0.50007   0.25022   0.00000  Uiso   1.00
C317   C     0.50125   0.50052   0.11585   0.00000  Uiso   1.00
C318   C     0.46492   0.51756   0.40794   0.00000  Uiso   1.00
C319   C     0.53593   0.48486   0.09188   0.00000  Uiso   1.00
C320   C     0.46486   0.51712   0.45447   0.00000  Uiso   1.00
C321   C     0.53614   0.48600   0.04537   0.00000  Uiso   1.00
C322   C     0.50037   0.50127   0.47656   0.00000  Uiso   1.00
C323   C     0.50047   0.50161   0.02329   0.00000  Uiso   1.00
C324   C     0.53562   0.48489   0.45173   0.00000  Uiso   1.00
C325   C     0.46483   0.51703   0.04812   0.00000  Uiso   1.00
C326   C     0.42964   0.53192   0.47879   0.00000  Uiso   1.00
C327   C     0.42849   0.53115   0.02593   0.00000  Uiso   1.00
C328   C     0.57154   0.47187   0.02092   0.00000  Uiso   1.00
C329   C     0.38922   0.54444   0.05302   0.00000  Uiso   1.00
C330   C     0.34932   0.54961   0.02627   0.00000  Uiso   1.00
C331   C     0.64492   0.55894   0.05718   0.00000  Uiso   1.00
C332   C     0.61203   0.45768   0.44904   0.00000  Uiso   1.00
C333   C     0.63297   0.49775   0.42386   0.00000  Uiso   1.00
C334   C     0.34206   0.48443   0.40367   0.00000  Uiso   1.00
C335   C     0.57213   0.47169   0.47396   0.00000  Uiso   1.00
C336   C     0.35413   0.46161   0.26569   0.00000  Uiso   1.00
C337   C     0.64585   0.53863   0.23560   0.00000  Uiso   1.00
C338   C     0.64473   0.46175   0.26589   0.00000  Uiso   1.00
C339   C     0.35522   0.53850   0.23541   0.00000  Uiso   1.00
C340   C     0.62414   0.50019   0.25067   0.00000  Uiso   1.00
H341   H     0.55760   0.46719   0.38469   0.00000  Uiso   1.00
H342   H     0.37204   0.56816   0.22317   0.00000  Uiso   1.00
H343   H     0.54857   0.37556   0.29659   0.00000  Uiso   1.00
H344   H     0.45142   0.62444   0.20342   0.00000  Uiso   1.00
H345   H     0.45142   0.37536   0.20343   0.00000  Uiso   1.00
H346   H     0.54858   0.62464   0.29657   0.00000  Uiso   1.00
H347   H     0.63968   0.53043   0.08113   0.00000  Uiso   1.00
H348   H     0.64970   0.59068   0.07631   0.00000  Uiso   1.00
H349   H     0.61669   0.56271   0.03676   0.00000  Uiso   1.00
H350   H     0.35272   0.57815   0.00202   0.00000  Uiso   1.00
H351   H     0.34364   0.51757   0.00803   0.00000  Uiso   1.00
H352   H     0.44103   0.52994   0.11573   0.00000  Uiso   1.00
H353   H     0.38261   0.51741   0.07834   0.00000  Uiso   1.00
H354   H     0.39548   0.57658   0.07102   0.00000  Uiso   1.00
H355   H     0.36314   0.47321   0.43046   0.00000  Uiso   1.00
H356   H     0.33840   0.45662   0.37904   0.00000  Uiso   1.00
H357   H     0.35648   0.51399   0.38603   0.00000  Uiso   1.00
H358   H     0.61350   0.51001   0.39622   0.00000  Uiso   1.00
H359   H     0.63695   0.52662   0.44707   0.00000  Uiso   1.00
H360   H     0.63463   0.44384   0.47316   0.00000  Uiso   1.00
H361   H     0.60537   0.42973   0.42539   0.00000  Uiso   1.00
H362   H     0.43839   0.53051   0.39014   0.00000  Uiso   1.00
H363   H     0.56280   0.47259   0.10957   0.00000  Uiso   1.00
H364   H     0.40314   0.54353   0.46038   0.00000  Uiso   1.00
H365   H     0.59891   0.46116   0.03865   0.00000  Uiso   1.00
H366   H     0.37010   0.43192   0.27782   0.00000  Uiso   1.00
H367   H     0.62992   0.56834   0.22348   0.00000  Uiso   1.00
H368   H     0.62787   0.43211   0.27813   0.00000  Uiso   1.00
N369   N     0.50000   0.61907   0.25000   0.00000  Uiso   1.00
N370   N     0.50000   0.38093   0.25000   0.00000  Uiso   1.00
O371   O     0.43892   0.53821   0.25000   0.00000  Uiso   1.00
O372   O     0.56108   0.46179   0.25001   0.00000  Uiso   1.00
O373   O     0.56108   0.53821   0.25001   0.00000  Uiso   1.00
O374   O     0.43892   0.46179   0.25000   0.00000  Uiso   1.00
O375   O     0.49999   0.53823   0.18393   0.00000  Uiso   1.00
O376   O     0.50001   0.46177   0.31608   0.00000  Uiso   1.00
O377   O     0.50001   0.53823   0.31608   0.00000  Uiso   1.00
O378   O     0.49999   0.46177   0.18393   0.00000  Uiso   1.00
Zn379  Zn    0.50000   0.55104   0.25000   0.00000  Uiso   1.00
Zn380  Zn    0.50000   0.44896   0.25000   0.00000  Uiso   1.00
C381   C     0.75331   0.49994   0.25010   0.00000  Uiso   1.00
C382   C     0.70916   0.49995   0.25034   0.00000  Uiso   1.00
C383   C     0.86033   0.35736   0.27588   0.00000  Uiso   1.00
C384   C     0.80634   0.64264   0.22413   0.00000  Uiso   1.00
C385   C     0.80634   0.35725   0.22413   0.00000  Uiso   1.00
C386   C     0.86033   0.64275   0.27587   0.00000  Uiso   1.00
C387   C     0.83446   0.50009   0.16350   0.00000  Uiso   1.00
C388   C     0.83218   0.49992   0.33649   0.00000  Uiso   1.00
C389   C     0.86637   0.48213   0.40526   0.00000  Uiso   1.00
C390   C     0.79987   0.51732   0.09483   0.00000  Uiso   1.00
C391   C     0.83208   0.49972   0.38411   0.00000  Uiso   1.00
C392   C     0.91335   0.50007   0.25022   0.00000  Uiso   1.00
C393   C     0.83458   0.50052   0.11585   0.00000  Uiso   1.00
C394   C     0.79825   0.51756   0.40794   0.00000  Uiso   1.00
C395   C     0.86926   0.48486   0.09188   0.00000  Uiso   1.00
C396   C     0.79819   0.51712   0.45447   0.00000  Uiso   1.00
C397   C     0.86947   0.48600   0.04537   0.00000  Uiso   1.00
C398   C     0.83370   0.50127   0.47656   0.00000  Uiso   1.00
C399   C     0.83380   0.50161   0.02329   0.00000  Uiso   1.00
C400   C     0.86895   0.48489   0.45173   0.00000  Uiso   1.00
C401   C     0.79816   0.51703   0.04812   0.00000  Uiso   1.00
C402   C     0.76298   0.53192   0.47879   0.00000  Uiso   1.00
C403   C     0.76182   0.53115   0.02593   0.00000  Uiso   1.00
C404   C     0.90487   0.47187   0.02092   0.00000  Uiso   1.00
C405   C     0.72255   0.54444   0.05302   0.00000  Uiso   1.00
C406   C     0.68266   0.54961   0.02627   0.00000  Uiso   1.00
C407   C     0.97825   0.55894   0.05718   0.00000  Uiso   1.00
C408   C     0.94537   0.45768   0.44904   0.00000  Uiso   1.00
C409   C     0.96630   0.49775   0.42386   0.00000  Uiso   1.00
C410   C     0.67539   0.48443   0.40367   0.00000  Uiso   1.00
C411   C     0.90546   0.47169   0.47396   0.00000  Uiso   1.00
C412   C     0.68746   0.46161   0.26569   0.00000  Uiso   1.00
C413   C     0.97918   0.53863   0.23560   0.00000  Uiso   1.00
C414   C     0.97806   0.46175   0.26589   0.00000  Uiso   1.00
C415   C     0.68856   0.53850   0.23541   0.00000  Uiso   1.00
C416   C     0.95748   0.50019   0.25067   0.00000  Uiso   1.00
H417   H     0.89094   0.46719   0.38469   0.00000  Uiso   1.00
H418   H     0.70538   0.56816   0.22317   0.00000  Uiso   1.00
H419   H     0.88191   0.37556   0.29659   0.00000  Uiso   1.00
H420   H     0.78476   0.62444   0.20342   0.00000  Uiso   1.00
H421   H     0.78475   0.37536   0.20343   0.00000  Uiso   1.00
H422   H     0.88191   0.62464   0.29657   0.00000  Uiso   1.00
H423   H     0.97301   0.53043   0.08113   0.00000  Uiso   1.00
H424   H     0.98304   0.59068   0.07631   0.00000  Uiso   1.00
H425   H     0.95002   0.56271   0.03676   0.00000  Uiso   1.00
H426   H     0.68605   0.57815   0.00202   0.00000  Uiso   1.00
H427   H     0.67698   0.51757   0.00803   0.00000  Uiso   1.00
H428   H     0.77437   0.52994   0.11573   0.00000  Uiso   1.00
H429   H     0.71594   0.51741   0.07834   0.00000  Uiso   1.00
H430   H     0.72881   0.57658   0.07102   0.00000  Uiso   1.00
H431   H     0.69648   0.47321   0.43046   0.00000  Uiso   1.00
H432   H     0.67173   0.45662   0.37904   0.00000  Uiso   1.00
H433   H     0.68981   0.51399   0.38603   0.00000  Uiso   1.00
H434   H     0.94683   0.51001   0.39622   0.00000  Uiso   1.00
H435   H     0.97029   0.52662   0.44707   0.00000  Uiso   1.00
H436   H     0.96796   0.44384   0.47316   0.00000  Uiso   1.00
H437   H     0.93870   0.42973   0.42539   0.00000  Uiso   1.00
H438   H     0.77172   0.53051   0.39014   0.00000  Uiso   1.00
H439   H     0.89613   0.47259   0.10957   0.00000  Uiso   1.00
H440   H     0.73647   0.54353   0.46038   0.00000  Uiso   1.00
H441   H     0.93224   0.46116   0.03865   0.00000  Uiso   1.00
H442   H     0.70343   0.43192   0.27782   0.00000  Uiso   1.00
H443   H     0.96325   0.56834   0.22348   0.00000  Uiso   1.00
H444   H     0.96121   0.43211   0.27813   0.00000  Uiso   1.00
N445   N     0.83333   0.61907   0.25000   0.00000  Uiso   1.00
N446   N     0.83333   0.38093   0.25000   0.00000  Uiso   1.00
O447   O     0.77226   0.53821   0.25000   0.00000  Uiso   1.00
O448   O     0.89441   0.46179   0.25001   0.00000  Uiso   1.00
O449   O     0.89441   0.53821   0.25001   0.00000  Uiso   1.00
O450   O     0.77226   0.46179   0.25000   0.00000  Uiso   1.00
O451   O     0.83333   0.53823   0.18393   0.00000  Uiso   1.00
O452   O     0.83334   0.46177   0.31608   0.00000  Uiso   1.00
O453   O     0.83334   0.53823   0.31608   0.00000  Uiso   1.00
O454   O     0.83333   0.46177   0.18393   0.00000  Uiso   1.00
Zn455  Zn    0.83333   0.55104   0.25000   0.00000  Uiso   1.00
Zn456  Zn    0.83333   0.44896   0.25000   0.00000  Uiso   1.00
C457   C     0.08664   0.83327   0.25010   0.00000  Uiso   1.00
C458   C     0.04249   0.83328   0.25034   0.00000  Uiso   1.00
C459   C     0.19366   0.69070   0.27588   0.00000  Uiso   1.00
C460   C     0.13967   0.97597   0.22413   0.00000  Uiso   1.00
C461   C     0.13967   0.69059   0.22413   0.00000  Uiso   1.00
C462   C     0.19366   0.97608   0.27587   0.00000  Uiso   1.00
C463   C     0.16780   0.83343   0.16350   0.00000  Uiso   1.00
C464   C     0.16552   0.83325   0.33649   0.00000  Uiso   1.00
C465   C     0.19970   0.81547   0.40526   0.00000  Uiso   1.00
C466   C     0.13320   0.85066   0.09483   0.00000  Uiso   1.00
C467   C     0.16541   0.83306   0.38411   0.00000  Uiso   1.00
C468   C     0.24668   0.83341   0.25022   0.00000  Uiso   1.00
C469   C     0.16792   0.83385   0.11585   0.00000  Uiso   1.00
C470   C     0.13159   0.85089   0.40794   0.00000  Uiso   1.00
C471   C     0.20260   0.81819   0.09188   0.00000  Uiso   1.00
C472   C     0.13153   0.85046   0.45447   0.00000  Uiso   1.00
C473   C     0.20281   0.81934   0.04537   0.00000  Uiso   1.00
C474   C     0.16704   0.83460   0.47656   0.00000  Uiso   1.00
C475   C     0.16713   0.83495   0.02329   0.00000  Uiso   1.00
C476   C     0.20229   0.81822   0.45173   0.00000  Uiso   1.00
C477   C     0.13150   0.85036   0.04812   0.00000  Uiso   1.00
C478   C     0.09631   0.86525   0.47879   0.00000  Uiso   1.00
C479   C     0.09515   0.86448   0.02593   0.00000  Uiso   1.00
C480   C     0.23821   0.80521   0.02092   0.00000  Uiso   1.00
C481   C     0.05589   0.87777   0.05302   0.00000  Uiso   1.00
C482   C     0.01599   0.88294   0.02627   0.00000  Uiso   1.00
C483   C     0.31159   0.89227   0.05718   0.00000  Uiso   1.00
C484   C     0.27870   0.79102   0.44904   0.00000  Uiso   1.00
C485   C     0.29963   0.83108   0.42386   0.00000  Uiso   1.00
C486   C     0.00873   0.81776   0.40367   0.00000  Uiso   1.00
C487   C     0.23880   0.80503   0.47396   0.00000  Uiso   1.00
C488   C     0.02080   0.79495   0.26569   0.00000  Uiso   1.00
C489   C     0.31252   0.87196   0.23560   0.00000  Uiso   1.00
C490   C     0.31139   0.79508   0.26589   0.00000  Uiso   1.00
C491   C     0.02189   0.87183   0.23541   0.00000  Uiso   1.00
C492   C     0.29081   0.83352   0.25067   0.00000  Uiso   1.00
H493   H     0.22427   0.80052   0.38469   0.00000  Uiso   1.00
H494   H     0.03871   0.90149   0.22317   0.00000  Uiso   1.00
H495   H     0.21524   0.70889   0.29659   0.00000  Uiso   1.00
H496   H     0.11809   0.95778   0.20342   0.00000  Uiso   1.00
H497   H     0.11808   0.70869   0.20343   0.00000  Uiso   1.00
H498   H     0.21525   0.95797   0.29657   0.00000  Uiso   1.00
H499   H     0.30635   0.86376   0.08113   0.00000  Uiso   1.00
H500   H     0.31637   0.92402   0.07631   0.00000  Uiso   1.00
H501   H     0.28335   0.89605   0.03676   0.00000  Uiso   1.00
H502   H     0.01939   0.91148   0.00202   0.00000  Uiso   1.00
H503   H     0.01031   0.85090   0.00803   0.00000  Uiso   1.00
H504   H     0.10770   0.86327   0.11573   0.00000  Uiso   1.00
H505   H     0.04928   0.85074   0.07834   0.00000  Uiso   1.00
H506   H     0.06214   0.90991   0.07102   0.00000  Uiso   1.00
H507   H     0.02981   0.80654   0.43046   0.00000  Uiso   1.00
H508   H     0.00506   0.78995   0.37904   0.00000  Uiso   1.00
H509   H     0.02315   0.84733   0.38603   0.00000  Uiso   1.00
H510   H     0.28017   0.84335   0.39622   0.00000  Uiso   1.00
H511   H     0.30362   0.85996   0.44707   0.00000  Uiso   1.00
H512   H     0.30130   0.77718   0.47316   0.00000  Uiso   1.00
H513   H     0.27203   0.76306   0.42539   0.00000  Uiso   1.00
H514   H     0.10505   0.86384   0.39014   0.00000  Uiso   1.00
H515   H     0.22946   0.80592   0.10957   0.00000  Uiso   1.00
H516   H     0.06980   0.87686   0.46038   0.00000  Uiso   1.00
H517   H     0.26558   0.79449   0.03865   0.00000  Uiso   1.00
H518   H     0.03676   0.76525   0.27782   0.00000  Uiso   1.00
H519   H     0.29658   0.90168   0.22348   0.00000  Uiso   1.00
H520   H     0.29454   0.76544   0.27813   0.00000  Uiso   1.00
N521   N     0.16667   0.95240   0.25000   0.00000  Uiso   1.00
N522   N     0.16667   0.71427   0.25000   0.00000  Uiso   1.00
O523   O     0.10559   0.87154   0.25000   0.00000  Uiso   1.00
O524   O     0.22774   0.79513   0.25001   0.00000  Uiso   1.00
O525   O     0.22774   0.87154   0.25001   0.00000  Uiso   1.00
O526   O     0.10559   0.79513   0.25000   0.00000  Uiso   1.00
O527   O     0.16666   0.87156   0.18393   0.00000  Uiso   1.00
O528   O     0.16667   0.79511   0.31608   0.00000  Uiso   1.00
O529   O     0.16667   0.87156   0.31608   0.00000  Uiso   1.00
O530   O     0.16666   0.79511   0.18393   0.00000  Uiso   1.00
Zn531  Zn    0.16667   0.88437   0.25000   0.00000  Uiso   1.00
Zn532  Zn    0.16667   0.78229   0.25000   0.00000  Uiso   1.00
C533   C     0.41998   0.83327   0.25010   0.00000  Uiso   1.00
C534   C     0.37583   0.83328   0.25034   0.00000  Uiso   1.00
C535   C     0.52699   0.69070   0.27588   0.00000  Uiso   1.00
C536   C     0.47300   0.97597   0.22413   0.00000  Uiso   1.00
C537   C     0.47300   0.69059   0.22413   0.00000  Uiso   1.00
C538   C     0.52700   0.97608   0.27587   0.00000  Uiso   1.00
C539   C     0.50113   0.83343   0.16350   0.00000  Uiso   1.00
C540   C     0.49885   0.83325   0.33649   0.00000  Uiso   1.00
C541   C     0.53304   0.81547   0.40526   0.00000  Uiso   1.00
C542   C     0.46654   0.85066   0.09483   0.00000  Uiso   1.00
C543   C     0.49874   0.83306   0.38411   0.00000  Uiso   1.00
C544   C     0.58001   0.83341   0.25022   0.00000  Uiso   1.00
C545   C     0.50125   0.83385   0.11585   0.00000  Uiso   1.00
C546   C     0.46492   0.85089   0.40794   0.00000  Uiso   1.00
C547   C     0.53593   0.81819   0.09188   0.00000  Uiso   1.00
C548   C     0.46486   0.85046   0.45447   0.00000  Uiso   1.00
C549   C     0.53614   0.81934   0.04537   0.00000  Uiso   1.00
C550   C     0.50037   0.83460   0.47656   0.00000  Uiso   1.00
C551   C     0.50047   0.83495   0.02329   0.00000  Uiso   1.00
C552   C     0.53562   0.81822   0.45173   0.00000  Uiso   1.00
C553   C     0.46483   0.85036   0.04812   0.00000  Uiso   1.00
C554   C     0.42964   0.86525   0.47879   0.00000  Uiso   1.00
C555   C     0.42849   0.86448   0.02593   0.00000  Uiso   1.00
C556   C     0.57154   0.80521   0.02092   0.00000  Uiso   1.00
C557   C     0.38922   0.87777   0.05302   0.00000  Uiso   1.00
C558   C     0.34932   0.88294   0.02627   0.00000  Uiso   1.00
C559   C     0.64492   0.89227   0.05718   0.00000  Uiso   1.00
C560   C     0.61203   0.79102   0.44904   0.00000  Uiso   1.00
C561   C     0.63297   0.83108   0.42386   0.00000  Uiso   1.00
C562   C     0.34206   0.81776   0.40367   0.00000  Uiso   1.00
C563   C     0.57213   0.80503   0.47396   0.00000  Uiso   1.00
C564   C     0.35413   0.79495   0.26569   0.00000  Uiso   1.00
C565   C     0.64585   0.87196   0.23560   0.00000  Uiso   1.00
C566   C     0.64473   0.79508   0.26589   0.00000  Uiso   1.00
C567   C     0.35522   0.87183   0.23541   0.00000  Uiso   1.00
C568   C     0.62414   0.83352   0.25067   0.00000  Uiso   1.00
H569   H     0.55760   0.80052   0.38469   0.00000  Uiso   1.00
H570   H     0.37204   0.90149   0.22317   0.00000  Uiso   1.00
H571   H     0.54857   0.70889   0.29659   0.00000  Uiso   1.00
H572   H     0.45142   0.95778   0.20342   0.00000  Uiso   1.00
H573   H     0.45142   0.70869   0.20343   0.00000  Uiso   1.00
H574   H     0.54858   0.95797   0.29657   0.00000  Uiso   1.00
H575   H     0.63968   0.86376   0.08113   0.00000  Uiso   1.00
H576   H     0.64970   0.92402   0.07631   0.00000  Uiso   1.00
H577   H     0.61669   0.89605   0.03676   0.00000  Uiso   1.00
H578   H     0.35272   0.91148   0.00202   0.00000  Uiso   1.00
H579   H     0.34364   0.85090   0.00803   0.00000  Uiso   1.00
H580   H     0.44103   0.86327   0.11573   0.00000  Uiso   1.00
H581   H     0.38261   0.85074   0.07834   0.00000  Uiso   1.00
H582   H     0.39548   0.90991   0.07102   0.00000  Uiso   1.00
H583   H     0.36314   0.80654   0.43046   0.00000  Uiso   1.00
H584   H     0.33840   0.78995   0.37904   0.00000  Uiso   1.00
H585   H     0.35648   0.84733   0.38603   0.00000  Uiso   1.00
H586   H     0.61350   0.84335   0.39622   0.00000  Uiso   1.00
H587   H     0.63695   0.85996   0.44707   0.00000  Uiso   1.00
H588   H     0.63463   0.77718   0.47316   0.00000  Uiso   1.00
H589   H     0.60537   0.76306   0.42539   0.00000  Uiso   1.00
H590   H     0.43839   0.86384   0.39014   0.00000  Uiso   1.00
H591   H     0.56280   0.80592   0.10957   0.00000  Uiso   1.00
H592   H     0.40314   0.87686   0.46038   0.00000  Uiso   1.00
H593   H     0.59891   0.79449   0.03865   0.00000  Uiso   1.00
H594   H     0.37010   0.76525   0.27782   0.00000  Uiso   1.00
H595   H     0.62992   0.90168   0.22348   0.00000  Uiso   1.00
H596   H     0.62787   0.76544   0.27813   0.00000  Uiso   1.00
N597   N     0.50000   0.95240   0.25000   0.00000  Uiso   1.00
N598   N     0.50000   0.71427   0.25000   0.00000  Uiso   1.00
O599   O     0.43892   0.87154   0.25000   0.00000  Uiso   1.00
O600   O     0.56108   0.79513   0.25001   0.00000  Uiso   1.00
O601   O     0.56108   0.87154   0.25001   0.00000  Uiso   1.00
O602   O     0.43892   0.79513   0.25000   0.00000  Uiso   1.00
O603   O     0.49999   0.87156   0.18393   0.00000  Uiso   1.00
O604   O     0.50001   0.79511   0.31608   0.00000  Uiso   1.00
O605   O     0.50001   0.87156   0.31608   0.00000  Uiso   1.00
O606   O     0.49999   0.79511   0.18393   0.00000  Uiso   1.00
Zn607  Zn    0.50000   0.88437   0.25000   0.00000  Uiso   1.00
Zn608  Zn    0.50000   0.78229   0.25000   0.00000  Uiso   1.00
C609   C     0.75331   0.83327   0.25010   0.00000  Uiso   1.00
C610   C     0.70916   0.83328   0.25034   0.00000  Uiso   1.00
C611   C     0.86033   0.69070   0.27588   0.00000  Uiso   1.00
C612   C     0.80634   0.97597   0.22413   0.00000  Uiso   1.00
C613   C     0.80634   0.69059   0.22413   0.00000  Uiso   1.00
C614   C     0.86033   0.97608   0.27587   0.00000  Uiso   1.00
C615   C     0.83446   0.83343   0.16350   0.00000  Uiso   1.00
C616   C     0.83218   0.83325   0.33649   0.00000  Uiso   1.00
C617   C     0.86637   0.81547   0.40526   0.00000  Uiso   1.00
C618   C     0.79987   0.85066   0.09483   0.00000  Uiso   1.00
C619   C     0.83208   0.83306   0.38411   0.00000  Uiso   1.00
C620   C     0.91335   0.83341   0.25022   0.00000  Uiso   1.00
C621   C     0.83458   0.83385   0.11585   0.00000  Uiso   1.00
C622   C     0.79825   0.85089   0.40794   0.00000  Uiso   1.00
C623   C     0.86926   0.81819   0.09188   0.00000  Uiso   1.00
C624   C     0.79819   0.85046   0.45447   0.00000  Uiso   1.00
C625   C     0.86947   0.81934   0.04537   0.00000  Uiso   1.00
C626   C     0.83370   0.83460   0.47656   0.00000  Uiso   1.00
C627   C     0.83380   0.83495   0.02329   0.00000  Uiso   1.00
C628   C     0.86895   0.81822   0.45173   0.00000  Uiso   1.00
C629   C     0.79816   0.85036   0.04812   0.00000  Uiso   1.00
C630   C     0.76298   0.86525   0.47879   0.00000  Uiso   1.00
C631   C     0.76182   0.86448   0.02593   0.00000  Uiso   1.00
C632   C     0.90487   0.80521   0.02092   0.00000  Uiso   1.00
C633   C     0.72255   0.87777   0.05302   0.00000  Uiso   1.00
C634   C     0.68266   0.88294   0.02627   0.00000  Uiso   1.00
C635   C     0.97825   0.89227   0.05718   0.00000  Uiso   1.00
C636   C     0.94537   0.79102   0.44904   0.00000  Uiso   1.00
C637   C     0.96630   0.83108   0.42386   0.00000  Uiso   1.00
C638   C     0.67539   0.81776   0.40367   0.00000  Uiso   1.00
C639   C     0.90546   0.80503   0.47396   0.00000  Uiso   1.00
C640   C     0.68746   0.79495   0.26569   0.00000  Uiso   1.00
C641   C     0.97918   0.87196   0.23560   0.00000  Uiso   1.00
C642   C     0.97806   0.79508   0.26589   0.00000  Uiso   1.00
C643   C     0.68856   0.87183   0.23541   0.00000  Uiso   1.00
C644   C     0.95748   0.83352   0.25067   0.00000  Uiso   1.00
H645   H     0.89094   0.80052   0.38469   0.00000  Uiso   1.00
H646   H     0.70538   0.90149   0.22317   0.00000  Uiso   1.00
H647   H     0.88191   0.70889   0.29659   0.00000  Uiso   1.00
H648   H     0.78476   0.95778   0.20342   0.00000  Uiso   1.00
H649   H     0.78475   0.70869   0.20343   0.00000  Uiso   1.00
H650   H     0.88191   0.95797   0.29657   0.00000  Uiso   1.00
H651   H     0.97301   0.86376   0.08113   0.00000  Uiso   1.00
H652   H     0.98304   0.92402   0.07631   0.00000  Uiso   1.00
H653   H     0.95002   0.89605   0.03676   0.00000  Uiso   1.00
H654   H     0.68605   0.91148   0.00202   0.00000  Uiso   1.00
H655   H     0.67698   0.85090   0.00803   0.00000  Uiso   1.00
H656   H     0.77437   0.86327   0.11573   0.00000  Uiso   1.00
H657   H     0.71594   0.85074   0.07834   0.00000  Uiso   1.00
H658   H     0.72881   0.90991   0.07102   0.00000  Uiso   1.00
H659   H     0.69648   0.80654   0.43046   0.00000  Uiso   1.00
H660   H     0.67173   0.78995   0.37904   0.00000  Uiso   1.00
H661   H     0.68981   0.84733   0.38603   0.00000  Uiso   1.00
H662   H     0.94683   0.84335   0.39622   0.00000  Uiso   1.00
H663   H     0.97029   0.85996   0.44707   0.00000  Uiso   1.00
H664   H     0.96796   0.77718   0.47316   0.00000  Uiso   1.00
H665   H     0.93870   0.76306   0.42539   0.00000  Uiso   1.00
H666   H     0.77172   0.86384   0.39014   0.00000  Uiso   1.00
H667   H     0.89613   0.80592   0.10957   0.00000  Uiso   1.00
H668   H     0.73647   0.87686   0.46038   0.00000  Uiso   1.00
H669   H     0.93224   0.79449   0.03865   0.00000  Uiso   1.00
H670   H     0.70343   0.76525   0.27782   0.00000  Uiso   1.00
H671   H     0.96325   0.90168   0.22348   0.00000  Uiso   1.00
H672   H     0.96121   0.76544   0.27813   0.00000  Uiso   1.00
N673   N     0.83333   0.95240   0.25000   0.00000  Uiso   1.00
N674   N     0.83333   0.71427   0.25000   0.00000  Uiso   1.00
O675   O     0.77226   0.87154   0.25000   0.00000  Uiso   1.00
O676   O     0.89441   0.79513   0.25001   0.00000  Uiso   1.00
O677   O     0.89441   0.87154   0.25001   0.00000  Uiso   1.00
O678   O     0.77226   0.79513   0.25000   0.00000  Uiso   1.00
O679   O     0.83333   0.87156   0.18393   0.00000  Uiso   1.00
O680   O     0.83334   0.79511   0.31608   0.00000  Uiso   1.00
O681   O     0.83334   0.87156   0.31608   0.00000  Uiso   1.00
O682   O     0.83333   0.79511   0.18393   0.00000  Uiso   1.00
Zn683  Zn    0.83333   0.88437   0.25000   0.00000  Uiso   1.00
Zn684  Zn    0.83333   0.78229   0.25000   0.00000  Uiso   1.00
C685   C     0.08664   0.16661   0.75010   0.00000  Uiso   1.00
C686   C     0.04249   0.16662   0.75034   0.00000  Uiso   1.00
C687   C     0.19366   0.02403   0.77588   0.00000  Uiso   1.00
C688   C     0.13967   0.30930   0.72413   0.00000  Uiso   1.00
C689   C     0.13967   0.02392   0.72413   0.00000  Uiso   1.00
C690   C     0.19366   0.30941   0.77587   0.00000  Uiso   1.00
C691   C     0.16780   0.16676   0.66350   0.00000  Uiso   1.00
C692   C     0.16552   0.16659   0.83649   0.00000  Uiso   1.00
C693   C     0.19970   0.14880   0.90526   0.00000  Uiso   1.00
C694   C     0.13320   0.18399   0.59483   0.00000  Uiso   1.00
C695   C     0.16541   0.16639   0.88411   0.00000  Uiso   1.00
C696   C     0.24668   0.16674   0.75022   0.00000  Uiso   1.00
C697   C     0.16792   0.16718   0.61585   0.00000  Uiso   1.00
C698   C     0.13159   0.18423   0.90794   0.00000  Uiso   1.00
C699   C     0.20260   0.15153   0.59188   0.00000  Uiso   1.00
C700   C     0.13153   0.18379   0.95447   0.00000  Uiso   1.00
C701   C     0.20281   0.15267   0.54537   0.00000  Uiso   1.00
C702   C     0.16704   0.16793   0.97656   0.00000  Uiso   1.00
C703   C     0.16713   0.16828   0.52329   0.00000  Uiso   1.00
C704   C     0.20229   0.15155   0.95173   0.00000  Uiso   1.00
C705   C     0.13150   0.18370   0.54812   0.00000  Uiso   1.00
C706   C     0.09631   0.19859   0.97879   0.00000  Uiso   1.00
C707   C     0.09515   0.19782   0.52593   0.00000  Uiso   1.00
C708   C     0.23821   0.13854   0.52092   0.00000  Uiso   1.00
C709   C     0.05589   0.21111   0.55302   0.00000  Uiso   1.00
C710   C     0.01599   0.21628   0.52627   0.00000  Uiso   1.00
C711   C     0.31159   0.22561   0.55718   0.00000  Uiso   1.00
C712   C     0.27870   0.12435   0.94904   0.00000  Uiso   1.00
C713   C     0.29963   0.16442   0.92386   0.00000  Uiso   1.00
C714   C     0.00873   0.15109   0.90367   0.00000  Uiso   1.00
C715   C     0.23880   0.13836   0.97396   0.00000  Uiso   1.00
C716   C     0.02080   0.12828   0.76569   0.00000  Uiso   1.00
C717   C     0.31252   0.20529   0.73560   0.00000  Uiso   1.00
C718   C     0.31139   0.12841   0.76589   0.00000  Uiso   1.00
C719   C     0.02189   0.20516   0.73541   0.00000  Uiso   1.00
C720   C     0.29081   0.16686   0.75067   0.00000  Uiso   1.00
H721   H     0.22427   0.13386   0.88469   0.00000  Uiso   1.00
H722   H     0.03871   0.23483   0.72317   0.00000  Uiso   1.00
H723   H     0.21524   0.04222   0.79659   0.00000  Uiso   1.00
H724   H     0.11809   0.29111   0.70342   0.00000  Uiso   1.00
H725   H     0.11808   0.04203   0.70343   0.00000  Uiso   1.00
H726   H     0.21525   0.29131   0.79657   0.00000  Uiso   1.00
H727   H     0.30635   0.19710   0.58113   0.00000  Uiso   1.00
H728   H     0.31637   0.25735   0.57631   0.00000  Uiso   1.00
H729   H     0.28335   0.22938   0.53676   0.00000  Uiso   1.00
H730   H     0.01939   0.24482   0.50202   0.00000  Uiso   1.00
H731   H     0.01031   0.18423   0.50803   0.00000  Uiso   1.00
H732   H     0.10770   0.19661   0.61573   0.00000  Uiso   1.00
H733   H     0.04928   0.18408   0.57834   0.00000  Uiso   1.00
H734   H     0.06214   0.24324   0.57102   0.00000  Uiso   1.00
H735   H     0.02981   0.13988   0.93046   0.00000  Uiso   1.00
H736   H     0.00506   0.12328   0.87904   0.00000  Uiso   1.00
H737   H     0.02315   0.18066   0.88603   0.00000  Uiso   1.00
H738   H     0.28017   0.17668   0.89622   0.00000  Uiso   1.00
H739   H     0.30362   0.19329   0.94707   0.00000  Uiso   1.00
H740   H     0.30130   0.11051   0.97316   0.00000  Uiso   1.00
H741   H     0.27203   0.09639   0.92539   0.00000  Uiso   1.00
H742   H     0.10505   0.19717   0.89014   0.00000  Uiso   1.00
H743   H     0.22946   0.13925   0.60957   0.00000  Uiso   1.00
H744   H     0.06980   0.21020   0.96038   0.00000  Uiso   1.00
H745   H     0.26558   0.12783   0.53865   0.00000  Uiso   1.00
H746   H     0.03676   0.09859   0.77782   0.00000  Uiso   1.00
H747   H     0.29658   0.23501   0.72348   0.00000  Uiso   1.00
H748   H     0.29454   0.09878   0.77813   0.00000  Uiso   1.00
N749   N     0.16667   0.28573   0.75000   0.00000  Uiso   1.00
N750   N     0.16667   0.04760   0.75000   0.00000  Uiso   1.00
O751   O     0.10559   0.20487   0.75000   0.00000  Uiso   1.00
O752   O     0.22774   0.12846   0.75001   0.00000  Uiso   1.00
O753   O     0.22774   0.20487   0.75001   0.00000  Uiso   1.00
O754   O     0.10559   0.12846   0.75000   0.00000  Uiso   1.00
O755   O     0.16666   0.20489   0.68393   0.00000  Uiso   1.00
O756   O     0.16667   0.12844   0.81608   0.00000  Uiso   1.00
O757   O     0.16667   0.20489   0.81608   0.00000  Uiso   1.00
O758   O     0.16666   0.12844   0.68393   0.00000  Uiso   1.00
Zn759  Zn    0.16667   0.21771   0.75000   0.00000  Uiso   1.00
Zn760  Zn    0.16667   0.11563   0.75000   0.00000  Uiso   1.00
C761   C     0.41998   0.16661   0.75010   0.00000  Uiso   1.00
C762   C     0.37583   0.16662   0.75034   0.00000  Uiso   1.00
C763   C     0.52699   0.02403   0.77588   0.00000  Uiso   1.00
C764   C     0.47300   0.30930   0.72413   0.00000  Uiso   1.00
C765   C     0.47300   0.02392   0.72413   0.00000  Uiso   1.00
C766   C     0.52700   0.30941   0.77587   0.00000  Uiso   1.00
C767   C     0.50113   0.16676   0.66350   0.00000  Uiso   1.00
C768   C     0.49885   0.16659   0.83649   0.00000  Uiso   1.00
C769   C     0.53304   0.14880   0.90526   0.00000  Uiso   1.00
C770   C     0.46654   0.18399   0.59483   0.00000  Uiso   1.00
C771   C     0.49874   0.16639   0.88411   0.00000  Uiso   1.00
C772   C     0.58001   0.16674   0.75022   0.00000  Uiso   1.00
C773   C     0.50125   0.16718   0.61585   0.00000  Uiso   1.00
C774   C     0.46492   0.18423   0.90794   0.00000  Uiso   1.00
C775   C     0.53593   0.15153   0.59188   0.00000  Uiso   1.00
C776   C     0.46486   0.18379   0.95447   0.00000  Uiso   1.00
C777   C     0.53614   0.15267   0.54537   0.00000  Uiso   1.00
C778   C     0.50037   0.16793   0.97656   0.00000  Uiso   1.00
C779   C     0.50047   0.16828   0.52329   0.00000  Uiso   1.00
C780   C     0.53562   0.15155   0.95173   0.00000  Uiso   1.00
C781   C     0.46483   0.18370   0.54812   0.00000  Uiso   1.00
C782   C     0.42964   0.19859   0.97879   0.00000  Uiso   1.00
C783   C     0.42849   0.19782   0.52593   0.00000  Uiso   1.00
C784   C     0.57154   0.13854   0.52092   0.00000  Uiso   1.00
C785   C     0.38922   0.21111   0.55302   0.00000  Uiso   1.00
C786   C     0.34932   0.21628   0.52627   0.00000  Uiso   1.00
C787   C     0.64492   0.22561   0.55718   0.00000  Uiso   1.00
C788   C     0.61203   0.12435   0.94904   0.00000  Uiso   1.00
C789   C     0.63297   0.16442   0.92386   0.00000  Uiso   1.00
C790   C     0.34206   0.15109   0.90367   0.00000  Uiso   1.00
C791   C     0.57213   0.13836   0.97396   0.00000  Uiso   1.00
C792   C     0.35413   0.12828   0.76569   0.00000  Uiso   1.00
C793   C     0.64585   0.20529   0.73560   0.00000  Uiso   1.00
C794   C     0.64473   0.12841   0.76589   0.00000  Uiso   1.00
C795   C     0.35522   0.20516   0.73541   0.00000  Uiso   1.00
C796   C     0.62414   0.16686   0.75067   0.00000  Uiso   1.00
H797   H     0.55760   0.13386   0.88469   0.00000  Uiso   1.00
H798   H     0.37204   0.23483   0.72317   0.00000  Uiso   1.00
H799   H     0.54857   0.04222   0.79659   0.00000  Uiso   1.00
H800   H     0.45142   0.29111   0.70342   0.00000  Uiso   1.00
H801   H     0.45142   0.04203   0.70343   0.00000  Uiso   1.00
H802   H     0.54858   0.29131   0.79657   0.00000  Uiso   1.00
H803   H     0.63968   0.19710   0.58113   0.00000  Uiso   1.00
H804   H     0.64970   0.25735   0.57631   0.00000  Uiso   1.00
H805   H     0.61669   0.22938   0.53676   0.00000  Uiso   1.00
H806   H     0.35272   0.24482   0.50202   0.00000  Uiso   1.00
H807   H     0.34364   0.18423   0.50803   0.00000  Uiso   1.00
H808   H     0.44103   0.19661   0.61573   0.00000  Uiso   1.00
H809   H     0.38261   0.18408   0.57834   0.00000  Uiso   1.00
H810   H     0.39548   0.24324   0.57102   0.00000  Uiso   1.00
H811   H     0.36314   0.13988   0.93046   0.00000  Uiso   1.00
H812   H     0.33840   0.12328   0.87904   0.00000  Uiso   1.00
H813   H     0.35648   0.18066   0.88603   0.00000  Uiso   1.00
H814   H     0.61350   0.17668   0.89622   0.00000  Uiso   1.00
H815   H     0.63695   0.19329   0.94707   0.00000  Uiso   1.00
H816   H     0.63463   0.11051   0.97316   0.00000  Uiso   1.00
H817   H     0.60537   0.09639   0.92539   0.00000  Uiso   1.00
H818   H     0.43839   0.19717   0.89014   0.00000  Uiso   1.00
H819   H     0.56280   0.13925   0.60957   0.00000  Uiso   1.00
H820   H     0.40314   0.21020   0.96038   0.00000  Uiso   1.00
H821   H     0.59891   0.12783   0.53865   0.00000  Uiso   1.00
H822   H     0.37010   0.09859   0.77782   0.00000  Uiso   1.00
H823   H     0.62992   0.23501   0.72348   0.00000  Uiso   1.00
H824   H     0.62787   0.09878   0.77813   0.00000  Uiso   1.00
N825   N     0.50000   0.28573   0.75000   0.00000  Uiso   1.00
N826   N     0.50000   0.04760   0.75000   0.00000  Uiso   1.00
O827   O     0.43892   0.20487   0.75000   0.00000  Uiso   1.00
O828   O     0.56108   0.12846   0.75001   0.00000  Uiso   1.00
O829   O     0.56108   0.20487   0.75001   0.00000  Uiso   1.00
O830   O     0.43892   0.12846   0.75000   0.00000  Uiso   1.00
O831   O     0.49999   0.20489   0.68393   0.00000  Uiso   1.00
O832   O     0.50001   0.12844   0.81608   0.00000  Uiso   1.00
O833   O     0.50001   0.20489   0.81608   0.00000  Uiso   1.00
O834   O     0.49999   0.12844   0.68393   0.00000  Uiso   1.00
Zn835  Zn    0.50000   0.21771   0.75000   0.00000  Uiso   1.00
Zn836  Zn    0.50000   0.11563   0.75000   0.00000  Uiso   1.00
C837   C     0.75331   0.16661   0.75010   0.00000  Uiso   1.00
C838   C     0.70916   0.16662   0.75034   0.00000  Uiso   1.00
C839   C     0.86033   0.02403   0.77588   0.00000  Uiso   1.00
C840   C     0.80634   0.30930   0.72413   0.00000  Uiso   1.00
C841   C     0.80634   0.02392   0.72413   0.00000  Uiso   1.00
C842   C     0.86033   0.30941   0.77587   0.00000  Uiso   1.00
C843   C     0.83446   0.16676   0.66350   0.00000  Uiso   1.00
C844   C     0.83218   0.16659   0.83649   0.00000  Uiso   1.00
C845   C     0.86637   0.14880   0.90526   0.00000  Uiso   1.00
C846   C     0.79987   0.18399   0.59483   0.00000  Uiso   1.00
C847   C     0.83208   0.16639   0.88411   0.00000  Uiso   1.00
C848   C     0.91335   0.16674   0.75022   0.00000  Uiso   1.00
C849   C     0.83458   0.16718   0.61585   0.00000  Uiso   1.00
C850   C     0.79825   0.18423   0.90794   0.00000  Uiso   1.00
C851   C     0.86926   0.15153   0.59188   0.00000  Uiso   1.00
C852   C     0.79819   0.18379   0.95447   0.00000  Uiso   1.00
C853   C     0.86947   0.15267   0.54537   0.00000  Uiso   1.00
C854   C     0.83370   0.16793   0.97656   0.00000  Uiso   1.00
C855   C     0.83380   0.16828   0.52329   0.00000  Uiso   1.00
C856   C     0.86895   0.15155   0.95173   0.00000  Uiso   1.00
C857   C     0.79816   0.18370   0.54812   0.00000  Uiso   1.00
C858   C     0.76298   0.19859   0.97879   0.00000  Uiso   1.00
C859   C     0.76182   0.19782   0.52593   0.00000  Uiso   1.00
C860   C     0.90487   0.13854   0.52092   0.00000  Uiso   1.00
C861   C     0.72255   0.21111   0.55302   0.00000  Uiso   1.00
C862   C     0.68266   0.21628   0.52627   0.00000  Uiso   1.00
C863   C     0.97825   0.22561   0.55718   0.00000  Uiso   1.00
C864   C     0.94537   0.12435   0.94904   0.00000  Uiso   1.00
C865   C     0.96630   0.16442   0.92386   0.00000  Uiso   1.00
C866   C     0.67539   0.15109   0.90367   0.00000  Uiso   1.00
C867   C     0.90546   0.13836   0.97396   0.00000  Uiso   1.00
C868   C     0.68746   0.12828   0.76569   0.00000  Uiso   1.00
C869   C     0.97918   0.20529   0.73560   0.00000  Uiso   1.00
C870   C     0.97806   0.12841   0.76589   0.00000  Uiso   1.00
C871   C     0.68856   0.20516   0.73541   0.00000  Uiso   1.00
C872   C     0.95748   0.16686   0.75067   0.00000  Uiso   1.00
H873   H     0.89094   0.13386   0.88469   0.00000  Uiso   1.00
H874   H     0.70538   0.23483   0.72317   0.00000  Uiso   1.00
H875   H     0.88191   0.04222   0.79659   0.00000  Uiso   1.00
H876   H     0.78476   0.29111   0.70342   0.00000  Uiso   1.00
H877   H     0.78475   0.04203   0.70343   0.00000  Uiso   1.00
H878   H     0.88191   0.29131   0.79657   0.00000  Uiso   1.00
H879   H     0.97301   0.19710   0.58113   0.00000  Uiso   1.00
H880   H     0.98304   0.25735   0.57631   0.00000  Uiso   1.00
H881   H     0.95002   0.22938   0.53676   0.00000  Uiso   1.00
H882   H     0.68605   0.24482   0.50202   0.00000  Uiso   1.00
H883   H     0.67698   0.18423   0.50803   0.00000  Uiso   1.00
H884   H     0.77437   0.19661   0.61573   0.00000  Uiso   1.00
H885   H     0.71594   0.18408   0.57834   0.00000  Uiso   1.00
H886   H     0.72881   0.24324   0.57102   0.00000  Uiso   1.00
H887   H     0.69648   0.13988   0.93046   0.00000  Uiso   1.00
H888   H     0.67173   0.12328   0.87904   0.00000  Uiso   1.00
H889   H     0.68981   0.18066   0.88603   0.00000  Uiso   1.00
H890   H     0.94683   0.17668   0.89622   0.00000  Uiso   1.00
H891   H     0.97029   0.19329   0.94707   0.00000  Uiso   1.00
H892   H     0.96796   0.11051   0.97316   0.00000  Uiso   1.00
H893   H     0.93870   0.09639   0.92539   0.00000  Uiso   1.00
H894   H     0.77172   0.19717   0.89014   0.00000  Uiso   1.00
H895   H     0.89613   0.13925   0.60957   0.00000  Uiso   1.00
H896   H     0.73647   0.21020   0.96038   0.00000  Uiso   1.00
H897   H     0.93224   0.12783   0.53865   0.00000  Uiso   1.00
H898   H     0.70343   0.09859   0.77782   0.00000  Uiso   1.00
H899   H     0.96325   0.23501   0.72348   0.00000  Uiso   1.00
H900   H     0.96121   0.09878   0.77813   0.00000  Uiso   1.00
N901   N     0.83333   0.28573   0.75000   0.00000  Uiso   1.00
N902   N     0.83333   0.04760   0.75000   0.00000  Uiso   1.00
O903   O     0.77226   0.20487   0.75000   0.00000  Uiso   1.00
O904   O     0.89441   0.12846   0.75001   0.00000  Uiso   1.00
O905   O     0.89441   0.20487   0.75001   0.00000  Uiso   1.00
O906   O     0.77226   0.12846   0.75000   0.00000  Uiso   1.00
O907   O     0.83333   0.20489   0.68393   0.00000  Uiso   1.00
O908   O     0.83334   0.12844   0.81608   0.00000  Uiso   1.00
O909   O     0.83334   0.20489   0.81608   0.00000  Uiso   1.00
O910   O     0.83333   0.12844   0.68393   0.00000  Uiso   1.00
Zn911  Zn    0.83333   0.21771   0.75000   0.00000  Uiso   1.00
Zn912  Zn    0.83333   0.11563   0.75000   0.00000  Uiso   1.00
C913   C     0.08664   0.49994   0.75010   0.00000  Uiso   1.00
C914   C     0.04249   0.49995   0.75034   0.00000  Uiso   1.00
C915   C     0.19366   0.35736   0.77588   0.00000  Uiso   1.00
C916   C     0.13967   0.64264   0.72413   0.00000  Uiso   1.00
C917   C     0.13967   0.35725   0.72413   0.00000  Uiso   1.00
C918   C     0.19366   0.64275   0.77587   0.00000  Uiso   1.00
C919   C     0.16780   0.50009   0.66350   0.00000  Uiso   1.00
C920   C     0.16552   0.49992   0.83649   0.00000  Uiso   1.00
C921   C     0.19970   0.48213   0.90526   0.00000  Uiso   1.00
C922   C     0.13320   0.51732   0.59483   0.00000  Uiso   1.00
C923   C     0.16541   0.49972   0.88411   0.00000  Uiso   1.00
C924   C     0.24668   0.50007   0.75022   0.00000  Uiso   1.00
C925   C     0.16792   0.50052   0.61585   0.00000  Uiso   1.00
C926   C     0.13159   0.51756   0.90794   0.00000  Uiso   1.00
C927   C     0.20260   0.48486   0.59188   0.00000  Uiso   1.00
C928   C     0.13153   0.51712   0.95447   0.00000  Uiso   1.00
C929   C     0.20281   0.48600   0.54537   0.00000  Uiso   1.00
C930   C     0.16704   0.50127   0.97656   0.00000  Uiso   1.00
C931   C     0.16713   0.50161   0.52329   0.00000  Uiso   1.00
C932   C     0.20229   0.48489   0.95173   0.00000  Uiso   1.00
C933   C     0.13150   0.51703   0.54812   0.00000  Uiso   1.00
C934   C     0.09631   0.53192   0.97879   0.00000  Uiso   1.00
C935   C     0.09515   0.53115   0.52593   0.00000  Uiso   1.00
C936   C     0.23821   0.47187   0.52092   0.00000  Uiso   1.00
C937   C     0.05589   0.54444   0.55302   0.00000  Uiso   1.00
C938   C     0.01599   0.54961   0.52627   0.00000  Uiso   1.00
C939   C     0.31159   0.55894   0.55718   0.00000  Uiso   1.00
C940   C     0.27870   0.45768   0.94904   0.00000  Uiso   1.00
C941   C     0.29963   0.49775   0.92386   0.00000  Uiso   1.00
C942   C     0.00873   0.48443   0.90367   0.00000  Uiso   1.00
C943   C     0.23880   0.47169   0.97396   0.00000  Uiso   1.00
C944   C     0.02080   0.46161   0.76569   0.00000  Uiso   1.00
C945   C     0.31252   0.53863   0.73560   0.00000  Uiso   1.00
C946   C     0.31139   0.46175   0.76589   0.00000  Uiso   1.00
C947   C     0.02189   0.53850   0.73541   0.00000  Uiso   1.00
C948   C     0.29081   0.50019   0.75067   0.00000  Uiso   1.00
H949   H     0.22427   0.46719   0.88469   0.00000  Uiso   1.00
H950   H     0.03871   0.56816   0.72317   0.00000  Uiso   1.00
H951   H     0.21524   0.37556   0.79659   0.00000  Uiso   1.00
H952   H     0.11809   0.62444   0.70342   0.00000  Uiso   1.00
H953   H     0.11808   0.37536   0.70343   0.00000  Uiso   1.00
H954   H     0.21525   0.62464   0.79657   0.00000  Uiso   1.00
H955   H     0.30635   0.53043   0.58113   0.00000  Uiso   1.00
H956   H     0.31637   0.59068   0.57631   0.00000  Uiso   1.00
H957   H     0.28335   0.56271   0.53676   0.00000  Uiso   1.00
H958   H     0.01939   0.57815   0.50202   0.00000  Uiso   1.00
H959   H     0.01031   0.51757   0.50803   0.00000  Uiso   1.00
H960   H     0.10770   0.52994   0.61573   0.00000  Uiso   1.00
H961   H     0.04928   0.51741   0.57834   0.00000  Uiso   1.00
H962   H     0.06214   0.57658   0.57102   0.00000  Uiso   1.00
H963   H     0.02981   0.47321   0.93046   0.00000  Uiso   1.00
H964   H     0.00506   0.45662   0.87904   0.00000  Uiso   1.00
H965   H     0.02315   0.51399   0.88603   0.00000  Uiso   1.00
H966   H     0.28017   0.51001   0.89622   0.00000  Uiso   1.00
H967   H     0.30362   0.52662   0.94707   0.00000  Uiso   1.00
H968   H     0.30130   0.44384   0.97316   0.00000  Uiso   1.00
H969   H     0.27203   0.42973   0.92539   0.00000  Uiso   1.00
H970   H     0.10505   0.53051   0.89014   0.00000  Uiso   1.00
H971   H     0.22946   0.47259   0.60957   0.00000  Uiso   1.00
H972   H     0.06980   0.54353   0.96038   0.00000  Uiso   1.00
H973   H     0.26558   0.46116   0.53865   0.00000  Uiso   1.00
H974   H     0.03676   0.43192   0.77782   0.00000  Uiso   1.00
H975   H     0.29658   0.56834   0.72348   0.00000  Uiso   1.00
H976   H     0.29454   0.43211   0.77813   0.00000  Uiso   1.00
N977   N     0.16667   0.61907   0.75000   0.00000  Uiso   1.00
N978   N     0.16667   0.38093   0.75000   0.00000  Uiso   1.00
O979   O     0.10559   0.53821   0.75000   0.00000  Uiso   1.00
O980   O     0.22774   0.46179   0.75001   0.00000  Uiso   1.00
O981   O     0.22774   0.53821   0.75001   0.00000  Uiso   1.00
O982   O     0.10559   0.46179   0.75000   0.00000  Uiso   1.00
O983   O     0.16666   0.53823   0.68393   0.00000  Uiso   1.00
O984   O     0.16667   0.46177   0.81608   0.00000  Uiso   1.00
O985   O     0.16667   0.53823   0.81608   0.00000  Uiso   1.00
O986   O     0.16666   0.46177   0.68393   0.00000  Uiso   1.00
Zn987  Zn    0.16667   0.55104   0.75000   0.00000  Uiso   1.00
Zn988  Zn    0.16667   0.44896   0.75000   0.00000  Uiso   1.00
C989   C     0.41998   0.49994   0.75010   0.00000  Uiso   1.00
C990   C     0.37583   0.49995   0.75034   0.00000  Uiso   1.00
C991   C     0.52699   0.35736   0.77588   0.00000  Uiso   1.00
C992   C     0.47300   0.64264   0.72413   0.00000  Uiso   1.00
C993   C     0.47300   0.35725   0.72413   0.00000  Uiso   1.00
C994   C     0.52700   0.64275   0.77587   0.00000  Uiso   1.00
C995   C     0.50113   0.50009   0.66350   0.00000  Uiso   1.00
C996   C     0.49885   0.49992   0.83649   0.00000  Uiso   1.00
C997   C     0.53304   0.48213   0.90526   0.00000  Uiso   1.00
C998   C     0.46654   0.51732   0.59483   0.00000  Uiso   1.00
C999   C     0.49874   0.49972   0.88411   0.00000  Uiso   1.00
C1000  C     0.58001   0.50007   0.75022   0.00000  Uiso   1.00
C1001  C     0.50125   0.50052   0.61585   0.00000  Uiso   1.00
C1002  C     0.46492   0.51756   0.90794   0.00000  Uiso   1.00
C1003  C     0.53593   0.48486   0.59188   0.00000  Uiso   1.00
C1004  C     0.46486   0.51712   0.95447   0.00000  Uiso   1.00
C1005  C     0.53614   0.48600   0.54537   0.00000  Uiso   1.00
C1006  C     0.50037   0.50127   0.97656   0.00000  Uiso   1.00
C1007  C     0.50047   0.50161   0.52329   0.00000  Uiso   1.00
C1008  C     0.53562   0.48489   0.95173   0.00000  Uiso   1.00
C1009  C     0.46483   0.51703   0.54812   0.00000  Uiso   1.00
C1010  C     0.42964   0.53192   0.97879   0.00000  Uiso   1.00
C1011  C     0.42849   0.53115   0.52593   0.00000  Uiso   1.00
C1012  C     0.57154   0.47187   0.52092   0.00000  Uiso   1.00
C1013  C     0.38922   0.54444   0.55302   0.00000  Uiso   1.00
C1014  C     0.34932   0.54961   0.52627   0.00000  Uiso   1.00
C1015  C     0.64492   0.55894   0.55718   0.00000  Uiso   1.00
C1016  C     0.61203   0.45768   0.94904   0.00000  Uiso   1.00
C1017  C     0.63297   0.49775   0.92386   0.00000  Uiso   1.00
C1018  C     0.34206   0.48443   0.90367   0.00000  Uiso   1.00
C1019  C     0.57213   0.47169   0.97396   0.00000  Uiso   1.00
C1020  C     0.35413   0.46161   0.76569   0.00000  Uiso   1.00
C1021  C     0.64585   0.53863   0.73560   0.00000  Uiso   1.00
C1022  C     0.64473   0.46175   0.76589   0.00000  Uiso   1.00
C1023  C     0.35522   0.53850   0.73541   0.00000  Uiso   1.00
C1024  C     0.62414   0.50019   0.75067   0.00000  Uiso   1.00
H1025  H     0.55760   0.46719   0.88469   0.00000  Uiso   1.00
H1026  H     0.37204   0.56816   0.72317   0.00000  Uiso   1.00
H1027  H     0.54857   0.37556   0.79659   0.00000  Uiso   1.00
H1028  H     0.45142   0.62444   0.70342   0.00000  Uiso   1.00
H1029  H     0.45142   0.37536   0.70343   0.00000  Uiso   1.00
H1030  H     0.54858   0.62464   0.79657   0.00000  Uiso   1.00
H1031  H     0.63968   0.53043   0.58113   0.00000  Uiso   1.00
H1032  H     0.64970   0.59068   0.57631   0.00000  Uiso   1.00
H1033  H     0.61669   0.56271   0.53676   0.00000  Uiso   1.00
H1034  H     0.35272   0.57815   0.50202   0.00000  Uiso   1.00
H1035  H     0.34364   0.51757   0.50803   0.00000  Uiso   1.00
H1036  H     0.44103   0.52994   0.61573   0.00000  Uiso   1.00
H1037  H     0.38261   0.51741   0.57834   0.00000  Uiso   1.00
H1038  H     0.39548   0.57658   0.57102   0.00000  Uiso   1.00
H1039  H     0.36314   0.47321   0.93046   0.00000  Uiso   1.00
H1040  H     0.33840   0.45662   0.87904   0.00000  Uiso   1.00
H1041  H     0.35648   0.51399   0.88603   0.00000  Uiso   1.00
H1042  H     0.61350   0.51001   0.89622   0.00000  Uiso   1.00
H1043  H     0.63695   0.52662   0.94707   0.00000  Uiso   1.00
H1044  H     0.63463   0.44384   0.97316   0.00000  Uiso   1.00
H1045  H     0.60537   0.42973   0.92539   0.00000  Uiso   1.00
H1046  H     0.43839   0.53051   0.89014   0.00000  Uiso   1.00
H1047  H     0.56280   0.47259   0.60957   0.00000  Uiso   1.00
H1048  H     0.40314   0.54353   0.96038   0.00000  Uiso   1.00
H1049  H     0.59891   0.46116   0.53865   0.00000  Uiso   1.00
H1050  H     0.37010   0.43192   0.77782   0.00000  Uiso   1.00
H1051  H     0.62992   0.56834   0.72348   0.00000  Uiso   1.00
H1052  H     0.62787   0.43211   0.77813   0.00000  Uiso   1.00
N1053  N     0.50000   0.61907   0.75000   0.00000  Uiso   1.00
N1054  N     0.50000   0.38093   0.75000   0.00000  Uiso   1.00
O1055  O     0.43892   0.53821   0.75000   0.00000  Uiso   1.00
O1056  O     0.56108   0.46179   0.75001   0.00000  Uiso   1.00
O1057  O     0.56108   0.53821   0.75001   0.00000  Uiso   1.00
O1058  O     0.43892   0.46179   0.75000   0.00000  Uiso   1.00
O1059  O     0.49999   0.53823   0.68393   0.00000  Uiso   1.00
O1060  O     0.50001   0.46177   0.81608   0.00000  Uiso   1.00
O1061  O     0.50001   0.53823   0.81608   0.00000  Uiso   1.00
O1062  O     0.49999   0.46177   0.68393   0.00000  Uiso   1.00
Zn1063 Zn    0.50000   0.55104   0.75000   0.00000  Uiso   1.00
Zn1064 Zn    0.50000   0.44896   0.75000   0.00000  Uiso   1.00
C1065  C     0.75331   0.49994   0.75010   0.00000  Uiso   1.00
C1066  C     0.70916   0.49995   0.75034   0.00000  Uiso   1.00
C1067  C     0.86033   0.35736   0.77588   0.00000  Uiso   1.00
C1068  C     0.80634   0.64264   0.72413   0.00000  Uiso   1.00
C1069  C     0.80634   0.35725   0.72413   0.00000  Uiso   1.00
C1070  C     0.86033   0.64275   0.77587   0.00000  Uiso   1.00
C1071  C     0.83446   0.50009   0.66350   0.00000  Uiso   1.00
C1072  C     0.83218   0.49992   0.83649   0.00000  Uiso   1.00
C1073  C     0.86637   0.48213   0.90526   0.00000  Uiso   1.00
C1074  C     0.79987   0.51732   0.59483   0.00000  Uiso   1.00
C1075  C     0.83208   0.49972   0.88411   0.00000  Uiso   1.00
C1076  C     0.91335   0.50007   0.75022   0.00000  Uiso   1.00
C1077  C     0.83458   0.50052   0.61585   0.00000  Uiso   1.00
C1078  C     0.79825   0.51756   0.90794   0.00000  Uiso   1.00
C1079  C     0.86926   0.48486   0.59188   0.00000  Uiso   1.00
C1080  C     0.79819   0.51712   0.95447   0.00000  Uiso   1.00
C1081  C     0.86947   0.48600   0.54537   0.00000  Uiso   1.00
C1082  C     0.83370   0.50127   0.97656   0.00000  Uiso   1.00
C1083  C     0.83380   0.50161   0.52329   0.00000  Uiso   1.00
C1084  C     0.86895   0.48489   0.95173   0.00000  Uiso   1.00
C1085  C     0.79816   0.51703   0.54812   0.00000  Uiso   1.00
C1086  C     0.76298   0.53192   0.97879   0.00000  Uiso   1.00
C1087  C     0.76182   0.53115   0.52593   0.00000  Uiso   1.00
C1088  C     0.90487   0.47187   0.52092   0.00000  Uiso   1.00
C1089  C     0.72255   0.54444   0.55302   0.00000  Uiso   1.00
C1090  C     0.68266   0.54961   0.52627   0.00000  Uiso   1.00
C1091  C     0.97825   0.55894   0.55718   0.00000  Uiso   1.00
C1092  C     0.94537   0.45768   0.94904   0.00000  Uiso   1.00
C1093  C     0.96630   0.49775   0.92386   0.00000  Uiso   1.00
C1094  C     0.67539   0.48443   0.90367   0.00000  Uiso   1.00
C1095  C     0.90546   0.47169   0.97396   0.00000  Uiso   1.00
C1096  C     0.68746   0.46161   0.76569   0.00000  Uiso   1.00
C1097  C     0.97918   0.53863   0.73560   0.00000  Uiso   1.00
C1098  C     0.97806   0.46175   0.76589   0.00000  Uiso   1.00
C1099  C     0.68856   0.53850   0.73541   0.00000  Uiso   1.00
C1100  C     0.95748   0.50019   0.75067   0.00000  Uiso   1.00
H1101  H     0.89094   0.46719   0.88469   0.00000  Uiso   1.00
H1102  H     0.70538   0.56816   0.72317   0.00000  Uiso   1.00
H1103  H     0.88191   0.37556   0.79659   0.00000  Uiso   1.00
H1104  H     0.78476   0.62444   0.70342   0.00000  Uiso   1.00
H1105  H     0.78475   0.37536   0.70343   0.00000  Uiso   1.00
H1106  H     0.88191   0.62464   0.79657   0.00000  Uiso   1.00
H1107  H     0.97301   0.53043   0.58113   0.00000  Uiso   1.00
H1108  H     0.98304   0.59068   0.57631   0.00000  Uiso   1.00
H1109  H     0.95002   0.56271   0.53676   0.00000  Uiso   1.00
H1110  H     0.68605   0.57815   0.50202   0.00000  Uiso   1.00
H1111  H     0.67698   0.51757   0.50803   0.00000  Uiso   1.00
H1112  H     0.77437   0.52994   0.61573   0.00000  Uiso   1.00
H1113  H     0.71594   0.51741   0.57834   0.00000  Uiso   1.00
H1114  H     0.72881   0.57658   0.57102   0.00000  Uiso   1.00
H1115  H     0.69648   0.47321   0.93046   0.00000  Uiso   1.00
H1116  H     0.67173   0.45662   0.87904   0.00000  Uiso   1.00
H1117  H     0.68981   0.51399   0.88603   0.00000  Uiso   1.00
H1118  H     0.94683   0.51001   0.89622   0.00000  Uiso   1.00
H1119  H     0.97029   0.52662   0.94707   0.00000  Uiso   1.00
H1120  H     0.96796   0.44384   0.97316   0.00000  Uiso   1.00
H1121  H     0.93870   0.42973   0.92539   0.00000  Uiso   1.00
H1122  H     0.77172   0.53051   0.89014   0.00000  Uiso   1.00
H1123  H     0.89613   0.47259   0.60957   0.00000  Uiso   1.00
H1124  H     0.73647   0.54353   0.96038   0.00000  Uiso   1.00
H1125  H     0.93224   0.46116   0.53865   0.00000  Uiso   1.00
H1126  H     0.70343   0.43192   0.77782   0.00000  Uiso   1.00
H1127  H     0.96325   0.56834   0.72348   0.00000  Uiso   1.00
H1128  H     0.96121   0.43211   0.77813   0.00000  Uiso   1.00
N1129  N     0.83333   0.61907   0.75000   0.00000  Uiso   1.00
N1130  N     0.83333   0.38093   0.75000   0.00000  Uiso   1.00
O1131  O     0.77226   0.53821   0.75000   0.00000  Uiso   1.00
O1132  O     0.89441   0.46179   0.75001   0.00000  Uiso   1.00
O1133  O     0.89441   0.53821   0.75001   0.00000  Uiso   1.00
O1134  O     0.77226   0.46179   0.75000   0.00000  Uiso   1.00
O1135  O     0.83333   0.53823   0.68393   0.00000  Uiso   1.00
O1136  O     0.83334   0.46177   0.81608   0.00000  Uiso   1.00
O1137  O     0.83334   0.53823   0.81608   0.00000  Uiso   1.00
O1138  O     0.83333   0.46177   0.68393   0.00000  Uiso   1.00
Zn1139 Zn    0.83333   0.55104   0.75000   0.00000  Uiso   1.00
Zn1140 Zn    0.83333   0.44896   0.75000   0.00000  Uiso   1.00
C1141  C     0.08664   0.83327   0.75010   0.00000  Uiso   1.00
C1142  C     0.04249   0.83328   0.75034   0.00000  Uiso   1.00
C1143  C     0.19366   0.69070   0.77588   0.00000  Uiso   1.00
C1144  C     0.13967   0.97597   0.72413   0.00000  Uiso   1.00
C1145  C     0.13967   0.69059   0.72413   0.00000  Uiso   1.00
C1146  C     0.19366   0.97608   0.77587   0.00000  Uiso   1.00
C1147  C     0.16780   0.83343   0.66350   0.00000  Uiso   1.00
C1148  C     0.16552   0.83325   0.83649   0.00000  Uiso   1.00
C1149  C     0.19970   0.81547   0.90526   0.00000  Uiso   1.00
C1150  C     0.13320   0.85066   0.59483   0.00000  Uiso   1.00
C1151  C     0.16541   0.83306   0.88411   0.00000  Uiso   1.00
C1152  C     0.24668   0.83341   0.75022   0.00000  Uiso   1.00
C1153  C     0.16792   0.83385   0.61585   0.00000  Uiso   1.00
C1154  C     0.13159   0.85089   0.90794   0.00000  Uiso   1.00
C1155  C     0.20260   0.81819   0.59188   0.00000  Uiso   1.00
C1156  C     0.13153   0.85046   0.95447   0.00000  Uiso   1.00
C1157  C     0.20281   0.81934   0.54537   0.00000  Uiso   1.00
C1158  C     0.16704   0.83460   0.97656   0.00000  Uiso   1.00
C1159  C     0.16713   0.83495   0.52329   0.00000  Uiso   1.00
C1160  C     0.20229   0.81822   0.95173   0.00000  Uiso   1.00
C1161  C     0.13150   0.85036   0.54812   0.00000  Uiso   1.00
C1162  C     0.09631   0.86525   0.97879   0.00000  Uiso   1.00
C1163  C     0.09515   0.86448   0.52593   0.00000  Uiso   1.00
C1164  C     0.23821   0.80521   0.52092   0.00000  Uiso   1.00
C1165  C     0.05589   0.87777   0.55302   0.00000  Uiso   1.00
C1166  C     0.01599   0.88294   0.52627   0.00000  Uiso   1.00
C1167  C     0.31159   0.89227   0.55718   0.00000  Uiso   1.00
C1168  C     0.27870   0.79102   0.94904   0.00000  Uiso   1.00
C1169  C     0.29963   0.83108   0.92386   0.00000  Uiso   1.00
C1170  C     0.00873   0.81776   0.90367   0.00000  Uiso   1.00
C1171  C     0.23880   0.80503   0.97396   0.00000  Uiso   1.00
C1172  C     0.02080   0.79495   0.76569   0.00000  Uiso   1.00
C1173  C     0.31252   0.87196   0.73560   0.00000  Uiso   1.00
C1174  C     0.31139   0.79508   0.76589   0.00000  Uiso   1.00
C1175  C     0.02189   0.87183   0.73541   0.00000  Uiso   1.00
C1176  C     0.29081   0.83352   0.75067   0.00000  Uiso   1.00
H1177  H     0.22427   0.80052   0.88469   0.00000  Uiso   1.00
H1178  H     0.03871   0.90149   0.72317   0.00000  Uiso   1.00
H1179  H     0.21524   0.70889   0.79659   0.00000  Uiso   1.00
H1180  H     0.11809   0.95778   0.70342   0.00000  Uiso   1.00
H1181  H     0.11808   0.70869   0.70343   0.00000  Uiso   1.00
H1182  H     0.21525   0.95797   0.79657   0.00000  Uiso   1.00
H1183  H     0.30635   0.86376   0.58113   0.00000  Uiso   1.00
H1184  H     0.31637   0.92402   0.57631   0.00000  Uiso   1.00
H1185  H     0.28335   0.89605   0.53676   0.00000  Uiso   1.00
H1186  H     0.01939   0.91148   0.50202   0.00000  Uiso   1.00
H1187  H     0.01031   0.85090   0.50803   0.00000  Uiso   1.00
H1188  H     0.10770   0.86327   0.61573   0.00000  Uiso   1.00
H1189  H     0.04928   0.85074   0.57834   0.00000  Uiso   1.00
H1190  H     0.06214   0.90991   0.57102   0.00000  Uiso   1.00
H1191  H     0.02981   0.80654   0.93046   0.00000  Uiso   1.00
H1192  H     0.00506   0.78995   0.87904   0.00000  Uiso   1.00
H1193  H     0.02315   0.84733   0.88603   0.00000  Uiso   1.00
H1194  H     0.28017   0.84335   0.89622   0.00000  Uiso   1.00
H1195  H     0.30362   0.85996   0.94707   0.00000  Uiso   1.00
H1196  H     0.30130   0.77718   0.97316   0.00000  Uiso   1.00
H1197  H     0.27203   0.76306   0.92539   0.00000  Uiso   1.00
H1198  H     0.10505   0.86384   0.89014   0.00000  Uiso   1.00
H1199  H     0.22946   0.80592   0.60957   0.00000  Uiso   1.00
H1200  H     0.06980   0.87686   0.96038   0.00000  Uiso   1.00
H1201  H     0.26558   0.79449   0.53865   0.00000  Uiso   1.00
H1202  H     0.03676   0.76525   0.77782   0.00000  Uiso   1.00
H1203  H     0.29658   0.90168   0.72348   0.00000  Uiso   1.00
H1204  H     0.29454   0.76544   0.77813   0.00000  Uiso   1.00
N1205  N     0.16667   0.95240   0.75000   0.00000  Uiso   1.00
N1206  N     0.16667   0.71427   0.75000   0.00000  Uiso   1.00
O1207  O     0.10559   0.87154   0.75000   0.00000  Uiso   1.00
O1208  O     0.22774   0.79513   0.75001   0.00000  Uiso   1.00
O1209  O     0.22774   0.87154   0.75001   0.00000  Uiso   1.00
O1210  O     0.10559   0.79513   0.75000   0.00000  Uiso   1.00
O1211  O     0.16666   0.87156   0.68393   0.00000  Uiso   1.00
O1212  O     0.16667   0.79511   0.81608   0.00000  Uiso   1.00
O1213  O     0.16667   0.87156   0.81608   0.00000  Uiso   1.00
O1214  O     0.16666   0.79511   0.68393   0.00000  Uiso   1.00
Zn1215 Zn    0.16667   0.88437   0.75000   0.00000  Uiso   1.00
Zn1216 Zn    0.16667   0.78229   0.75000   0.00000  Uiso   1.00
C1217  C     0.41998   0.83327   0.75010   0.00000  Uiso   1.00
C1218  C     0.37583   0.83328   0.75034   0.00000  Uiso   1.00
C1219  C     0.52699   0.69070   0.77588   0.00000  Uiso   1.00
C1220  C     0.47300   0.97597   0.72413   0.00000  Uiso   1.00
C1221  C     0.47300   0.69059   0.72413   0.00000  Uiso   1.00
C1222  C     0.52700   0.97608   0.77587   0.00000  Uiso   1.00
C1223  C     0.50113   0.83343   0.66350   0.00000  Uiso   1.00
C1224  C     0.49885   0.83325   0.83649   0.00000  Uiso   1.00
C1225  C     0.53304   0.81547   0.90526   0.00000  Uiso   1.00
C1226  C     0.46654   0.85066   0.59483   0.00000  Uiso   1.00
C1227  C     0.49874   0.83306   0.88411   0.00000  Uiso   1.00
C1228  C     0.58001   0.83341   0.75022   0.00000  Uiso   1.00
C1229  C     0.50125   0.83385   0.61585   0.00000  Uiso   1.00
C1230  C     0.46492   0.85089   0.90794   0.00000  Uiso   1.00
C1231  C     0.53593   0.81819   0.59188   0.00000  Uiso   1.00
C1232  C     0.46486   0.85046   0.95447   0.00000  Uiso   1.00
C1233  C     0.53614   0.81934   0.54537   0.00000  Uiso   1.00
C1234  C     0.50037   0.83460   0.97656   0.00000  Uiso   1.00
C1235  C     0.50047   0.83495   0.52329   0.00000  Uiso   1.00
C1236  C     0.53562   0.81822   0.95173   0.00000  Uiso   1.00
C1237  C     0.46483   0.85036   0.54812   0.00000  Uiso   1.00
C1238  C     0.42964   0.86525   0.97879   0.00000  Uiso   1.00
C1239  C     0.42849   0.86448   0.52593   0.00000  Uiso   1.00
C1240  C     0.57154   0.80521   0.52092   0.00000  Uiso   1.00
C1241  C     0.38922   0.87777   0.55302   0.00000  Uiso   1.00
C1242  C     0.34932   0.88294   0.52627   0.00000  Uiso   1.00
C1243  C     0.64492   0.89227   0.55718   0.00000  Uiso   1.00
C1244  C     0.61203   0.79102   0.94904   0.00000  Uiso   1.00
C1245  C     0.63297   0.83108   0.92386   0.00000  Uiso   1.00
C1246  C     0.34206   0.81776   0.90367   0.00000  Uiso   1.00
C1247  C     0.57213   0.80503   0.97396   0.00000  Uiso   1.00
C1248  C     0.35413   0.79495   0.76569   0.00000  Uiso   1.00
C1249  C     0.64585   0.87196   0.73560   0.00000  Uiso   1.00
C1250  C     0.64473   0.79508   0.76589   0.00000  Uiso   1.00
C1251  C     0.35522   0.87183   0.73541   0.00000  Uiso   1.00
C1252  C     0.62414   0.83352   0.75067   0.00000  Uiso   1.00
H1253  H     0.55760   0.80052   0.88469   0.00000  Uiso   1.00
H1254  H     0.37204   0.90149   0.72317   0.00000  Uiso   1.00
H1255  H     0.54857   0.70889   0.79659   0.00000  Uiso   1.00
H1256  H     0.45142   0.95778   0.70342   0.00000  Uiso   1.00
H1257  H     0.45142   0.70869   0.70343   0.00000  Uiso   1.00
H1258  H     0.54858   0.95797   0.79657   0.00000  Uiso   1.00
H1259  H     0.63968   0.86376   0.58113   0.00000  Uiso   1.00
H1260  H     0.64970   0.92402   0.57631   0.00000  Uiso   1.00
H1261  H     0.61669   0.89605   0.53676   0.00000  Uiso   1.00
H1262  H     0.35272   0.91148   0.50202   0.00000  Uiso   1.00
H1263  H     0.34364   0.85090   0.50803   0.00000  Uiso   1.00
H1264  H     0.44103   0.86327   0.61573   0.00000  Uiso   1.00
H1265  H     0.38261   0.85074   0.57834   0.00000  Uiso   1.00
H1266  H     0.39548   0.90991   0.57102   0.00000  Uiso   1.00
H1267  H     0.36314   0.80654   0.93046   0.00000  Uiso   1.00
H1268  H     0.33840   0.78995   0.87904   0.00000  Uiso   1.00
H1269  H     0.35648   0.84733   0.88603   0.00000  Uiso   1.00
H1270  H     0.61350   0.84335   0.89622   0.00000  Uiso   1.00
H1271  H     0.63695   0.85996   0.94707   0.00000  Uiso   1.00
H1272  H     0.63463   0.77718   0.97316   0.00000  Uiso   1.00
H1273  H     0.60537   0.76306   0.92539   0.00000  Uiso   1.00
H1274  H     0.43839   0.86384   0.89014   0.00000  Uiso   1.00
H1275  H     0.56280   0.80592   0.60957   0.00000  Uiso   1.00
H1276  H     0.40314   0.87686   0.96038   0.00000  Uiso   1.00
H1277  H     0.59891   0.79449   0.53865   0.00000  Uiso   1.00
H1278  H     0.37010   0.76525   0.77782   0.00000  Uiso   1.00
H1279  H     0.62992   0.90168   0.72348   0.00000  Uiso   1.00
H1280  H     0.62787   0.76544   0.77813   0.00000  Uiso   1.00
N1281  N     0.50000   0.95240   0.75000   0.00000  Uiso   1.00
N1282  N     0.50000   0.71427   0.75000   0.00000  Uiso   1.00
O1283  O     0.43892   0.87154   0.75000   0.00000  Uiso   1.00
O1284  O     0.56108   0.79513   0.75001   0.00000  Uiso   1.00
O1285  O     0.56108   0.87154   0.75001   0.00000  Uiso   1.00
O1286  O     0.43892   0.79513   0.75000   0.00000  Uiso   1.00
O1287  O     0.49999   0.87156   0.68393   0.00000  Uiso   1.00
O1288  O     0.50001   0.79511   0.81608   0.00000  Uiso   1.00
O1289  O     0.50001   0.87156   0.81608   0.00000  Uiso   1.00
O1290  O     0.49999   0.79511   0.68393   0.00000  Uiso   1.00
Zn1291 Zn    0.50000   0.88437   0.75000   0.00000  Uiso   1.00
Zn1292 Zn    0.50000   0.78229   0.75000   0.00000  Uiso   1.00
C1293  C     0.75331   0.83327   0.75010   0.00000  Uiso   1.00
C1294  C     0.70916   0.83328   0.75034   0.00000  Uiso   1.00
C1295  C     0.86033   0.69070   0.77588   0.00000  Uiso   1.00
C1296  C     0.80634   0.97597   0.72413   0.00000  Uiso   1.00
C1297  C     0.80634   0.69059   0.72413   0.00000  Uiso   1.00
C1298  C     0.86033   0.97608   0.77587   0.00000  Uiso   1.00
C1299  C     0.83446   0.83343   0.66350   0.00000  Uiso   1.00
C1300  C     0.83218   0.83325   0.83649   0.00000  Uiso   1.00
C1301  C     0.86637   0.81547   0.90526   0.00000  Uiso   1.00
C1302  C     0.79987   0.85066   0.59483   0.00000  Uiso   1.00
C1303  C     0.83208   0.83306   0.88411   0.00000  Uiso   1.00
C1304  C     0.91335   0.83341   0.75022   0.00000  Uiso   1.00
C1305  C     0.83458   0.83385   0.61585   0.00000  Uiso   1.00
C1306  C     0.79825   0.85089   0.90794   0.00000  Uiso   1.00
C1307  C     0.86926   0.81819   0.59188   0.00000  Uiso   1.00
C1308  C     0.79819   0.85046   0.95447   0.00000  Uiso   1.00
C1309  C     0.86947   0.81934   0.54537   0.00000  Uiso   1.00
C1310  C     0.83370   0.83460   0.97656   0.00000  Uiso   1.00
C1311  C     0.83380   0.83495   0.52329   0.00000  Uiso   1.00
C1312  C     0.86895   0.81822   0.95173   0.00000  Uiso   1.00
C1313  C     0.79816   0.85036   0.54812   0.00000  Uiso   1.00
C1314  C     0.76298   0.86525   0.97879   0.00000  Uiso   1.00
C1315  C     0.76182   0.86448   0.52593   0.00000  Uiso   1.00
C1316  C     0.90487   0.80521   0.52092   0.00000  Uiso   1.00
C1317  C     0.72255   0.87777   0.55302   0.00000  Uiso   1.00
C1318  C     0.68266   0.88294   0.52627   0.00000  Uiso   1.00
C1319  C     0.97825   0.89227   0.55718   0.00000  Uiso   1.00
C1320  C     0.94537   0.79102   0.94904   0.00000  Uiso   1.00
C1321  C     0.96630   0.83108   0.92386   0.00000  Uiso   1.00
C1322  C     0.67539   0.81776   0.90367   0.00000  Uiso   1.00
C1323  C     0.90546   0.80503   0.97396   0.00000  Uiso   1.00
C1324  C     0.68746   0.79495   0.76569   0.00000  Uiso   1.00
C1325  C     0.97918   0.87196   0.73560   0.00000  Uiso   1.00
C1326  C     0.97806   0.79508   0.76589   0.00000  Uiso   1.00
C1327  C     0.68856   0.87183   0.73541   0.00000  Uiso   1.00
C1328  C     0.95748   0.83352   0.75067   0.00000  Uiso   1.00
H1329  H     0.89094   0.80052   0.88469   0.00000  Uiso   1.00
H1330  H     0.70538   0.90149   0.72317   0.00000  Uiso   1.00
H1331  H     0.88191   0.70889   0.79659   0.00000  Uiso   1.00
H1332  H     0.78476   0.95778   0.70342   0.00000  Uiso   1.00
H1333  H     0.78475   0.70869   0.70343   0.00000  Uiso   1.00
H1334  H     0.88191   0.95797   0.79657   0.00000  Uiso   1.00
H1335  H     0.97301   0.86376   0.58113   0.00000  Uiso   1.00
H1336  H     0.98304   0.92402   0.57631   0.00000  Uiso   1.00
H1337  H     0.95002   0.89605   0.53676   0.00000  Uiso   1.00
H1338  H     0.68605   0.91148   0.50202   0.00000  Uiso   1.00
H1339  H     0.67698   0.85090   0.50803   0.00000  Uiso   1.00
H1340  H     0.77437   0.86327   0.61573   0.00000  Uiso   1.00
H1341  H     0.71594   0.85074   0.57834   0.00000  Uiso   1.00
H1342  H     0.72881   0.90991   0.57102   0.00000  Uiso   1.00
H1343  H     0.69648   0.80654   0.93046   0.00000  Uiso   1.00
H1344  H     0.67173   0.78995   0.87904   0.00000  Uiso   1.00
H1345  H     0.68981   0.84733   0.88603   0.00000  Uiso   1.00
H1346  H     0.94683   0.84335   0.89622   0.00000  Uiso   1.00
H1347  H     0.97029   0.85996   0.94707   0.00000  Uiso   1.00
H1348  H     0.96796   0.77718   0.97316   0.00000  Uiso   1.00
H1349  H     0.93870   0.76306   0.92539   0.00000  Uiso   1.00
H1350  H     0.77172   0.86384   0.89014   0.00000  Uiso   1.00
H1351  H     0.89613   0.80592   0.60957   0.00000  Uiso   1.00
H1352  H     0.73647   0.87686   0.96038   0.00000  Uiso   1.00
H1353  H     0.93224   0.79449   0.53865   0.00000  Uiso   1.00
H1354  H     0.70343   0.76525   0.77782   0.00000  Uiso   1.00
H1355  H     0.96325   0.90168   0.72348   0.00000  Uiso   1.00
H1356  H     0.96121   0.76544   0.77813   0.00000  Uiso   1.00
N1357  N     0.83333   0.95240   0.75000   0.00000  Uiso   1.00
N1358  N     0.83333   0.71427   0.75000   0.00000  Uiso   1.00
O1359  O     0.77226   0.87154   0.75000   0.00000  Uiso   1.00
O1360  O     0.89441   0.79513   0.75001   0.00000  Uiso   1.00
O1361  O     0.89441   0.87154   0.75001   0.00000  Uiso   1.00
O1362  O     0.77226   0.79513   0.75000   0.00000  Uiso   1.00
O1363  O     0.83333   0.87156   0.68393   0.00000  Uiso   1.00
O1364  O     0.83334   0.79511   0.81608   0.00000  Uiso   1.00
O1365  O     0.83334   0.87156   0.81608   0.00000  Uiso   1.00
O1366  O     0.83333   0.79511   0.68393   0.00000  Uiso   1.00
Zn1367 Zn    0.83333   0.88437   0.75000   0.00000  Uiso   1.00
Zn1368 Zn    0.83333   0.78229   0.75000   0.00000  Uiso   1.00
loop_
_geom_bond_atom_site_label_1
_geom_bond_atom_site_label_2
_geom_bond_distance
_geom_bond_site_symmetry_2
_ccdc_geom_bond_type
C1     C2      1.416   .     S
C1     O70     1.283   .     A
C1     O67     1.281   .     A
C2     C35     1.397   .     A
C2     C32     1.396   .     A
C3     H39     1.082   .     S
C3     N66     1.366   .     A
C3     C462    1.417   1_545 S
C4     N65     1.366   .     A
C4     H40     1.082   .     S
C4     C233    1.417   .     S
C5     H41     1.082   .     S
C5     N66     1.366   .     A
C5     C460    1.417   1_545 S
C6     N65     1.367   .     A
C6     H42     1.082   .     S
C6     C231    1.417   .     S
C7     O71     1.282   .     A
C7     O74     1.283   .     A
C7     C13     1.418   .     S
C8     O72     1.282   .     A
C8     C11     1.417   .     S
C8     O73     1.283   .     A
C9     H37     1.081   .     S
C9     C20     1.391   .     A
C9     C11     1.385   .     A
C10    C21     1.393   .     A
C10    H48     1.082   .     S
C10    C13     1.386   .     A
C11    C14     1.387   .     A
C12    O68     1.282   .     A
C12    C36     1.416   .     S
C12    O69     1.282   .     A
C13    C15     1.387   .     A
C14    H58     1.085   .     S
C14    C16     1.385   .     A
C15    C17     1.385   .     A
C15    H59     1.086   .     S
C16    C22     1.398   .     A
C16    C18     1.412   .     A
C17    C19     1.414   .     A
C17    C24     1.398   .     A
C18    C20     1.422   .     A
C18    C703    1.391   .     S
C19    C21     1.422   .     A
C19    C702    1.391   1_554 S
C20    C31     1.417   .     A
C21    C23     1.419   .     A
C22    H60     1.081   .     S
C22    C707    1.403   .     S
C23    C25     1.530   .     S
C23    C706    1.403   1_554 S
C24    H61     1.085   .     S
C24    C715    1.398   1_554 S
C25    H50     1.112   .     S
C25    C26     1.534   .     S
C25    H49     1.112   .     S
C26    H47     1.110   .     S
C26    H46     1.111   .     S
C26    C179    1.527   1_455 S
C27    H44     1.111   .     S
C27    H45     1.111   .     S
C27    H43     1.111   .     S
C27    C102    1.527   .     S
C28    H56     1.113   .     S
C28    H57     1.111   .     S
C28    C29     1.541   .     S
C28    C31     1.522   .     S
C29    H54     1.108   .     S
C29    H55     1.108   .     S
C29    C106    1.527   .     S
C30    H51     1.111   .     S
C30    H53     1.110   .     S
C30    H52     1.111   .     S
C30    C181    1.527   1_455 S
C31    C708    1.398   .     S
C32    H62     1.084   .     S
C32    C186    1.371   1_455 S
C33    C36     1.396   .     A
C33    H63     1.084   .     S
C33    C111    1.370   .     S
C34    H64     1.084   .     S
C34    C36     1.397   .     A
C34    C108    1.371   .     S
C35    H38     1.084   .     S
C35    C185    1.370   1_455 S
N65    Zn75    2.010   .     S
N66    Zn76    2.010   .     S
O67    Zn75    1.994   .     S
O68    Zn76    1.994   .     S
O69    Zn75    1.998   .     S
O70    Zn76    1.998   .     S
O71    Zn75    2.004   .     S
O72    Zn76    2.004   .     S
O73    Zn75    2.002   .     S
O74    Zn76    2.002   .     S
C77    C78     1.416   .     S
C77    O146    1.283   .     A
C77    O143    1.281   .     A
C78    C111    1.397   .     A
C78    C108    1.396   .     A
C79    H115    1.082   .     S
C79    N142    1.366   .     A
C79    C538    1.417   1_545 S
C80    N141    1.366   .     A
C80    H116    1.082   .     S
C80    C309    1.417   .     S
C81    H117    1.082   .     S
C81    N142    1.366   .     A
C81    C536    1.417   1_545 S
C82    N141    1.367   .     A
C82    H118    1.082   .     S
C82    C307    1.417   .     S
C83    O147    1.282   .     A
C83    O150    1.283   .     A
C83    C89     1.418   .     S
C84    O148    1.282   .     A
C84    C87     1.417   .     S
C84    O149    1.283   .     A
C85    H113    1.081   .     S
C85    C96     1.391   .     A
C85    C87     1.385   .     A
C86    C97     1.393   .     A
C86    H124    1.082   .     S
C86    C89     1.386   .     A
C87    C90     1.387   .     A
C88    O144    1.282   .     A
C88    C112    1.416   .     S
C88    O145    1.282   .     A
C89    C91     1.387   .     A
C90    H134    1.085   .     S
C90    C92     1.385   .     A
C91    C93     1.385   .     A
C91    H135    1.086   .     S
C92    C98     1.398   .     A
C92    C94     1.412   .     A
C93    C95     1.414   .     A
C93    C100    1.398   .     A
C94    C96     1.422   .     A
C94    C779    1.391   .     S
C95    C97     1.422   .     A
C95    C778    1.391   1_554 S
C96    C107    1.417   .     A
C97    C99     1.419   .     A
C98    H136    1.081   .     S
C98    C783    1.403   .     S
C99    C101    1.530   .     S
C99    C782    1.403   1_554 S
C100   H137    1.085   .     S
C100   C791    1.398   1_554 S
C101   H126    1.112   .     S
C101   C102    1.534   .     S
C101   H125    1.112   .     S
C102   H123    1.110   .     S
C102   H122    1.111   .     S
C103   H120    1.111   .     S
C103   H121    1.111   .     S
C103   H119    1.111   .     S
C103   C178    1.527   .     S
C104   H132    1.113   .     S
C104   H133    1.111   .     S
C104   C105    1.541   .     S
C104   C107    1.522   .     S
C105   H130    1.108   .     S
C105   H131    1.108   .     S
C105   C182    1.527   .     S
C106   H127    1.111   .     S
C106   H129    1.110   .     S
C106   H128    1.111   .     S
C107   C784    1.398   .     S
C108   H138    1.084   .     S
C109   C112    1.396   .     A
C109   H139    1.084   .     S
C109   C187    1.370   .     S
C110   H140    1.084   .     S
C110   C112    1.397   .     A
C110   C184    1.371   .     S
C111   H114    1.084   .     S
N141   Zn151   2.010   .     S
N142   Zn152   2.010   .     S
O143   Zn151   1.994   .     S
O144   Zn152   1.994   .     S
O145   Zn151   1.998   .     S
O146   Zn152   1.998   .     S
O147   Zn151   2.004   .     S
O148   Zn152   2.004   .     S
O149   Zn151   2.002   .     S
O150   Zn152   2.002   .     S
C153   C154    1.416   .     S
C153   O222    1.283   .     A
C153   O219    1.281   .     A
C154   C187    1.397   .     A
C154   C184    1.396   .     A
C155   H191    1.082   .     S
C155   N218    1.366   .     A
C155   C614    1.417   1_545 S
C156   N217    1.366   .     A
C156   H192    1.082   .     S
C156   C385    1.417   .     S
C157   H193    1.082   .     S
C157   N218    1.366   .     A
C157   C612    1.417   1_545 S
C158   N217    1.367   .     A
C158   H194    1.082   .     S
C158   C383    1.417   .     S
C159   O223    1.282   .     A
C159   O226    1.283   .     A
C159   C165    1.418   .     S
C160   O224    1.282   .     A
C160   C163    1.417   .     S
C160   O225    1.283   .     A
C161   H189    1.081   .     S
C161   C172    1.391   .     A
C161   C163    1.385   .     A
C162   C173    1.393   .     A
C162   H200    1.082   .     S
C162   C165    1.386   .     A
C163   C166    1.387   .     A
C164   O220    1.282   .     A
C164   C188    1.416   .     S
C164   O221    1.282   .     A
C165   C167    1.387   .     A
C166   H210    1.085   .     S
C166   C168    1.385   .     A
C167   C169    1.385   .     A
C167   H211    1.086   .     S
C168   C174    1.398   .     A
C168   C170    1.412   .     A
C169   C171    1.414   .     A
C169   C176    1.398   .     A
C170   C172    1.422   .     A
C170   C855    1.391   .     S
C171   C173    1.422   .     A
C171   C854    1.391   1_554 S
C172   C183    1.417   .     A
C173   C175    1.419   .     A
C174   H212    1.081   .     S
C174   C859    1.403   .     S
C175   C177    1.530   .     S
C175   C858    1.403   1_554 S
C176   H213    1.085   .     S
C176   C867    1.398   1_554 S
C177   H202    1.112   .     S
C177   C178    1.534   .     S
C177   H201    1.112   .     S
C178   H199    1.110   .     S
C178   H198    1.111   .     S
C179   H196    1.111   .     S
C179   H197    1.111   .     S
C179   H195    1.111   .     S
C179   C26     1.527   1_655 S
C180   H208    1.113   .     S
C180   H209    1.111   .     S
C180   C181    1.541   .     S
C180   C183    1.522   .     S
C181   H206    1.108   .     S
C181   H207    1.108   .     S
C181   C30     1.527   1_655 S
C182   H203    1.111   .     S
C182   H205    1.110   .     S
C182   H204    1.111   .     S
C183   C860    1.398   .     S
C184   H214    1.084   .     S
C185   C188    1.396   .     A
C185   H215    1.084   .     S
C185   C35     1.370   1_655 S
C186   H216    1.084   .     S
C186   C188    1.397   .     A
C186   C32     1.371   1_655 S
C187   H190    1.084   .     S
N217   Zn227   2.010   .     S
N218   Zn228   2.010   .     S
O219   Zn227   1.994   .     S
O220   Zn228   1.994   .     S
O221   Zn227   1.998   .     S
O222   Zn228   1.998   .     S
O223   Zn227   2.004   .     S
O224   Zn228   2.004   .     S
O225   Zn227   2.002   .     S
O226   Zn228   2.002   .     S
C229   C230    1.416   .     S
C229   O298    1.283   .     A
C229   O295    1.281   .     A
C230   C263    1.397   .     A
C230   C260    1.396   .     A
C231   H267    1.082   .     S
C231   N294    1.366   .     A
C232   N293    1.366   .     A
C232   H268    1.082   .     S
C232   C461    1.417   .     S
C233   H269    1.082   .     S
C233   N294    1.366   .     A
C234   N293    1.367   .     A
C234   H270    1.082   .     S
C234   C459    1.417   .     S
C235   O299    1.282   .     A
C235   O302    1.283   .     A
C235   C241    1.418   .     S
C236   O300    1.282   .     A
C236   C239    1.417   .     S
C236   O301    1.283   .     A
C237   H265    1.081   .     S
C237   C248    1.391   .     A
C237   C239    1.385   .     A
C238   C249    1.393   .     A
C238   H276    1.082   .     S
C238   C241    1.386   .     A
C239   C242    1.387   .     A
C240   O296    1.282   .     A
C240   C264    1.416   .     S
C240   O297    1.282   .     A
C241   C243    1.387   .     A
C242   H286    1.085   .     S
C242   C244    1.385   .     A
C243   C245    1.385   .     A
C243   H287    1.086   .     S
C244   C250    1.398   .     A
C244   C246    1.412   .     A
C245   C247    1.414   .     A
C245   C252    1.398   .     A
C246   C248    1.422   .     A
C246   C931    1.391   .     S
C247   C249    1.422   .     A
C247   C930    1.391   1_554 S
C248   C259    1.417   .     A
C249   C251    1.419   .     A
C250   H288    1.081   .     S
C250   C935    1.403   .     S
C251   C253    1.530   .     S
C251   C934    1.403   1_554 S
C252   H289    1.085   .     S
C252   C943    1.398   1_554 S
C253   H278    1.112   .     S
C253   C254    1.534   .     S
C253   H277    1.112   .     S
C254   H275    1.110   .     S
C254   H274    1.111   .     S
C254   C407    1.527   1_455 S
C255   H272    1.111   .     S
C255   H273    1.111   .     S
C255   H271    1.111   .     S
C255   C330    1.527   .     S
C256   H284    1.113   .     S
C256   H285    1.111   .     S
C256   C257    1.541   .     S
C256   C259    1.522   .     S
C257   H282    1.108   .     S
C257   H283    1.108   .     S
C257   C334    1.527   .     S
C258   H279    1.111   .     S
C258   H281    1.110   .     S
C258   H280    1.111   .     S
C258   C409    1.527   1_455 S
C259   C936    1.398   .     S
C260   H290    1.084   .     S
C260   C414    1.371   1_455 S
C261   C264    1.396   .     A
C261   H291    1.084   .     S
C261   C339    1.370   .     S
C262   H292    1.084   .     S
C262   C264    1.397   .     A
C262   C336    1.371   .     S
C263   H266    1.084   .     S
C263   C413    1.370   1_455 S
N293   Zn303   2.010   .     S
N294   Zn304   2.010   .     S
O295   Zn303   1.994   .     S
O296   Zn304   1.994   .     S
O297   Zn303   1.998   .     S
O298   Zn304   1.998   .     S
O299   Zn303   2.004   .     S
O300   Zn304   2.004   .     S
O301   Zn303   2.002   .     S
O302   Zn304   2.002   .     S
C305   C306    1.416   .     S
C305   O374    1.283   .     A
C305   O371    1.281   .     A
C306   C339    1.397   .     A
C306   C336    1.396   .     A
C307   H343    1.082   .     S
C307   N370    1.366   .     A
C308   N369    1.366   .     A
C308   H344    1.082   .     S
C308   C537    1.417   .     S
C309   H345    1.082   .     S
C309   N370    1.366   .     A
C310   N369    1.367   .     A
C310   H346    1.082   .     S
C310   C535    1.417   .     S
C311   O375    1.282   .     A
C311   O378    1.283   .     A
C311   C317    1.418   .     S
C312   O376    1.282   .     A
C312   C315    1.417   .     S
C312   O377    1.283   .     A
C313   H341    1.081   .     S
C313   C324    1.391   .     A
C313   C315    1.385   .     A
C314   C325    1.393   .     A
C314   H352    1.082   .     S
C314   C317    1.386   .     A
C315   C318    1.387   .     A
C316   O372    1.282   .     A
C316   C340    1.416   .     S
C316   O373    1.282   .     A
C317   C319    1.387   .     A
C318   H362    1.085   .     S
C318   C320    1.385   .     A
C319   C321    1.385   .     A
C319   H363    1.086   .     S
C320   C326    1.398   .     A
C320   C322    1.412   .     A
C321   C323    1.414   .     A
C321   C328    1.398   .     A
C322   C324    1.422   .     A
C322   C1007   1.391   .     S
C323   C325    1.422   .     A
C323   C1006   1.391   1_554 S
C324   C335    1.417   .     A
C325   C327    1.419   .     A
C326   H364    1.081   .     S
C326   C1011   1.403   .     S
C327   C329    1.530   .     S
C327   C1010   1.403   1_554 S
C328   H365    1.085   .     S
C328   C1019   1.398   1_554 S
C329   H354    1.112   .     S
C329   C330    1.534   .     S
C329   H353    1.112   .     S
C330   H351    1.110   .     S
C330   H350    1.111   .     S
C331   H348    1.111   .     S
C331   H349    1.111   .     S
C331   H347    1.111   .     S
C331   C406    1.527   .     S
C332   H360    1.113   .     S
C332   H361    1.111   .     S
C332   C333    1.541   .     S
C332   C335    1.522   .     S
C333   H358    1.108   .     S
C333   H359    1.108   .     S
C333   C410    1.527   .     S
C334   H355    1.111   .     S
C334   H357    1.110   .     S
C334   H356    1.111   .     S
C335   C1012   1.398   .     S
C336   H366    1.084   .     S
C337   C340    1.396   .     A
C337   H367    1.084   .     S
C337   C415    1.370   .     S
C338   H368    1.084   .     S
C338   C340    1.397   .     A
C338   C412    1.371   .     S
C339   H342    1.084   .     S
N369   Zn379   2.010   .     S
N370   Zn380   2.010   .     S
O371   Zn379   1.994   .     S
O372   Zn380   1.994   .     S
O373   Zn379   1.998   .     S
O374   Zn380   1.998   .     S
O375   Zn379   2.004   .     S
O376   Zn380   2.004   .     S
O377   Zn379   2.002   .     S
O378   Zn380   2.002   .     S
C381   C382    1.416   .     S
C381   O450    1.283   .     A
C381   O447    1.281   .     A
C382   C415    1.397   .     A
C382   C412    1.396   .     A
C383   H419    1.082   .     S
C383   N446    1.366   .     A
C384   N445    1.366   .     A
C384   H420    1.082   .     S
C384   C613    1.417   .     S
C385   H421    1.082   .     S
C385   N446    1.366   .     A
C386   N445    1.367   .     A
C386   H422    1.082   .     S
C386   C611    1.417   .     S
C387   O451    1.282   .     A
C387   O454    1.283   .     A
C387   C393    1.418   .     S
C388   O452    1.282   .     A
C388   C391    1.417   .     S
C388   O453    1.283   .     A
C389   H417    1.081   .     S
C389   C400    1.391   .     A
C389   C391    1.385   .     A
C390   C401    1.393   .     A
C390   H428    1.082   .     S
C390   C393    1.386   .     A
C391   C394    1.387   .     A
C392   O448    1.282   .     A
C392   C416    1.416   .     S
C392   O449    1.282   .     A
C393   C395    1.387   .     A
C394   H438    1.085   .     S
C394   C396    1.385   .     A
C395   C397    1.385   .     A
C395   H439    1.086   .     S
C396   C402    1.398   .     A
C396   C398    1.412   .     A
C397   C399    1.414   .     A
C397   C404    1.398   .     A
C398   C400    1.422   .     A
C398   C1083   1.391   .     S
C399   C401    1.422   .     A
C399   C1082   1.391   1_554 S
C400   C411    1.417   .     A
C401   C403    1.419   .     A
C402   H440    1.081   .     S
C402   C1087   1.403   .     S
C403   C405    1.530   .     S
C403   C1086   1.403   1_554 S
C404   H441    1.085   .     S
C404   C1095   1.398   1_554 S
C405   H430    1.112   .     S
C405   C406    1.534   .     S
C405   H429    1.112   .     S
C406   H427    1.110   .     S
C406   H426    1.111   .     S
C407   H424    1.111   .     S
C407   H425    1.111   .     S
C407   H423    1.111   .     S
C407   C254    1.527   1_655 S
C408   H436    1.113   .     S
C408   H437    1.111   .     S
C408   C409    1.541   .     S
C408   C411    1.522   .     S
C409   H434    1.108   .     S
C409   H435    1.108   .     S
C409   C258    1.527   1_655 S
C410   H431    1.111   .     S
C410   H433    1.110   .     S
C410   H432    1.111   .     S
C411   C1088   1.398   .     S
C412   H442    1.084   .     S
C413   C416    1.396   .     A
C413   H443    1.084   .     S
C413   C263    1.370   1_655 S
C414   H444    1.084   .     S
C414   C416    1.397   .     A
C414   C260    1.371   1_655 S
C415   H418    1.084   .     S
N445   Zn455   2.010   .     S
N446   Zn456   2.010   .     S
O447   Zn455   1.994   .     S
O448   Zn456   1.994   .     S
O449   Zn455   1.998   .     S
O450   Zn456   1.998   .     S
O451   Zn455   2.004   .     S
O452   Zn456   2.004   .     S
O453   Zn455   2.002   .     S
O454   Zn456   2.002   .     S
C457   C458    1.416   .     S
C457   O526    1.283   .     A
C457   O523    1.281   .     A
C458   C491    1.397   .     A
C458   C488    1.396   .     A
C459   H495    1.082   .     S
C459   N522    1.366   .     A
C460   N521    1.366   .     A
C460   H496    1.082   .     S
C460   C5      1.417   1_565 S
C461   H497    1.082   .     S
C461   N522    1.366   .     A
C462   N521    1.367   .     A
C462   H498    1.082   .     S
C462   C3      1.417   1_565 S
C463   O527    1.282   .     A
C463   O530    1.283   .     A
C463   C469    1.418   .     S
C464   O528    1.282   .     A
C464   C467    1.417   .     S
C464   O529    1.283   .     A
C465   H493    1.081   .     S
C465   C476    1.391   .     A
C465   C467    1.385   .     A
C466   C477    1.393   .     A
C466   H504    1.082   .     S
C466   C469    1.386   .     A
C467   C470    1.387   .     A
C468   O524    1.282   .     A
C468   C492    1.416   .     S
C468   O525    1.282   .     A
C469   C471    1.387   .     A
C470   H514    1.085   .     S
C470   C472    1.385   .     A
C471   C473    1.385   .     A
C471   H515    1.086   .     S
C472   C478    1.398   .     A
C472   C474    1.412   .     A
C473   C475    1.414   .     A
C473   C480    1.398   .     A
C474   C476    1.422   .     A
C474   C1159   1.391   .     S
C475   C477    1.422   .     A
C475   C1158   1.391   1_554 S
C476   C487    1.417   .     A
C477   C479    1.419   .     A
C478   H516    1.081   .     S
C478   C1163   1.403   .     S
C479   C481    1.530   .     S
C479   C1162   1.403   1_554 S
C480   H517    1.085   .     S
C480   C1171   1.398   1_554 S
C481   H506    1.112   .     S
C481   C482    1.534   .     S
C481   H505    1.112   .     S
C482   H503    1.110   .     S
C482   H502    1.111   .     S
C482   C635    1.527   1_455 S
C483   H500    1.111   .     S
C483   H501    1.111   .     S
C483   H499    1.111   .     S
C483   C558    1.527   .     S
C484   H512    1.113   .     S
C484   H513    1.111   .     S
C484   C485    1.541   .     S
C484   C487    1.522   .     S
C485   H510    1.108   .     S
C485   H511    1.108   .     S
C485   C562    1.527   .     S
C486   H507    1.111   .     S
C486   H509    1.110   .     S
C486   H508    1.111   .     S
C486   C637    1.527   1_455 S
C487   C1164   1.398   .     S
C488   H518    1.084   .     S
C488   C642    1.371   1_455 S
C489   C492    1.396   .     A
C489   H519    1.084   .     S
C489   C567    1.370   .     S
C490   H520    1.084   .     S
C490   C492    1.397   .     A
C490   C564    1.371   .     S
C491   H494    1.084   .     S
C491   C641    1.370   1_455 S
N521   Zn531   2.010   .     S
N522   Zn532   2.010   .     S
O523   Zn531   1.994   .     S
O524   Zn532   1.994   .     S
O525   Zn531   1.998   .     S
O526   Zn532   1.998   .     S
O527   Zn531   2.004   .     S
O528   Zn532   2.004   .     S
O529   Zn531   2.002   .     S
O530   Zn532   2.002   .     S
C533   C534    1.416   .     S
C533   O602    1.283   .     A
C533   O599    1.281   .     A
C534   C567    1.397   .     A
C534   C564    1.396   .     A
C535   H571    1.082   .     S
C535   N598    1.366   .     A
C536   N597    1.366   .     A
C536   H572    1.082   .     S
C536   C81     1.417   1_565 S
C537   H573    1.082   .     S
C537   N598    1.366   .     A
C538   N597    1.367   .     A
C538   H574    1.082   .     S
C538   C79     1.417   1_565 S
C539   O603    1.282   .     A
C539   O606    1.283   .     A
C539   C545    1.418   .     S
C540   O604    1.282   .     A
C540   C543    1.417   .     S
C540   O605    1.283   .     A
C541   H569    1.081   .     S
C541   C552    1.391   .     A
C541   C543    1.385   .     A
C542   C553    1.393   .     A
C542   H580    1.082   .     S
C542   C545    1.386   .     A
C543   C546    1.387   .     A
C544   O600    1.282   .     A
C544   C568    1.416   .     S
C544   O601    1.282   .     A
C545   C547    1.387   .     A
C546   H590    1.085   .     S
C546   C548    1.385   .     A
C547   C549    1.385   .     A
C547   H591    1.086   .     S
C548   C554    1.398   .     A
C548   C550    1.412   .     A
C549   C551    1.414   .     A
C549   C556    1.398   .     A
C550   C552    1.422   .     A
C550   C1235   1.391   .     S
C551   C553    1.422   .     A
C551   C1234   1.391   1_554 S
C552   C563    1.417   .     A
C553   C555    1.419   .     A
C554   H592    1.081   .     S
C554   C1239   1.403   .     S
C555   C557    1.530   .     S
C555   C1238   1.403   1_554 S
C556   H593    1.085   .     S
C556   C1247   1.398   1_554 S
C557   H582    1.112   .     S
C557   C558    1.534   .     S
C557   H581    1.112   .     S
C558   H579    1.110   .     S
C558   H578    1.111   .     S
C559   H576    1.111   .     S
C559   H577    1.111   .     S
C559   H575    1.111   .     S
C559   C634    1.527   .     S
C560   H588    1.113   .     S
C560   H589    1.111   .     S
C560   C561    1.541   .     S
C560   C563    1.522   .     S
C561   H586    1.108   .     S
C561   H587    1.108   .     S
C561   C638    1.527   .     S
C562   H583    1.111   .     S
C562   H585    1.110   .     S
C562   H584    1.111   .     S
C563   C1240   1.398   .     S
C564   H594    1.084   .     S
C565   C568    1.396   .     A
C565   H595    1.084   .     S
C565   C643    1.370   .     S
C566   H596    1.084   .     S
C566   C568    1.397   .     A
C566   C640    1.371   .     S
C567   H570    1.084   .     S
N597   Zn607   2.010   .     S
N598   Zn608   2.010   .     S
O599   Zn607   1.994   .     S
O600   Zn608   1.994   .     S
O601   Zn607   1.998   .     S
O602   Zn608   1.998   .     S
O603   Zn607   2.004   .     S
O604   Zn608   2.004   .     S
O605   Zn607   2.002   .     S
O606   Zn608   2.002   .     S
C609   C610    1.416   .     S
C609   O678    1.283   .     A
C609   O675    1.281   .     A
C610   C643    1.397   .     A
C610   C640    1.396   .     A
C611   H647    1.082   .     S
C611   N674    1.366   .     A
C612   N673    1.366   .     A
C612   H648    1.082   .     S
C612   C157    1.417   1_565 S
C613   H649    1.082   .     S
C613   N674    1.366   .     A
C614   N673    1.367   .     A
C614   H650    1.082   .     S
C614   C155    1.417   1_565 S
C615   O679    1.282   .     A
C615   O682    1.283   .     A
C615   C621    1.418   .     S
C616   O680    1.282   .     A
C616   C619    1.417   .     S
C616   O681    1.283   .     A
C617   H645    1.081   .     S
C617   C628    1.391   .     A
C617   C619    1.385   .     A
C618   C629    1.393   .     A
C618   H656    1.082   .     S
C618   C621    1.386   .     A
C619   C622    1.387   .     A
C620   O676    1.282   .     A
C620   C644    1.416   .     S
C620   O677    1.282   .     A
C621   C623    1.387   .     A
C622   H666    1.085   .     S
C622   C624    1.385   .     A
C623   C625    1.385   .     A
C623   H667    1.086   .     S
C624   C630    1.398   .     A
C624   C626    1.412   .     A
C625   C627    1.414   .     A
C625   C632    1.398   .     A
C626   C628    1.422   .     A
C626   C1311   1.391   .     S
C627   C629    1.422   .     A
C627   C1310   1.391   1_554 S
C628   C639    1.417   .     A
C629   C631    1.419   .     A
C630   H668    1.081   .     S
C630   C1315   1.403   .     S
C631   C633    1.530   .     S
C631   C1314   1.403   1_554 S
C632   H669    1.085   .     S
C632   C1323   1.398   1_554 S
C633   H658    1.112   .     S
C633   C634    1.534   .     S
C633   H657    1.112   .     S
C634   H655    1.110   .     S
C634   H654    1.111   .     S
C635   H652    1.111   .     S
C635   H653    1.111   .     S
C635   H651    1.111   .     S
C635   C482    1.527   1_655 S
C636   H664    1.113   .     S
C636   H665    1.111   .     S
C636   C637    1.541   .     S
C636   C639    1.522   .     S
C637   H662    1.108   .     S
C637   H663    1.108   .     S
C637   C486    1.527   1_655 S
C638   H659    1.111   .     S
C638   H661    1.110   .     S
C638   H660    1.111   .     S
C639   C1316   1.398   .     S
C640   H670    1.084   .     S
C641   C644    1.396   .     A
C641   H671    1.084   .     S
C641   C491    1.370   1_655 S
C642   H672    1.084   .     S
C642   C644    1.397   .     A
C642   C488    1.371   1_655 S
C643   H646    1.084   .     S
N673   Zn683   2.010   .     S
N674   Zn684   2.010   .     S
O675   Zn683   1.994   .     S
O676   Zn684   1.994   .     S
O677   Zn683   1.998   .     S
O678   Zn684   1.998   .     S
O679   Zn683   2.004   .     S
O680   Zn684   2.004   .     S
O681   Zn683   2.002   .     S
O682   Zn684   2.002   .     S
C685   C686    1.416   .     S
C685   O754    1.283   .     A
C685   O751    1.281   .     A
C686   C719    1.397   .     A
C686   C716    1.396   .     A
C687   H723    1.082   .     S
C687   N750    1.366   .     A
C687   C1146   1.417   1_545 S
C688   N749    1.366   .     A
C688   H724    1.082   .     S
C688   C917    1.417   .     S
C689   H725    1.082   .     S
C689   N750    1.366   .     A
C689   C1144   1.417   1_545 S
C690   N749    1.367   .     A
C690   H726    1.082   .     S
C690   C915    1.417   .     S
C691   O755    1.282   .     A
C691   O758    1.283   .     A
C691   C697    1.418   .     S
C692   O756    1.282   .     A
C692   C695    1.417   .     S
C692   O757    1.283   .     A
C693   H721    1.081   .     S
C693   C704    1.391   .     A
C693   C695    1.385   .     A
C694   C705    1.393   .     A
C694   H732    1.082   .     S
C694   C697    1.386   .     A
C695   C698    1.387   .     A
C696   O752    1.282   .     A
C696   C720    1.416   .     S
C696   O753    1.282   .     A
C697   C699    1.387   .     A
C698   H742    1.085   .     S
C698   C700    1.385   .     A
C699   C701    1.385   .     A
C699   H743    1.086   .     S
C700   C706    1.398   .     A
C700   C702    1.412   .     A
C701   C703    1.414   .     A
C701   C708    1.398   .     A
C702   C704    1.422   .     A
C702   C19     1.391   1_556 S
C703   C705    1.422   .     A
C704   C715    1.417   .     A
C705   C707    1.419   .     A
C706   H744    1.081   .     S
C706   C23     1.403   1_556 S
C707   C709    1.530   .     S
C708   H745    1.085   .     S
C709   H734    1.112   .     S
C709   C710    1.534   .     S
C709   H733    1.112   .     S
C710   H731    1.110   .     S
C710   H730    1.111   .     S
C710   C863    1.527   1_455 S
C711   H728    1.111   .     S
C711   H729    1.111   .     S
C711   H727    1.111   .     S
C711   C786    1.527   .     S
C712   H740    1.113   .     S
C712   H741    1.111   .     S
C712   C713    1.541   .     S
C712   C715    1.522   .     S
C713   H738    1.108   .     S
C713   H739    1.108   .     S
C713   C790    1.527   .     S
C714   H735    1.111   .     S
C714   H737    1.110   .     S
C714   H736    1.111   .     S
C714   C865    1.527   1_455 S
C715   C24     1.398   1_556 S
C716   H746    1.084   .     S
C716   C870    1.371   1_455 S
C717   C720    1.396   .     A
C717   H747    1.084   .     S
C717   C795    1.370   .     S
C718   H748    1.084   .     S
C718   C720    1.397   .     A
C718   C792    1.371   .     S
C719   H722    1.084   .     S
C719   C869    1.370   1_455 S
N749   Zn759   2.010   .     S
N750   Zn760   2.010   .     S
O751   Zn759   1.994   .     S
O752   Zn760   1.994   .     S
O753   Zn759   1.998   .     S
O754   Zn760   1.998   .     S
O755   Zn759   2.004   .     S
O756   Zn760   2.004   .     S
O757   Zn759   2.002   .     S
O758   Zn760   2.002   .     S
C761   C762    1.416   .     S
C761   O830    1.283   .     A
C761   O827    1.281   .     A
C762   C795    1.397   .     A
C762   C792    1.396   .     A
C763   H799    1.082   .     S
C763   N826    1.366   .     A
C763   C1222   1.417   1_545 S
C764   N825    1.366   .     A
C764   H800    1.082   .     S
C764   C993    1.417   .     S
C765   H801    1.082   .     S
C765   N826    1.366   .     A
C765   C1220   1.417   1_545 S
C766   N825    1.367   .     A
C766   H802    1.082   .     S
C766   C991    1.417   .     S
C767   O831    1.282   .     A
C767   O834    1.283   .     A
C767   C773    1.418   .     S
C768   O832    1.282   .     A
C768   C771    1.417   .     S
C768   O833    1.283   .     A
C769   H797    1.081   .     S
C769   C780    1.391   .     A
C769   C771    1.385   .     A
C770   C781    1.393   .     A
C770   H808    1.082   .     S
C770   C773    1.386   .     A
C771   C774    1.387   .     A
C772   O828    1.282   .     A
C772   C796    1.416   .     S
C772   O829    1.282   .     A
C773   C775    1.387   .     A
C774   H818    1.085   .     S
C774   C776    1.385   .     A
C775   C777    1.385   .     A
C775   H819    1.086   .     S
C776   C782    1.398   .     A
C776   C778    1.412   .     A
C777   C779    1.414   .     A
C777   C784    1.398   .     A
C778   C780    1.422   .     A
C778   C95     1.391   1_556 S
C779   C781    1.422   .     A
C780   C791    1.417   .     A
C781   C783    1.419   .     A
C782   H820    1.081   .     S
C782   C99     1.403   1_556 S
C783   C785    1.530   .     S
C784   H821    1.085   .     S
C785   H810    1.112   .     S
C785   C786    1.534   .     S
C785   H809    1.112   .     S
C786   H807    1.110   .     S
C786   H806    1.111   .     S
C787   H804    1.111   .     S
C787   H805    1.111   .     S
C787   H803    1.111   .     S
C787   C862    1.527   .     S
C788   H816    1.113   .     S
C788   H817    1.111   .     S
C788   C789    1.541   .     S
C788   C791    1.522   .     S
C789   H814    1.108   .     S
C789   H815    1.108   .     S
C789   C866    1.527   .     S
C790   H811    1.111   .     S
C790   H813    1.110   .     S
C790   H812    1.111   .     S
C791   C100    1.398   1_556 S
C792   H822    1.084   .     S
C793   C796    1.396   .     A
C793   H823    1.084   .     S
C793   C871    1.370   .     S
C794   H824    1.084   .     S
C794   C796    1.397   .     A
C794   C868    1.371   .     S
C795   H798    1.084   .     S
N825   Zn835   2.010   .     S
N826   Zn836   2.010   .     S
O827   Zn835   1.994   .     S
O828   Zn836   1.994   .     S
O829   Zn835   1.998   .     S
O830   Zn836   1.998   .     S
O831   Zn835   2.004   .     S
O832   Zn836   2.004   .     S
O833   Zn835   2.002   .     S
O834   Zn836   2.002   .     S
C837   C838    1.416   .     S
C837   O906    1.283   .     A
C837   O903    1.281   .     A
C838   C871    1.397   .     A
C838   C868    1.396   .     A
C839   H875    1.082   .     S
C839   N902    1.366   .     A
C839   C1298   1.417   1_545 S
C840   N901    1.366   .     A
C840   H876    1.082   .     S
C840   C1069   1.417   .     S
C841   H877    1.082   .     S
C841   N902    1.366   .     A
C841   C1296   1.417   1_545 S
C842   N901    1.367   .     A
C842   H878    1.082   .     S
C842   C1067   1.417   .     S
C843   O907    1.282   .     A
C843   O910    1.283   .     A
C843   C849    1.418   .     S
C844   O908    1.282   .     A
C844   C847    1.417   .     S
C844   O909    1.283   .     A
C845   H873    1.081   .     S
C845   C856    1.391   .     A
C845   C847    1.385   .     A
C846   C857    1.393   .     A
C846   H884    1.082   .     S
C846   C849    1.386   .     A
C847   C850    1.387   .     A
C848   O904    1.282   .     A
C848   C872    1.416   .     S
C848   O905    1.282   .     A
C849   C851    1.387   .     A
C850   H894    1.085   .     S
C850   C852    1.385   .     A
C851   C853    1.385   .     A
C851   H895    1.086   .     S
C852   C858    1.398   .     A
C852   C854    1.412   .     A
C853   C855    1.414   .     A
C853   C860    1.398   .     A
C854   C856    1.422   .     A
C854   C171    1.391   1_556 S
C855   C857    1.422   .     A
C856   C867    1.417   .     A
C857   C859    1.419   .     A
C858   H896    1.081   .     S
C858   C175    1.403   1_556 S
C859   C861    1.530   .     S
C860   H897    1.085   .     S
C861   H886    1.112   .     S
C861   C862    1.534   .     S
C861   H885    1.112   .     S
C862   H883    1.110   .     S
C862   H882    1.111   .     S
C863   H880    1.111   .     S
C863   H881    1.111   .     S
C863   H879    1.111   .     S
C863   C710    1.527   1_655 S
C864   H892    1.113   .     S
C864   H893    1.111   .     S
C864   C865    1.541   .     S
C864   C867    1.522   .     S
C865   H890    1.108   .     S
C865   H891    1.108   .     S
C865   C714    1.527   1_655 S
C866   H887    1.111   .     S
C866   H889    1.110   .     S
C866   H888    1.111   .     S
C867   C176    1.398   1_556 S
C868   H898    1.084   .     S
C869   C872    1.396   .     A
C869   H899    1.084   .     S
C869   C719    1.370   1_655 S
C870   H900    1.084   .     S
C870   C872    1.397   .     A
C870   C716    1.371   1_655 S
C871   H874    1.084   .     S
N901   Zn911   2.010   .     S
N902   Zn912   2.010   .     S
O903   Zn911   1.994   .     S
O904   Zn912   1.994   .     S
O905   Zn911   1.998   .     S
O906   Zn912   1.998   .     S
O907   Zn911   2.004   .     S
O908   Zn912   2.004   .     S
O909   Zn911   2.002   .     S
O910   Zn912   2.002   .     S
C913   C914    1.416   .     S
C913   O982    1.283   .     A
C913   O979    1.281   .     A
C914   C947    1.397   .     A
C914   C944    1.396   .     A
C915   H951    1.082   .     S
C915   N978    1.366   .     A
C916   N977    1.366   .     A
C916   H952    1.082   .     S
C916   C1145   1.417   .     S
C917   H953    1.082   .     S
C917   N978    1.366   .     A
C918   N977    1.367   .     A
C918   H954    1.082   .     S
C918   C1143   1.417   .     S
C919   O983    1.282   .     A
C919   O986    1.283   .     A
C919   C925    1.418   .     S
C920   O984    1.282   .     A
C920   C923    1.417   .     S
C920   O985    1.283   .     A
C921   H949    1.081   .     S
C921   C932    1.391   .     A
C921   C923    1.385   .     A
C922   C933    1.393   .     A
C922   H960    1.082   .     S
C922   C925    1.386   .     A
C923   C926    1.387   .     A
C924   O980    1.282   .     A
C924   C948    1.416   .     S
C924   O981    1.282   .     A
C925   C927    1.387   .     A
C926   H970    1.085   .     S
C926   C928    1.385   .     A
C927   C929    1.385   .     A
C927   H971    1.086   .     S
C928   C934    1.398   .     A
C928   C930    1.412   .     A
C929   C931    1.414   .     A
C929   C936    1.398   .     A
C930   C932    1.422   .     A
C930   C247    1.391   1_556 S
C931   C933    1.422   .     A
C932   C943    1.417   .     A
C933   C935    1.419   .     A
C934   H972    1.081   .     S
C934   C251    1.403   1_556 S
C935   C937    1.530   .     S
C936   H973    1.085   .     S
C937   H962    1.112   .     S
C937   C938    1.534   .     S
C937   H961    1.112   .     S
C938   H959    1.110   .     S
C938   H958    1.111   .     S
C938   C1091   1.527   1_455 S
C939   H956    1.111   .     S
C939   H957    1.111   .     S
C939   H955    1.111   .     S
C939   C1014   1.527   .     S
C940   H968    1.113   .     S
C940   H969    1.111   .     S
C940   C941    1.541   .     S
C940   C943    1.522   .     S
C941   H966    1.108   .     S
C941   H967    1.108   .     S
C941   C1018   1.527   .     S
C942   H963    1.111   .     S
C942   H965    1.110   .     S
C942   H964    1.111   .     S
C942   C1093   1.527   1_455 S
C943   C252    1.398   1_556 S
C944   H974    1.084   .     S
C944   C1098   1.371   1_455 S
C945   C948    1.396   .     A
C945   H975    1.084   .     S
C945   C1023   1.370   .     S
C946   H976    1.084   .     S
C946   C948    1.397   .     A
C946   C1020   1.371   .     S
C947   H950    1.084   .     S
C947   C1097   1.370   1_455 S
N977   Zn987   2.010   .     S
N978   Zn988   2.010   .     S
O979   Zn987   1.994   .     S
O980   Zn988   1.994   .     S
O981   Zn987   1.998   .     S
O982   Zn988   1.998   .     S
O983   Zn987   2.004   .     S
O984   Zn988   2.004   .     S
O985   Zn987   2.002   .     S
O986   Zn988   2.002   .     S
C989   C990    1.416   .     S
C989   O1058   1.283   .     A
C989   O1055   1.281   .     A
C990   C1023   1.397   .     A
C990   C1020   1.396   .     A
C991   H1027   1.082   .     S
C991   N1054   1.366   .     A
C992   N1053   1.366   .     A
C992   H1028   1.082   .     S
C992   C1221   1.417   .     S
C993   H1029   1.082   .     S
C993   N1054   1.366   .     A
C994   N1053   1.367   .     A
C994   H1030   1.082   .     S
C994   C1219   1.417   .     S
C995   O1059   1.282   .     A
C995   O1062   1.283   .     A
C995   C1001   1.418   .     S
C996   O1060   1.282   .     A
C996   C999    1.417   .     S
C996   O1061   1.283   .     A
C997   H1025   1.081   .     S
C997   C1008   1.391   .     A
C997   C999    1.385   .     A
C998   C1009   1.393   .     A
C998   H1036   1.082   .     S
C998   C1001   1.386   .     A
C999   C1002   1.387   .     A
C1000  O1056   1.282   .     A
C1000  C1024   1.416   .     S
C1000  O1057   1.282   .     A
C1001  C1003   1.387   .     A
C1002  H1046   1.085   .     S
C1002  C1004   1.385   .     A
C1003  C1005   1.385   .     A
C1003  H1047   1.086   .     S
C1004  C1010   1.398   .     A
C1004  C1006   1.412   .     A
C1005  C1007   1.414   .     A
C1005  C1012   1.398   .     A
C1006  C1008   1.422   .     A
C1006  C323    1.391   1_556 S
C1007  C1009   1.422   .     A
C1008  C1019   1.417   .     A
C1009  C1011   1.419   .     A
C1010  H1048   1.081   .     S
C1010  C327    1.403   1_556 S
C1011  C1013   1.530   .     S
C1012  H1049   1.085   .     S
C1013  H1038   1.112   .     S
C1013  C1014   1.534   .     S
C1013  H1037   1.112   .     S
C1014  H1035   1.110   .     S
C1014  H1034   1.111   .     S
C1015  H1032   1.111   .     S
C1015  H1033   1.111   .     S
C1015  H1031   1.111   .     S
C1015  C1090   1.527   .     S
C1016  H1044   1.113   .     S
C1016  H1045   1.111   .     S
C1016  C1017   1.541   .     S
C1016  C1019   1.522   .     S
C1017  H1042   1.108   .     S
C1017  H1043   1.108   .     S
C1017  C1094   1.527   .     S
C1018  H1039   1.111   .     S
C1018  H1041   1.110   .     S
C1018  H1040   1.111   .     S
C1019  C328    1.398   1_556 S
C1020  H1050   1.084   .     S
C1021  C1024   1.396   .     A
C1021  H1051   1.084   .     S
C1021  C1099   1.370   .     S
C1022  H1052   1.084   .     S
C1022  C1024   1.397   .     A
C1022  C1096   1.371   .     S
C1023  H1026   1.084   .     S
N1053  Zn1063  2.010   .     S
N1054  Zn1064  2.010   .     S
O1055  Zn1063  1.994   .     S
O1056  Zn1064  1.994   .     S
O1057  Zn1063  1.998   .     S
O1058  Zn1064  1.998   .     S
O1059  Zn1063  2.004   .     S
O1060  Zn1064  2.004   .     S
O1061  Zn1063  2.002   .     S
O1062  Zn1064  2.002   .     S
C1065  C1066   1.416   .     S
C1065  O1134   1.283   .     A
C1065  O1131   1.281   .     A
C1066  C1099   1.397   .     A
C1066  C1096   1.396   .     A
C1067  H1103   1.082   .     S
C1067  N1130   1.366   .     A
C1068  N1129   1.366   .     A
C1068  H1104   1.082   .     S
C1068  C1297   1.417   .     S
C1069  H1105   1.082   .     S
C1069  N1130   1.366   .     A
C1070  N1129   1.367   .     A
C1070  H1106   1.082   .     S
C1070  C1295   1.417   .     S
C1071  O1135   1.282   .     A
C1071  O1138   1.283   .     A
C1071  C1077   1.418   .     S
C1072  O1136   1.282   .     A
C1072  C1075   1.417   .     S
C1072  O1137   1.283   .     A
C1073  H1101   1.081   .     S
C1073  C1084   1.391   .     A
C1073  C1075   1.385   .     A
C1074  C1085   1.393   .     A
C1074  H1112   1.082   .     S
C1074  C1077   1.386   .     A
C1075  C1078   1.387   .     A
C1076  O1132   1.282   .     A
C1076  C1100   1.416   .     S
C1076  O1133   1.282   .     A
C1077  C1079   1.387   .     A
C1078  H1122   1.085   .     S
C1078  C1080   1.385   .     A
C1079  C1081   1.385   .     A
C1079  H1123   1.086   .     S
C1080  C1086   1.398   .     A
C1080  C1082   1.412   .     A
C1081  C1083   1.414   .     A
C1081  C1088   1.398   .     A
C1082  C1084   1.422   .     A
C1082  C399    1.391   1_556 S
C1083  C1085   1.422   .     A
C1084  C1095   1.417   .     A
C1085  C1087   1.419   .     A
C1086  H1124   1.081   .     S
C1086  C403    1.403   1_556 S
C1087  C1089   1.530   .     S
C1088  H1125   1.085   .     S
C1089  H1114   1.112   .     S
C1089  C1090   1.534   .     S
C1089  H1113   1.112   .     S
C1090  H1111   1.110   .     S
C1090  H1110   1.111   .     S
C1091  H1108   1.111   .     S
C1091  H1109   1.111   .     S
C1091  H1107   1.111   .     S
C1091  C938    1.527   1_655 S
C1092  H1120   1.113   .     S
C1092  H1121   1.111   .     S
C1092  C1093   1.541   .     S
C1092  C1095   1.522   .     S
C1093  H1118   1.108   .     S
C1093  H1119   1.108   .     S
C1093  C942    1.527   1_655 S
C1094  H1115   1.111   .     S
C1094  H1117   1.110   .     S
C1094  H1116   1.111   .     S
C1095  C404    1.398   1_556 S
C1096  H1126   1.084   .     S
C1097  C1100   1.396   .     A
C1097  H1127   1.084   .     S
C1097  C947    1.370   1_655 S
C1098  H1128   1.084   .     S
C1098  C1100   1.397   .     A
C1098  C944    1.371   1_655 S
C1099  H1102   1.084   .     S
N1129  Zn1139  2.010   .     S
N1130  Zn1140  2.010   .     S
O1131  Zn1139  1.994   .     S
O1132  Zn1140  1.994   .     S
O1133  Zn1139  1.998   .     S
O1134  Zn1140  1.998   .     S
O1135  Zn1139  2.004   .     S
O1136  Zn1140  2.004   .     S
O1137  Zn1139  2.002   .     S
O1138  Zn1140  2.002   .     S
C1141  C1142   1.416   .     S
C1141  O1210   1.283   .     A
C1141  O1207   1.281   .     A
C1142  C1175   1.397   .     A
C1142  C1172   1.396   .     A
C1143  H1179   1.082   .     S
C1143  N1206   1.366   .     A
C1144  N1205   1.366   .     A
C1144  H1180   1.082   .     S
C1144  C689    1.417   1_565 S
C1145  H1181   1.082   .     S
C1145  N1206   1.366   .     A
C1146  N1205   1.367   .     A
C1146  H1182   1.082   .     S
C1146  C687    1.417   1_565 S
C1147  O1211   1.282   .     A
C1147  O1214   1.283   .     A
C1147  C1153   1.418   .     S
C1148  O1212   1.282   .     A
C1148  C1151   1.417   .     S
C1148  O1213   1.283   .     A
C1149  H1177   1.081   .     S
C1149  C1160   1.391   .     A
C1149  C1151   1.385   .     A
C1150  C1161   1.393   .     A
C1150  H1188   1.082   .     S
C1150  C1153   1.386   .     A
C1151  C1154   1.387   .     A
C1152  O1208   1.282   .     A
C1152  C1176   1.416   .     S
C1152  O1209   1.282   .     A
C1153  C1155   1.387   .     A
C1154  H1198   1.085   .     S
C1154  C1156   1.385   .     A
C1155  C1157   1.385   .     A
C1155  H1199   1.086   .     S
C1156  C1162   1.398   .     A
C1156  C1158   1.412   .     A
C1157  C1159   1.414   .     A
C1157  C1164   1.398   .     A
C1158  C1160   1.422   .     A
C1158  C475    1.391   1_556 S
C1159  C1161   1.422   .     A
C1160  C1171   1.417   .     A
C1161  C1163   1.419   .     A
C1162  H1200   1.081   .     S
C1162  C479    1.403   1_556 S
C1163  C1165   1.530   .     S
C1164  H1201   1.085   .     S
C1165  H1190   1.112   .     S
C1165  C1166   1.534   .     S
C1165  H1189   1.112   .     S
C1166  H1187   1.110   .     S
C1166  H1186   1.111   .     S
C1166  C1319   1.527   1_455 S
C1167  H1184   1.111   .     S
C1167  H1185   1.111   .     S
C1167  H1183   1.111   .     S
C1167  C1242   1.527   .     S
C1168  H1196   1.113   .     S
C1168  H1197   1.111   .     S
C1168  C1169   1.541   .     S
C1168  C1171   1.522   .     S
C1169  H1194   1.108   .     S
C1169  H1195   1.108   .     S
C1169  C1246   1.527   .     S
C1170  H1191   1.111   .     S
C1170  H1193   1.110   .     S
C1170  H1192   1.111   .     S
C1170  C1321   1.527   1_455 S
C1171  C480    1.398   1_556 S
C1172  H1202   1.084   .     S
C1172  C1326   1.371   1_455 S
C1173  C1176   1.396   .     A
C1173  H1203   1.084   .     S
C1173  C1251   1.370   .     S
C1174  H1204   1.084   .     S
C1174  C1176   1.397   .     A
C1174  C1248   1.371   .     S
C1175  H1178   1.084   .     S
C1175  C1325   1.370   1_455 S
N1205  Zn1215  2.010   .     S
N1206  Zn1216  2.010   .     S
O1207  Zn1215  1.994   .     S
O1208  Zn1216  1.994   .     S
O1209  Zn1215  1.998   .     S
O1210  Zn1216  1.998   .     S
O1211  Zn1215  2.004   .     S
O1212  Zn1216  2.004   .     S
O1213  Zn1215  2.002   .     S
O1214  Zn1216  2.002   .     S
C1217  C1218   1.416   .     S
C1217  O1286   1.283   .     A
C1217  O1283   1.281   .     A
C1218  C1251   1.397   .     A
C1218  C1248   1.396   .     A
C1219  H1255   1.082   .     S
C1219  N1282   1.366   .     A
C1220  N1281   1.366   .     A
C1220  H1256   1.082   .     S
C1220  C765    1.417   1_565 S
C1221  H1257   1.082   .     S
C1221  N1282   1.366   .     A
C1222  N1281   1.367   .     A
C1222  H1258   1.082   .     S
C1222  C763    1.417   1_565 S
C1223  O1287   1.282   .     A
C1223  O1290   1.283   .     A
C1223  C1229   1.418   .     S
C1224  O1288   1.282   .     A
C1224  C1227   1.417   .     S
C1224  O1289   1.283   .     A
C1225  H1253   1.081   .     S
C1225  C1236   1.391   .     A
C1225  C1227   1.385   .     A
C1226  C1237   1.393   .     A
C1226  H1264   1.082   .     S
C1226  C1229   1.386   .     A
C1227  C1230   1.387   .     A
C1228  O1284   1.282   .     A
C1228  C1252   1.416   .     S
C1228  O1285   1.282   .     A
C1229  C1231   1.387   .     A
C1230  H1274   1.085   .     S
C1230  C1232   1.385   .     A
C1231  C1233   1.385   .     A
C1231  H1275   1.086   .     S
C1232  C1238   1.398   .     A
C1232  C1234   1.412   .     A
C1233  C1235   1.414   .     A
C1233  C1240   1.398   .     A
C1234  C1236   1.422   .     A
C1234  C551    1.391   1_556 S
C1235  C1237   1.422   .     A
C1236  C1247   1.417   .     A
C1237  C1239   1.419   .     A
C1238  H1276   1.081   .     S
C1238  C555    1.403   1_556 S
C1239  C1241   1.530   .     S
C1240  H1277   1.085   .     S
C1241  H1266   1.112   .     S
C1241  C1242   1.534   .     S
C1241  H1265   1.112   .     S
C1242  H1263   1.110   .     S
C1242  H1262   1.111   .     S
C1243  H1260   1.111   .     S
C1243  H1261   1.111   .     S
C1243  H1259   1.111   .     S
C1243  C1318   1.527   .     S
C1244  H1272   1.113   .     S
C1244  H1273   1.111   .     S
C1244  C1245   1.541   .     S
C1244  C1247   1.522   .     S
C1245  H1270   1.108   .     S
C1245  H1271   1.108   .     S
C1245  C1322   1.527   .     S
C1246  H1267   1.111   .     S
C1246  H1269   1.110   .     S
C1246  H1268   1.111   .     S
C1247  C556    1.398   1_556 S
C1248  H1278   1.084   .     S
C1249  C1252   1.396   .     A
C1249  H1279   1.084   .     S
C1249  C1327   1.370   .     S
C1250  H1280   1.084   .     S
C1250  C1252   1.397   .     A
C1250  C1324   1.371   .     S
C1251  H1254   1.084   .     S
N1281  Zn1291  2.010   .     S
N1282  Zn1292  2.010   .     S
O1283  Zn1291  1.994   .     S
O1284  Zn1292  1.994   .     S
O1285  Zn1291  1.998   .     S
O1286  Zn1292  1.998   .     S
O1287  Zn1291  2.004   .     S
O1288  Zn1292  2.004   .     S
O1289  Zn1291  2.002   .     S
O1290  Zn1292  2.002   .     S
C1293  C1294   1.416   .     S
C1293  O1362   1.283   .     A
C1293  O1359   1.281   .     A
C1294  C1327   1.397   .     A
C1294  C1324   1.396   .     A
C1295  H1331   1.082   .     S
C1295  N1358   1.366   .     A
C1296  N1357   1.366   .     A
C1296  H1332   1.082   .     S
C1296  C841    1.417   1_565 S
C1297  H1333   1.082   .     S
C1297  N1358   1.366   .     A
C1298  N1357   1.367   .     A
C1298  H1334   1.082   .     S
C1298  C839    1.417   1_565 S
C1299  O1363   1.282   .     A
C1299  O1366   1.283   .     A
C1299  C1305   1.418   .     S
C1300  O1364   1.282   .     A
C1300  C1303   1.417   .     S
C1300  O1365   1.283   .     A
C1301  H1329   1.081   .     S
C1301  C1312   1.391   .     A
C1301  C1303   1.385   .     A
C1302  C1313   1.393   .     A
C1302  H1340   1.082   .     S
C1302  C1305   1.386   .     A
C1303  C1306   1.387   .     A
C1304  O1360   1.282   .     A
C1304  C1328   1.416   .     S
C1304  O1361   1.282   .     A
C1305  C1307   1.387   .     A
C1306  H1350   1.085   .     S
C1306  C1308   1.385   .     A
C1307  C1309   1.385   .     A
C1307  H1351   1.086   .     S
C1308  C1314   1.398   .     A
C1308  C1310   1.412   .     A
C1309  C1311   1.414   .     A
C1309  C1316   1.398   .     A
C1310  C1312   1.422   .     A
C1310  C627    1.391   1_556 S
C1311  C1313   1.422   .     A
C1312  C1323   1.417   .     A
C1313  C1315   1.419   .     A
C1314  H1352   1.081   .     S
C1314  C631    1.403   1_556 S
C1315  C1317   1.530   .     S
C1316  H1353   1.085   .     S
C1317  H1342   1.112   .     S
C1317  C1318   1.534   .     S
C1317  H1341   1.112   .     S
C1318  H1339   1.110   .     S
C1318  H1338   1.111   .     S
C1319  H1336   1.111   .     S
C1319  H1337   1.111   .     S
C1319  H1335   1.111   .     S
C1319  C1166   1.527   1_655 S
C1320  H1348   1.113   .     S
C1320  H1349   1.111   .     S
C1320  C1321   1.541   .     S
C1320  C1323   1.522   .     S
C1321  H1346   1.108   .     S
C1321  H1347   1.108   .     S
C1321  C1170   1.527   1_655 S
C1322  H1343   1.111   .     S
C1322  H1345   1.110   .     S
C1322  H1344   1.111   .     S
C1323  C632    1.398   1_556 S
C1324  H1354   1.084   .     S
C1325  C1328   1.396   .     A
C1325  H1355   1.084   .     S
C1325  C1175   1.370   1_655 S
C1326  H1356   1.084   .     S
C1326  C1328   1.397   .     A
C1326  C1172   1.371   1_655 S
C1327  H1330   1.084   .     S
N1357  Zn1367  2.010   .     S
N1358  Zn1368  2.010   .     S
O1359  Zn1367  1.994   .     S
O1360  Zn1368  1.994   .     S
O1361  Zn1367  1.998   .     S
O1362  Zn1368  1.998   .     S
O1363  Zn1367  2.004   .     S
O1364  Zn1368  2.004   .     S
O1365  Zn1367  2.002   .     S
O1366  Zn1368  2.002   .     S
