data_str_m3_o1_o2_pcu_sym.83
_audit_creation_date              2020-01-03
_audit_creation_method            'Materials Studio'
_symmetry_space_group_name_H-M    'P1'
_symmetry_Int_Tables_number       1
_symmetry_cell_setting            triclinic
loop_
_symmetry_equiv_pos_as_xyz
  x,y,z
_cell_length_a                    32.1258
_cell_length_b                    29.4650
_cell_length_c                    30.0224
_cell_angle_alpha                 90.0208
_cell_angle_beta                  90.1350
_cell_angle_gamma                 89.9765
loop_
_atom_site_label
_atom_site_type_symbol
_atom_site_fract_x
_atom_site_fract_y
_atom_site_fract_z
_atom_site_U_iso_or_equiv
_atom_site_adp_type
_atom_site_occupancy
C1     C     0.08661   0.16668   0.25006   0.00000  Uiso   1.00
C2     C     0.31197   0.20656   0.23900   0.00000  Uiso   1.00
C3     C     0.31205   0.12676   0.26077   0.00000  Uiso   1.00
C4     C     0.02128   0.20660   0.23917   0.00000  Uiso   1.00
C5     C     0.18842   0.20237   0.04705   0.00000  Uiso   1.00
C6     C     0.18729   0.13114   0.45333   0.00000  Uiso   1.00
C7     C     0.15017   0.20301   0.45375   0.00000  Uiso   1.00
C8     C     0.15067   0.13092   0.04601   0.00000  Uiso   1.00
C9     C     0.18867   0.20196   0.09316   0.00000  Uiso   1.00
C10    C     0.18578   0.12994   0.40716   0.00000  Uiso   1.00
C11    C     0.14810   0.20247   0.40769   0.00000  Uiso   1.00
C12    C     0.24672   0.16666   0.24992   0.00000  Uiso   1.00
C13    C     0.15034   0.12988   0.09220   0.00000  Uiso   1.00
C14    C     0.16832   0.16635   0.11581   0.00000  Uiso   1.00
C15    C     0.16702   0.16644   0.38424   0.00000  Uiso   1.00
C16    C     0.16965   0.16689   0.02390   0.00000  Uiso   1.00
C17    C     0.16938   0.16731   0.47616   0.00000  Uiso   1.00
C18    C     0.29085   0.16665   0.24985   0.00000  Uiso   1.00
C19    C     0.04248   0.16671   0.25008   0.00000  Uiso   1.00
C20    C     0.24960   0.22606   0.12301   0.00000  Uiso   1.00
C21    C     0.18443   0.05462   0.38980   0.00000  Uiso   1.00
C22    C     0.08640   0.22730   0.38033   0.00000  Uiso   1.00
C23    C     0.16684   0.16662   0.16385   0.00000  Uiso   1.00
C24    C     0.15017   0.05451   0.10948   0.00000  Uiso   1.00
C25    C     0.16680   0.16664   0.33616   0.00000  Uiso   1.00
C26    C     0.14003   0.02403   0.27678   0.00000  Uiso   1.00
C27    C     0.19329   0.30931   0.22321   0.00000  Uiso   1.00
C28    C     0.19331   0.02398   0.22323   0.00000  Uiso   1.00
C29    C     0.14005   0.30935   0.27680   0.00000  Uiso   1.00
C30    C     0.02135   0.12679   0.26089   0.00000  Uiso   1.00
H31    H     0.11876   0.04228   0.29817   0.00000  Uiso   1.00
H32    H     0.29564   0.23747   0.23012   0.00000  Uiso   1.00
H33    H     0.29579   0.09582   0.26953   0.00000  Uiso   1.00
H34    H     0.03754   0.23755   0.23043   0.00000  Uiso   1.00
H35    H     0.26649   0.22185   0.09094   0.00000  Uiso   1.00
H36    H     0.26469   0.25423   0.14149   0.00000  Uiso   1.00
H37    H     0.25272   0.19489   0.14370   0.00000  Uiso   1.00
H38    H     0.19775   0.02905   0.36672   0.00000  Uiso   1.00
H39    H     0.15082   0.05830   0.38129   0.00000  Uiso   1.00
H40    H     0.18810   0.04130   0.42421   0.00000  Uiso   1.00
H41    H     0.07063   0.22320   0.41307   0.00000  Uiso   1.00
H42    H     0.21457   0.29106   0.20184   0.00000  Uiso   1.00
H43    H     0.07092   0.25569   0.36256   0.00000  Uiso   1.00
H44    H     0.08225   0.19621   0.35969   0.00000  Uiso   1.00
H45    H     0.13597   0.02924   0.13222   0.00000  Uiso   1.00
H46    H     0.18361   0.05769   0.11894   0.00000  Uiso   1.00
H47    H     0.14719   0.04113   0.07500   0.00000  Uiso   1.00
H48    H     0.21459   0.04220   0.20185   0.00000  Uiso   1.00
H49    H     0.11878   0.29114   0.29819   0.00000  Uiso   1.00
H50    H     0.20323   0.23003   0.02933   0.00000  Uiso   1.00
H51    H     0.20296   0.10427   0.47146   0.00000  Uiso   1.00
H52    H     0.13608   0.23076   0.47203   0.00000  Uiso   1.00
H53    H     0.13525   0.10431   0.02728   0.00000  Uiso   1.00
H54    H     0.03767   0.09586   0.26971   0.00000  Uiso   1.00
N55    N     0.16667   0.28573   0.25000   0.00000  Uiso   1.00
N56    N     0.16667   0.04760   0.25000   0.00000  Uiso   1.00
O57    O     0.10559   0.20487   0.25000   0.00000  Uiso   1.00
O58    O     0.20627   0.09578   0.38426   0.00000  Uiso   1.00
O59    O     0.12886   0.23809   0.38584   0.00000  Uiso   1.00
O60    O     0.12871   0.09603   0.11429   0.00000  Uiso   1.00
O61    O     0.22774   0.12846   0.25001   0.00000  Uiso   1.00
O62    O     0.22774   0.20487   0.25001   0.00000  Uiso   1.00
O63    O     0.10559   0.12846   0.25000   0.00000  Uiso   1.00
O64    O     0.16666   0.20489   0.18453   0.00000  Uiso   1.00
O65    O     0.16667   0.12845   0.31547   0.00000  Uiso   1.00
O66    O     0.16667   0.20489   0.31547   0.00000  Uiso   1.00
O67    O     0.16666   0.12845   0.18453   0.00000  Uiso   1.00
O68    O     0.20746   0.23736   0.11579   0.00000  Uiso   1.00
Zn69   Zn    0.16667   0.21771   0.25000   0.00000  Uiso   1.00
Zn70   Zn    0.16667   0.11563   0.25000   0.00000  Uiso   1.00
C71    C     0.41994   0.16668   0.25006   0.00000  Uiso   1.00
C72    C     0.64530   0.20656   0.23900   0.00000  Uiso   1.00
C73    C     0.64538   0.12676   0.26077   0.00000  Uiso   1.00
C74    C     0.35461   0.20660   0.23917   0.00000  Uiso   1.00
C75    C     0.52175   0.20237   0.04705   0.00000  Uiso   1.00
C76    C     0.52063   0.13114   0.45333   0.00000  Uiso   1.00
C77    C     0.48350   0.20301   0.45375   0.00000  Uiso   1.00
C78    C     0.48400   0.13092   0.04601   0.00000  Uiso   1.00
C79    C     0.52200   0.20196   0.09316   0.00000  Uiso   1.00
C80    C     0.51911   0.12994   0.40716   0.00000  Uiso   1.00
C81    C     0.48143   0.20247   0.40769   0.00000  Uiso   1.00
C82    C     0.58005   0.16666   0.24992   0.00000  Uiso   1.00
C83    C     0.48367   0.12988   0.09220   0.00000  Uiso   1.00
C84    C     0.50166   0.16635   0.11581   0.00000  Uiso   1.00
C85    C     0.50035   0.16644   0.38424   0.00000  Uiso   1.00
C86    C     0.50298   0.16689   0.02390   0.00000  Uiso   1.00
C87    C     0.50271   0.16731   0.47616   0.00000  Uiso   1.00
C88    C     0.62418   0.16665   0.24985   0.00000  Uiso   1.00
C89    C     0.37581   0.16671   0.25008   0.00000  Uiso   1.00
C90    C     0.58293   0.22606   0.12301   0.00000  Uiso   1.00
C91    C     0.51777   0.05462   0.38980   0.00000  Uiso   1.00
C92    C     0.41973   0.22730   0.38033   0.00000  Uiso   1.00
C93    C     0.50017   0.16662   0.16385   0.00000  Uiso   1.00
C94    C     0.48350   0.05451   0.10948   0.00000  Uiso   1.00
C95    C     0.50013   0.16664   0.33616   0.00000  Uiso   1.00
C96    C     0.47336   0.02403   0.27678   0.00000  Uiso   1.00
C97    C     0.52663   0.30931   0.22321   0.00000  Uiso   1.00
C98    C     0.52664   0.02398   0.22323   0.00000  Uiso   1.00
C99    C     0.47338   0.30935   0.27680   0.00000  Uiso   1.00
C100   C     0.35469   0.12679   0.26089   0.00000  Uiso   1.00
H101   H     0.45209   0.04228   0.29817   0.00000  Uiso   1.00
H102   H     0.62898   0.23747   0.23012   0.00000  Uiso   1.00
H103   H     0.62913   0.09582   0.26953   0.00000  Uiso   1.00
H104   H     0.37087   0.23755   0.23043   0.00000  Uiso   1.00
H105   H     0.59982   0.22185   0.09094   0.00000  Uiso   1.00
H106   H     0.59802   0.25423   0.14149   0.00000  Uiso   1.00
H107   H     0.58606   0.19489   0.14370   0.00000  Uiso   1.00
H108   H     0.53108   0.02905   0.36672   0.00000  Uiso   1.00
H109   H     0.48415   0.05830   0.38129   0.00000  Uiso   1.00
H110   H     0.52143   0.04130   0.42421   0.00000  Uiso   1.00
H111   H     0.40396   0.22320   0.41307   0.00000  Uiso   1.00
H112   H     0.54790   0.29106   0.20184   0.00000  Uiso   1.00
H113   H     0.40425   0.25569   0.36256   0.00000  Uiso   1.00
H114   H     0.41558   0.19621   0.35969   0.00000  Uiso   1.00
H115   H     0.46930   0.02924   0.13222   0.00000  Uiso   1.00
H116   H     0.51694   0.05769   0.11894   0.00000  Uiso   1.00
H117   H     0.48053   0.04113   0.07500   0.00000  Uiso   1.00
H118   H     0.54792   0.04220   0.20185   0.00000  Uiso   1.00
H119   H     0.45212   0.29114   0.29819   0.00000  Uiso   1.00
H120   H     0.53656   0.23003   0.02933   0.00000  Uiso   1.00
H121   H     0.53629   0.10427   0.47146   0.00000  Uiso   1.00
H122   H     0.46942   0.23076   0.47203   0.00000  Uiso   1.00
H123   H     0.46858   0.10431   0.02728   0.00000  Uiso   1.00
H124   H     0.37100   0.09586   0.26971   0.00000  Uiso   1.00
N125   N     0.50000   0.28573   0.25000   0.00000  Uiso   1.00
N126   N     0.50000   0.04760   0.25000   0.00000  Uiso   1.00
O127   O     0.43892   0.20487   0.25000   0.00000  Uiso   1.00
O128   O     0.53960   0.09578   0.38426   0.00000  Uiso   1.00
O129   O     0.46219   0.23809   0.38584   0.00000  Uiso   1.00
O130   O     0.46204   0.09603   0.11429   0.00000  Uiso   1.00
O131   O     0.56108   0.12846   0.25001   0.00000  Uiso   1.00
O132   O     0.56108   0.20487   0.25001   0.00000  Uiso   1.00
O133   O     0.43892   0.12846   0.25000   0.00000  Uiso   1.00
O134   O     0.50000   0.20489   0.18453   0.00000  Uiso   1.00
O135   O     0.50000   0.12845   0.31547   0.00000  Uiso   1.00
O136   O     0.50000   0.20489   0.31547   0.00000  Uiso   1.00
O137   O     0.50000   0.12845   0.18453   0.00000  Uiso   1.00
O138   O     0.54079   0.23736   0.11579   0.00000  Uiso   1.00
Zn139  Zn    0.50000   0.21771   0.25000   0.00000  Uiso   1.00
Zn140  Zn    0.50000   0.11563   0.25000   0.00000  Uiso   1.00
C141   C     0.75328   0.16668   0.25006   0.00000  Uiso   1.00
C142   C     0.97863   0.20656   0.23900   0.00000  Uiso   1.00
C143   C     0.97871   0.12676   0.26077   0.00000  Uiso   1.00
C144   C     0.68795   0.20660   0.23917   0.00000  Uiso   1.00
C145   C     0.85509   0.20237   0.04705   0.00000  Uiso   1.00
C146   C     0.85396   0.13114   0.45333   0.00000  Uiso   1.00
C147   C     0.81683   0.20301   0.45375   0.00000  Uiso   1.00
C148   C     0.81733   0.13092   0.04601   0.00000  Uiso   1.00
C149   C     0.85534   0.20196   0.09316   0.00000  Uiso   1.00
C150   C     0.85245   0.12994   0.40716   0.00000  Uiso   1.00
C151   C     0.81477   0.20247   0.40769   0.00000  Uiso   1.00
C152   C     0.91339   0.16666   0.24992   0.00000  Uiso   1.00
C153   C     0.81701   0.12988   0.09220   0.00000  Uiso   1.00
C154   C     0.83499   0.16635   0.11581   0.00000  Uiso   1.00
C155   C     0.83368   0.16644   0.38424   0.00000  Uiso   1.00
C156   C     0.83631   0.16689   0.02390   0.00000  Uiso   1.00
C157   C     0.83604   0.16731   0.47616   0.00000  Uiso   1.00
C158   C     0.95752   0.16665   0.24985   0.00000  Uiso   1.00
C159   C     0.70914   0.16671   0.25008   0.00000  Uiso   1.00
C160   C     0.91626   0.22606   0.12301   0.00000  Uiso   1.00
C161   C     0.85110   0.05462   0.38980   0.00000  Uiso   1.00
C162   C     0.75306   0.22730   0.38033   0.00000  Uiso   1.00
C163   C     0.83350   0.16662   0.16385   0.00000  Uiso   1.00
C164   C     0.81684   0.05451   0.10948   0.00000  Uiso   1.00
C165   C     0.83347   0.16664   0.33616   0.00000  Uiso   1.00
C166   C     0.80670   0.02403   0.27678   0.00000  Uiso   1.00
C167   C     0.85996   0.30931   0.22321   0.00000  Uiso   1.00
C168   C     0.85998   0.02398   0.22323   0.00000  Uiso   1.00
C169   C     0.80671   0.30935   0.27680   0.00000  Uiso   1.00
C170   C     0.68802   0.12679   0.26089   0.00000  Uiso   1.00
H171   H     0.78542   0.04228   0.29817   0.00000  Uiso   1.00
H172   H     0.96231   0.23747   0.23012   0.00000  Uiso   1.00
H173   H     0.96246   0.09582   0.26953   0.00000  Uiso   1.00
H174   H     0.70420   0.23755   0.23043   0.00000  Uiso   1.00
H175   H     0.93315   0.22185   0.09094   0.00000  Uiso   1.00
H176   H     0.93136   0.25423   0.14149   0.00000  Uiso   1.00
H177   H     0.91939   0.19489   0.14370   0.00000  Uiso   1.00
H178   H     0.86441   0.02905   0.36672   0.00000  Uiso   1.00
H179   H     0.81749   0.05830   0.38129   0.00000  Uiso   1.00
H180   H     0.85477   0.04130   0.42421   0.00000  Uiso   1.00
H181   H     0.73730   0.22320   0.41307   0.00000  Uiso   1.00
H182   H     0.88124   0.29106   0.20184   0.00000  Uiso   1.00
H183   H     0.73758   0.25569   0.36256   0.00000  Uiso   1.00
H184   H     0.74891   0.19621   0.35969   0.00000  Uiso   1.00
H185   H     0.80263   0.02924   0.13222   0.00000  Uiso   1.00
H186   H     0.85027   0.05769   0.11894   0.00000  Uiso   1.00
H187   H     0.81386   0.04113   0.07500   0.00000  Uiso   1.00
H188   H     0.88126   0.04220   0.20185   0.00000  Uiso   1.00
H189   H     0.78545   0.29114   0.29819   0.00000  Uiso   1.00
H190   H     0.86989   0.23003   0.02933   0.00000  Uiso   1.00
H191   H     0.86962   0.10427   0.47146   0.00000  Uiso   1.00
H192   H     0.80275   0.23076   0.47203   0.00000  Uiso   1.00
H193   H     0.80192   0.10431   0.02728   0.00000  Uiso   1.00
H194   H     0.70433   0.09586   0.26971   0.00000  Uiso   1.00
N195   N     0.83333   0.28573   0.25000   0.00000  Uiso   1.00
N196   N     0.83333   0.04760   0.25000   0.00000  Uiso   1.00
O197   O     0.77226   0.20487   0.25000   0.00000  Uiso   1.00
O198   O     0.87294   0.09578   0.38426   0.00000  Uiso   1.00
O199   O     0.79552   0.23809   0.38584   0.00000  Uiso   1.00
O200   O     0.79538   0.09603   0.11429   0.00000  Uiso   1.00
O201   O     0.89441   0.12846   0.25001   0.00000  Uiso   1.00
O202   O     0.89441   0.20487   0.25001   0.00000  Uiso   1.00
O203   O     0.77226   0.12846   0.25000   0.00000  Uiso   1.00
O204   O     0.83333   0.20489   0.18453   0.00000  Uiso   1.00
O205   O     0.83334   0.12845   0.31547   0.00000  Uiso   1.00
O206   O     0.83334   0.20489   0.31547   0.00000  Uiso   1.00
O207   O     0.83333   0.12845   0.18453   0.00000  Uiso   1.00
O208   O     0.87412   0.23736   0.11579   0.00000  Uiso   1.00
Zn209  Zn    0.83333   0.21771   0.25000   0.00000  Uiso   1.00
Zn210  Zn    0.83333   0.11563   0.25000   0.00000  Uiso   1.00
C211   C     0.08661   0.50001   0.25006   0.00000  Uiso   1.00
C212   C     0.31197   0.53989   0.23900   0.00000  Uiso   1.00
C213   C     0.31205   0.46010   0.26077   0.00000  Uiso   1.00
C214   C     0.02128   0.53993   0.23917   0.00000  Uiso   1.00
C215   C     0.18842   0.53570   0.04705   0.00000  Uiso   1.00
C216   C     0.18729   0.46447   0.45333   0.00000  Uiso   1.00
C217   C     0.15017   0.53634   0.45375   0.00000  Uiso   1.00
C218   C     0.15067   0.46425   0.04601   0.00000  Uiso   1.00
C219   C     0.18867   0.53529   0.09316   0.00000  Uiso   1.00
C220   C     0.18578   0.46328   0.40716   0.00000  Uiso   1.00
C221   C     0.14810   0.53580   0.40769   0.00000  Uiso   1.00
C222   C     0.24672   0.49999   0.24992   0.00000  Uiso   1.00
C223   C     0.15034   0.46321   0.09220   0.00000  Uiso   1.00
C224   C     0.16832   0.49969   0.11581   0.00000  Uiso   1.00
C225   C     0.16702   0.49978   0.38424   0.00000  Uiso   1.00
C226   C     0.16965   0.50023   0.02390   0.00000  Uiso   1.00
C227   C     0.16938   0.50064   0.47616   0.00000  Uiso   1.00
C228   C     0.29085   0.49998   0.24985   0.00000  Uiso   1.00
C229   C     0.04248   0.50004   0.25008   0.00000  Uiso   1.00
C230   C     0.24960   0.55940   0.12301   0.00000  Uiso   1.00
C231   C     0.18443   0.38795   0.38980   0.00000  Uiso   1.00
C232   C     0.08640   0.56063   0.38033   0.00000  Uiso   1.00
C233   C     0.16684   0.49996   0.16385   0.00000  Uiso   1.00
C234   C     0.15017   0.38784   0.10948   0.00000  Uiso   1.00
C235   C     0.16680   0.49997   0.33616   0.00000  Uiso   1.00
C236   C     0.14003   0.35736   0.27678   0.00000  Uiso   1.00
C237   C     0.19329   0.64264   0.22321   0.00000  Uiso   1.00
C238   C     0.19331   0.35732   0.22323   0.00000  Uiso   1.00
C239   C     0.14005   0.64269   0.27680   0.00000  Uiso   1.00
C240   C     0.02135   0.46013   0.26089   0.00000  Uiso   1.00
H241   H     0.11876   0.37562   0.29817   0.00000  Uiso   1.00
H242   H     0.29564   0.57080   0.23012   0.00000  Uiso   1.00
H243   H     0.29579   0.42915   0.26953   0.00000  Uiso   1.00
H244   H     0.03754   0.57088   0.23043   0.00000  Uiso   1.00
H245   H     0.26649   0.55518   0.09094   0.00000  Uiso   1.00
H246   H     0.26469   0.58756   0.14149   0.00000  Uiso   1.00
H247   H     0.25272   0.52822   0.14370   0.00000  Uiso   1.00
H248   H     0.19775   0.36239   0.36672   0.00000  Uiso   1.00
H249   H     0.15082   0.39163   0.38129   0.00000  Uiso   1.00
H250   H     0.18810   0.37463   0.42421   0.00000  Uiso   1.00
H251   H     0.07063   0.55654   0.41307   0.00000  Uiso   1.00
H252   H     0.21457   0.62440   0.20184   0.00000  Uiso   1.00
H253   H     0.07092   0.58902   0.36256   0.00000  Uiso   1.00
H254   H     0.08225   0.52955   0.35969   0.00000  Uiso   1.00
H255   H     0.13597   0.36257   0.13222   0.00000  Uiso   1.00
H256   H     0.18361   0.39102   0.11894   0.00000  Uiso   1.00
H257   H     0.14719   0.37447   0.07500   0.00000  Uiso   1.00
H258   H     0.21459   0.37554   0.20185   0.00000  Uiso   1.00
H259   H     0.11878   0.62447   0.29819   0.00000  Uiso   1.00
H260   H     0.20323   0.56336   0.02933   0.00000  Uiso   1.00
H261   H     0.20296   0.43760   0.47146   0.00000  Uiso   1.00
H262   H     0.13608   0.56409   0.47203   0.00000  Uiso   1.00
H263   H     0.13525   0.43764   0.02728   0.00000  Uiso   1.00
H264   H     0.03767   0.42920   0.26971   0.00000  Uiso   1.00
N265   N     0.16667   0.61907   0.25000   0.00000  Uiso   1.00
N266   N     0.16667   0.38093   0.25000   0.00000  Uiso   1.00
O267   O     0.10559   0.53821   0.25000   0.00000  Uiso   1.00
O268   O     0.20627   0.42912   0.38426   0.00000  Uiso   1.00
O269   O     0.12886   0.57143   0.38584   0.00000  Uiso   1.00
O270   O     0.12871   0.42937   0.11429   0.00000  Uiso   1.00
O271   O     0.22774   0.46179   0.25001   0.00000  Uiso   1.00
O272   O     0.22774   0.53821   0.25001   0.00000  Uiso   1.00
O273   O     0.10559   0.46179   0.25000   0.00000  Uiso   1.00
O274   O     0.16666   0.53822   0.18453   0.00000  Uiso   1.00
O275   O     0.16667   0.46178   0.31547   0.00000  Uiso   1.00
O276   O     0.16667   0.53822   0.31547   0.00000  Uiso   1.00
O277   O     0.16666   0.46178   0.18453   0.00000  Uiso   1.00
O278   O     0.20746   0.57070   0.11579   0.00000  Uiso   1.00
Zn279  Zn    0.16667   0.55104   0.25000   0.00000  Uiso   1.00
Zn280  Zn    0.16667   0.44896   0.25000   0.00000  Uiso   1.00
C281   C     0.41994   0.50001   0.25006   0.00000  Uiso   1.00
C282   C     0.64530   0.53989   0.23900   0.00000  Uiso   1.00
C283   C     0.64538   0.46010   0.26077   0.00000  Uiso   1.00
C284   C     0.35461   0.53993   0.23917   0.00000  Uiso   1.00
C285   C     0.52175   0.53570   0.04705   0.00000  Uiso   1.00
C286   C     0.52063   0.46447   0.45333   0.00000  Uiso   1.00
C287   C     0.48350   0.53634   0.45375   0.00000  Uiso   1.00
C288   C     0.48400   0.46425   0.04601   0.00000  Uiso   1.00
C289   C     0.52200   0.53529   0.09316   0.00000  Uiso   1.00
C290   C     0.51911   0.46328   0.40716   0.00000  Uiso   1.00
C291   C     0.48143   0.53580   0.40769   0.00000  Uiso   1.00
C292   C     0.58005   0.49999   0.24992   0.00000  Uiso   1.00
C293   C     0.48367   0.46321   0.09220   0.00000  Uiso   1.00
C294   C     0.50166   0.49969   0.11581   0.00000  Uiso   1.00
C295   C     0.50035   0.49978   0.38424   0.00000  Uiso   1.00
C296   C     0.50298   0.50023   0.02390   0.00000  Uiso   1.00
C297   C     0.50271   0.50064   0.47616   0.00000  Uiso   1.00
C298   C     0.62418   0.49998   0.24985   0.00000  Uiso   1.00
C299   C     0.37581   0.50004   0.25008   0.00000  Uiso   1.00
C300   C     0.58293   0.55940   0.12301   0.00000  Uiso   1.00
C301   C     0.51777   0.38795   0.38980   0.00000  Uiso   1.00
C302   C     0.41973   0.56063   0.38033   0.00000  Uiso   1.00
C303   C     0.50017   0.49996   0.16385   0.00000  Uiso   1.00
C304   C     0.48350   0.38784   0.10948   0.00000  Uiso   1.00
C305   C     0.50013   0.49997   0.33616   0.00000  Uiso   1.00
C306   C     0.47336   0.35736   0.27678   0.00000  Uiso   1.00
C307   C     0.52663   0.64264   0.22321   0.00000  Uiso   1.00
C308   C     0.52664   0.35732   0.22323   0.00000  Uiso   1.00
C309   C     0.47338   0.64269   0.27680   0.00000  Uiso   1.00
C310   C     0.35469   0.46013   0.26089   0.00000  Uiso   1.00
H311   H     0.45209   0.37562   0.29817   0.00000  Uiso   1.00
H312   H     0.62898   0.57080   0.23012   0.00000  Uiso   1.00
H313   H     0.62913   0.42915   0.26953   0.00000  Uiso   1.00
H314   H     0.37087   0.57088   0.23043   0.00000  Uiso   1.00
H315   H     0.59982   0.55518   0.09094   0.00000  Uiso   1.00
H316   H     0.59802   0.58756   0.14149   0.00000  Uiso   1.00
H317   H     0.58606   0.52822   0.14370   0.00000  Uiso   1.00
H318   H     0.53108   0.36239   0.36672   0.00000  Uiso   1.00
H319   H     0.48415   0.39163   0.38129   0.00000  Uiso   1.00
H320   H     0.52143   0.37463   0.42421   0.00000  Uiso   1.00
H321   H     0.40396   0.55654   0.41307   0.00000  Uiso   1.00
H322   H     0.54790   0.62440   0.20184   0.00000  Uiso   1.00
H323   H     0.40425   0.58902   0.36256   0.00000  Uiso   1.00
H324   H     0.41558   0.52955   0.35969   0.00000  Uiso   1.00
H325   H     0.46930   0.36257   0.13222   0.00000  Uiso   1.00
H326   H     0.51694   0.39102   0.11894   0.00000  Uiso   1.00
H327   H     0.48053   0.37447   0.07500   0.00000  Uiso   1.00
H328   H     0.54792   0.37554   0.20185   0.00000  Uiso   1.00
H329   H     0.45212   0.62447   0.29819   0.00000  Uiso   1.00
H330   H     0.53656   0.56336   0.02933   0.00000  Uiso   1.00
H331   H     0.53629   0.43760   0.47146   0.00000  Uiso   1.00
H332   H     0.46942   0.56409   0.47203   0.00000  Uiso   1.00
H333   H     0.46858   0.43764   0.02728   0.00000  Uiso   1.00
H334   H     0.37100   0.42920   0.26971   0.00000  Uiso   1.00
N335   N     0.50000   0.61907   0.25000   0.00000  Uiso   1.00
N336   N     0.50000   0.38093   0.25000   0.00000  Uiso   1.00
O337   O     0.43892   0.53821   0.25000   0.00000  Uiso   1.00
O338   O     0.53960   0.42912   0.38426   0.00000  Uiso   1.00
O339   O     0.46219   0.57143   0.38584   0.00000  Uiso   1.00
O340   O     0.46204   0.42937   0.11429   0.00000  Uiso   1.00
O341   O     0.56108   0.46179   0.25001   0.00000  Uiso   1.00
O342   O     0.56108   0.53821   0.25001   0.00000  Uiso   1.00
O343   O     0.43892   0.46179   0.25000   0.00000  Uiso   1.00
O344   O     0.50000   0.53822   0.18453   0.00000  Uiso   1.00
O345   O     0.50000   0.46178   0.31547   0.00000  Uiso   1.00
O346   O     0.50000   0.53822   0.31547   0.00000  Uiso   1.00
O347   O     0.50000   0.46178   0.18453   0.00000  Uiso   1.00
O348   O     0.54079   0.57070   0.11579   0.00000  Uiso   1.00
Zn349  Zn    0.50000   0.55104   0.25000   0.00000  Uiso   1.00
Zn350  Zn    0.50000   0.44896   0.25000   0.00000  Uiso   1.00
C351   C     0.75328   0.50001   0.25006   0.00000  Uiso   1.00
C352   C     0.97863   0.53989   0.23900   0.00000  Uiso   1.00
C353   C     0.97871   0.46010   0.26077   0.00000  Uiso   1.00
C354   C     0.68795   0.53993   0.23917   0.00000  Uiso   1.00
C355   C     0.85509   0.53570   0.04705   0.00000  Uiso   1.00
C356   C     0.85396   0.46447   0.45333   0.00000  Uiso   1.00
C357   C     0.81683   0.53634   0.45375   0.00000  Uiso   1.00
C358   C     0.81733   0.46425   0.04601   0.00000  Uiso   1.00
C359   C     0.85534   0.53529   0.09316   0.00000  Uiso   1.00
C360   C     0.85245   0.46328   0.40716   0.00000  Uiso   1.00
C361   C     0.81477   0.53580   0.40769   0.00000  Uiso   1.00
C362   C     0.91339   0.49999   0.24992   0.00000  Uiso   1.00
C363   C     0.81701   0.46321   0.09220   0.00000  Uiso   1.00
C364   C     0.83499   0.49969   0.11581   0.00000  Uiso   1.00
C365   C     0.83368   0.49978   0.38424   0.00000  Uiso   1.00
C366   C     0.83631   0.50023   0.02390   0.00000  Uiso   1.00
C367   C     0.83604   0.50064   0.47616   0.00000  Uiso   1.00
C368   C     0.95752   0.49998   0.24985   0.00000  Uiso   1.00
C369   C     0.70914   0.50004   0.25008   0.00000  Uiso   1.00
C370   C     0.91626   0.55940   0.12301   0.00000  Uiso   1.00
C371   C     0.85110   0.38795   0.38980   0.00000  Uiso   1.00
C372   C     0.75306   0.56063   0.38033   0.00000  Uiso   1.00
C373   C     0.83350   0.49996   0.16385   0.00000  Uiso   1.00
C374   C     0.81684   0.38784   0.10948   0.00000  Uiso   1.00
C375   C     0.83347   0.49997   0.33616   0.00000  Uiso   1.00
C376   C     0.80670   0.35736   0.27678   0.00000  Uiso   1.00
C377   C     0.85996   0.64264   0.22321   0.00000  Uiso   1.00
C378   C     0.85998   0.35732   0.22323   0.00000  Uiso   1.00
C379   C     0.80671   0.64269   0.27680   0.00000  Uiso   1.00
C380   C     0.68802   0.46013   0.26089   0.00000  Uiso   1.00
H381   H     0.78542   0.37562   0.29817   0.00000  Uiso   1.00
H382   H     0.96231   0.57080   0.23012   0.00000  Uiso   1.00
H383   H     0.96246   0.42915   0.26953   0.00000  Uiso   1.00
H384   H     0.70420   0.57088   0.23043   0.00000  Uiso   1.00
H385   H     0.93315   0.55518   0.09094   0.00000  Uiso   1.00
H386   H     0.93136   0.58756   0.14149   0.00000  Uiso   1.00
H387   H     0.91939   0.52822   0.14370   0.00000  Uiso   1.00
H388   H     0.86441   0.36239   0.36672   0.00000  Uiso   1.00
H389   H     0.81749   0.39163   0.38129   0.00000  Uiso   1.00
H390   H     0.85477   0.37463   0.42421   0.00000  Uiso   1.00
H391   H     0.73730   0.55654   0.41307   0.00000  Uiso   1.00
H392   H     0.88124   0.62440   0.20184   0.00000  Uiso   1.00
H393   H     0.73758   0.58902   0.36256   0.00000  Uiso   1.00
H394   H     0.74891   0.52955   0.35969   0.00000  Uiso   1.00
H395   H     0.80263   0.36257   0.13222   0.00000  Uiso   1.00
H396   H     0.85027   0.39102   0.11894   0.00000  Uiso   1.00
H397   H     0.81386   0.37447   0.07500   0.00000  Uiso   1.00
H398   H     0.88126   0.37554   0.20185   0.00000  Uiso   1.00
H399   H     0.78545   0.62447   0.29819   0.00000  Uiso   1.00
H400   H     0.86989   0.56336   0.02933   0.00000  Uiso   1.00
H401   H     0.86962   0.43760   0.47146   0.00000  Uiso   1.00
H402   H     0.80275   0.56409   0.47203   0.00000  Uiso   1.00
H403   H     0.80192   0.43764   0.02728   0.00000  Uiso   1.00
H404   H     0.70433   0.42920   0.26971   0.00000  Uiso   1.00
N405   N     0.83333   0.61907   0.25000   0.00000  Uiso   1.00
N406   N     0.83333   0.38093   0.25000   0.00000  Uiso   1.00
O407   O     0.77226   0.53821   0.25000   0.00000  Uiso   1.00
O408   O     0.87294   0.42912   0.38426   0.00000  Uiso   1.00
O409   O     0.79552   0.57143   0.38584   0.00000  Uiso   1.00
O410   O     0.79538   0.42937   0.11429   0.00000  Uiso   1.00
O411   O     0.89441   0.46179   0.25001   0.00000  Uiso   1.00
O412   O     0.89441   0.53821   0.25001   0.00000  Uiso   1.00
O413   O     0.77226   0.46179   0.25000   0.00000  Uiso   1.00
O414   O     0.83333   0.53822   0.18453   0.00000  Uiso   1.00
O415   O     0.83334   0.46178   0.31547   0.00000  Uiso   1.00
O416   O     0.83334   0.53822   0.31547   0.00000  Uiso   1.00
O417   O     0.83333   0.46178   0.18453   0.00000  Uiso   1.00
O418   O     0.87412   0.57070   0.11579   0.00000  Uiso   1.00
Zn419  Zn    0.83333   0.55104   0.25000   0.00000  Uiso   1.00
Zn420  Zn    0.83333   0.44896   0.25000   0.00000  Uiso   1.00
C421   C     0.08661   0.83335   0.25006   0.00000  Uiso   1.00
C422   C     0.31197   0.87322   0.23900   0.00000  Uiso   1.00
C423   C     0.31205   0.79343   0.26077   0.00000  Uiso   1.00
C424   C     0.02128   0.87327   0.23917   0.00000  Uiso   1.00
C425   C     0.18842   0.86903   0.04705   0.00000  Uiso   1.00
C426   C     0.18729   0.79781   0.45333   0.00000  Uiso   1.00
C427   C     0.15017   0.86967   0.45375   0.00000  Uiso   1.00
C428   C     0.15067   0.79759   0.04601   0.00000  Uiso   1.00
C429   C     0.18867   0.86862   0.09316   0.00000  Uiso   1.00
C430   C     0.18578   0.79661   0.40716   0.00000  Uiso   1.00
C431   C     0.14810   0.86914   0.40769   0.00000  Uiso   1.00
C432   C     0.24672   0.83333   0.24992   0.00000  Uiso   1.00
C433   C     0.15034   0.79655   0.09220   0.00000  Uiso   1.00
C434   C     0.16832   0.83302   0.11581   0.00000  Uiso   1.00
C435   C     0.16702   0.83311   0.38424   0.00000  Uiso   1.00
C436   C     0.16965   0.83356   0.02390   0.00000  Uiso   1.00
C437   C     0.16938   0.83397   0.47616   0.00000  Uiso   1.00
C438   C     0.29085   0.83332   0.24985   0.00000  Uiso   1.00
C439   C     0.04248   0.83337   0.25008   0.00000  Uiso   1.00
C440   C     0.24960   0.89273   0.12301   0.00000  Uiso   1.00
C441   C     0.18443   0.72128   0.38980   0.00000  Uiso   1.00
C442   C     0.08640   0.89397   0.38033   0.00000  Uiso   1.00
C443   C     0.16684   0.83329   0.16385   0.00000  Uiso   1.00
C444   C     0.15017   0.72118   0.10948   0.00000  Uiso   1.00
C445   C     0.16680   0.83330   0.33616   0.00000  Uiso   1.00
C446   C     0.14003   0.69069   0.27678   0.00000  Uiso   1.00
C447   C     0.19329   0.97598   0.22321   0.00000  Uiso   1.00
C448   C     0.19331   0.69065   0.22323   0.00000  Uiso   1.00
C449   C     0.14005   0.97602   0.27680   0.00000  Uiso   1.00
C450   C     0.02135   0.79346   0.26089   0.00000  Uiso   1.00
H451   H     0.11876   0.70895   0.29817   0.00000  Uiso   1.00
H452   H     0.29564   0.90414   0.23012   0.00000  Uiso   1.00
H453   H     0.29579   0.76248   0.26953   0.00000  Uiso   1.00
H454   H     0.03754   0.90422   0.23043   0.00000  Uiso   1.00
H455   H     0.26649   0.88852   0.09094   0.00000  Uiso   1.00
H456   H     0.26469   0.92090   0.14149   0.00000  Uiso   1.00
H457   H     0.25272   0.86156   0.14370   0.00000  Uiso   1.00
H458   H     0.19775   0.69572   0.36672   0.00000  Uiso   1.00
H459   H     0.15082   0.72497   0.38129   0.00000  Uiso   1.00
H460   H     0.18810   0.70796   0.42421   0.00000  Uiso   1.00
H461   H     0.07063   0.88987   0.41307   0.00000  Uiso   1.00
H462   H     0.21457   0.95773   0.20184   0.00000  Uiso   1.00
H463   H     0.07092   0.92236   0.36256   0.00000  Uiso   1.00
H464   H     0.08225   0.86288   0.35969   0.00000  Uiso   1.00
H465   H     0.13597   0.69591   0.13222   0.00000  Uiso   1.00
H466   H     0.18361   0.72435   0.11894   0.00000  Uiso   1.00
H467   H     0.14719   0.70780   0.07500   0.00000  Uiso   1.00
H468   H     0.21459   0.70887   0.20185   0.00000  Uiso   1.00
H469   H     0.11878   0.95781   0.29819   0.00000  Uiso   1.00
H470   H     0.20323   0.89670   0.02933   0.00000  Uiso   1.00
H471   H     0.20296   0.77094   0.47146   0.00000  Uiso   1.00
H472   H     0.13608   0.89743   0.47203   0.00000  Uiso   1.00
H473   H     0.13525   0.77097   0.02728   0.00000  Uiso   1.00
H474   H     0.03767   0.76253   0.26971   0.00000  Uiso   1.00
N475   N     0.16667   0.95240   0.25000   0.00000  Uiso   1.00
N476   N     0.16667   0.71427   0.25000   0.00000  Uiso   1.00
O477   O     0.10559   0.87154   0.25000   0.00000  Uiso   1.00
O478   O     0.20627   0.76245   0.38426   0.00000  Uiso   1.00
O479   O     0.12886   0.90476   0.38584   0.00000  Uiso   1.00
O480   O     0.12871   0.76270   0.11429   0.00000  Uiso   1.00
O481   O     0.22774   0.79513   0.25001   0.00000  Uiso   1.00
O482   O     0.22774   0.87154   0.25001   0.00000  Uiso   1.00
O483   O     0.10559   0.79513   0.25000   0.00000  Uiso   1.00
O484   O     0.16666   0.87155   0.18453   0.00000  Uiso   1.00
O485   O     0.16667   0.79511   0.31547   0.00000  Uiso   1.00
O486   O     0.16667   0.87155   0.31547   0.00000  Uiso   1.00
O487   O     0.16666   0.79511   0.18453   0.00000  Uiso   1.00
O488   O     0.20746   0.90403   0.11579   0.00000  Uiso   1.00
Zn489  Zn    0.16667   0.88437   0.25000   0.00000  Uiso   1.00
Zn490  Zn    0.16667   0.78229   0.25000   0.00000  Uiso   1.00
C491   C     0.41994   0.83335   0.25006   0.00000  Uiso   1.00
C492   C     0.64530   0.87322   0.23900   0.00000  Uiso   1.00
C493   C     0.64538   0.79343   0.26077   0.00000  Uiso   1.00
C494   C     0.35461   0.87327   0.23917   0.00000  Uiso   1.00
C495   C     0.52175   0.86903   0.04705   0.00000  Uiso   1.00
C496   C     0.52063   0.79781   0.45333   0.00000  Uiso   1.00
C497   C     0.48350   0.86967   0.45375   0.00000  Uiso   1.00
C498   C     0.48400   0.79759   0.04601   0.00000  Uiso   1.00
C499   C     0.52200   0.86862   0.09316   0.00000  Uiso   1.00
C500   C     0.51911   0.79661   0.40716   0.00000  Uiso   1.00
C501   C     0.48143   0.86914   0.40769   0.00000  Uiso   1.00
C502   C     0.58005   0.83333   0.24992   0.00000  Uiso   1.00
C503   C     0.48367   0.79655   0.09220   0.00000  Uiso   1.00
C504   C     0.50166   0.83302   0.11581   0.00000  Uiso   1.00
C505   C     0.50035   0.83311   0.38424   0.00000  Uiso   1.00
C506   C     0.50298   0.83356   0.02390   0.00000  Uiso   1.00
C507   C     0.50271   0.83397   0.47616   0.00000  Uiso   1.00
C508   C     0.62418   0.83332   0.24985   0.00000  Uiso   1.00
C509   C     0.37581   0.83337   0.25008   0.00000  Uiso   1.00
C510   C     0.58293   0.89273   0.12301   0.00000  Uiso   1.00
C511   C     0.51777   0.72128   0.38980   0.00000  Uiso   1.00
C512   C     0.41973   0.89397   0.38033   0.00000  Uiso   1.00
C513   C     0.50017   0.83329   0.16385   0.00000  Uiso   1.00
C514   C     0.48350   0.72118   0.10948   0.00000  Uiso   1.00
C515   C     0.50013   0.83330   0.33616   0.00000  Uiso   1.00
C516   C     0.47336   0.69069   0.27678   0.00000  Uiso   1.00
C517   C     0.52663   0.97598   0.22321   0.00000  Uiso   1.00
C518   C     0.52664   0.69065   0.22323   0.00000  Uiso   1.00
C519   C     0.47338   0.97602   0.27680   0.00000  Uiso   1.00
C520   C     0.35469   0.79346   0.26089   0.00000  Uiso   1.00
H521   H     0.45209   0.70895   0.29817   0.00000  Uiso   1.00
H522   H     0.62898   0.90414   0.23012   0.00000  Uiso   1.00
H523   H     0.62913   0.76248   0.26953   0.00000  Uiso   1.00
H524   H     0.37087   0.90422   0.23043   0.00000  Uiso   1.00
H525   H     0.59982   0.88852   0.09094   0.00000  Uiso   1.00
H526   H     0.59802   0.92090   0.14149   0.00000  Uiso   1.00
H527   H     0.58606   0.86156   0.14370   0.00000  Uiso   1.00
H528   H     0.53108   0.69572   0.36672   0.00000  Uiso   1.00
H529   H     0.48415   0.72497   0.38129   0.00000  Uiso   1.00
H530   H     0.52143   0.70796   0.42421   0.00000  Uiso   1.00
H531   H     0.40396   0.88987   0.41307   0.00000  Uiso   1.00
H532   H     0.54790   0.95773   0.20184   0.00000  Uiso   1.00
H533   H     0.40425   0.92236   0.36256   0.00000  Uiso   1.00
H534   H     0.41558   0.86288   0.35969   0.00000  Uiso   1.00
H535   H     0.46930   0.69591   0.13222   0.00000  Uiso   1.00
H536   H     0.51694   0.72435   0.11894   0.00000  Uiso   1.00
H537   H     0.48053   0.70780   0.07500   0.00000  Uiso   1.00
H538   H     0.54792   0.70887   0.20185   0.00000  Uiso   1.00
H539   H     0.45212   0.95781   0.29819   0.00000  Uiso   1.00
H540   H     0.53656   0.89670   0.02933   0.00000  Uiso   1.00
H541   H     0.53629   0.77094   0.47146   0.00000  Uiso   1.00
H542   H     0.46942   0.89743   0.47203   0.00000  Uiso   1.00
H543   H     0.46858   0.77097   0.02728   0.00000  Uiso   1.00
H544   H     0.37100   0.76253   0.26971   0.00000  Uiso   1.00
N545   N     0.50000   0.95240   0.25000   0.00000  Uiso   1.00
N546   N     0.50000   0.71427   0.25000   0.00000  Uiso   1.00
O547   O     0.43892   0.87154   0.25000   0.00000  Uiso   1.00
O548   O     0.53960   0.76245   0.38426   0.00000  Uiso   1.00
O549   O     0.46219   0.90476   0.38584   0.00000  Uiso   1.00
O550   O     0.46204   0.76270   0.11429   0.00000  Uiso   1.00
O551   O     0.56108   0.79513   0.25001   0.00000  Uiso   1.00
O552   O     0.56108   0.87154   0.25001   0.00000  Uiso   1.00
O553   O     0.43892   0.79513   0.25000   0.00000  Uiso   1.00
O554   O     0.50000   0.87155   0.18453   0.00000  Uiso   1.00
O555   O     0.50000   0.79511   0.31547   0.00000  Uiso   1.00
O556   O     0.50000   0.87155   0.31547   0.00000  Uiso   1.00
O557   O     0.50000   0.79511   0.18453   0.00000  Uiso   1.00
O558   O     0.54079   0.90403   0.11579   0.00000  Uiso   1.00
Zn559  Zn    0.50000   0.88437   0.25000   0.00000  Uiso   1.00
Zn560  Zn    0.50000   0.78229   0.25000   0.00000  Uiso   1.00
C561   C     0.75328   0.83335   0.25006   0.00000  Uiso   1.00
C562   C     0.97863   0.87322   0.23900   0.00000  Uiso   1.00
C563   C     0.97871   0.79343   0.26077   0.00000  Uiso   1.00
C564   C     0.68795   0.87327   0.23917   0.00000  Uiso   1.00
C565   C     0.85509   0.86903   0.04705   0.00000  Uiso   1.00
C566   C     0.85396   0.79781   0.45333   0.00000  Uiso   1.00
C567   C     0.81683   0.86967   0.45375   0.00000  Uiso   1.00
C568   C     0.81733   0.79759   0.04601   0.00000  Uiso   1.00
C569   C     0.85534   0.86862   0.09316   0.00000  Uiso   1.00
C570   C     0.85245   0.79661   0.40716   0.00000  Uiso   1.00
C571   C     0.81477   0.86914   0.40769   0.00000  Uiso   1.00
C572   C     0.91339   0.83333   0.24992   0.00000  Uiso   1.00
C573   C     0.81701   0.79655   0.09220   0.00000  Uiso   1.00
C574   C     0.83499   0.83302   0.11581   0.00000  Uiso   1.00
C575   C     0.83368   0.83311   0.38424   0.00000  Uiso   1.00
C576   C     0.83631   0.83356   0.02390   0.00000  Uiso   1.00
C577   C     0.83604   0.83397   0.47616   0.00000  Uiso   1.00
C578   C     0.95752   0.83332   0.24985   0.00000  Uiso   1.00
C579   C     0.70914   0.83337   0.25008   0.00000  Uiso   1.00
C580   C     0.91626   0.89273   0.12301   0.00000  Uiso   1.00
C581   C     0.85110   0.72128   0.38980   0.00000  Uiso   1.00
C582   C     0.75306   0.89397   0.38033   0.00000  Uiso   1.00
C583   C     0.83350   0.83329   0.16385   0.00000  Uiso   1.00
C584   C     0.81684   0.72118   0.10948   0.00000  Uiso   1.00
C585   C     0.83347   0.83330   0.33616   0.00000  Uiso   1.00
C586   C     0.80670   0.69069   0.27678   0.00000  Uiso   1.00
C587   C     0.85996   0.97598   0.22321   0.00000  Uiso   1.00
C588   C     0.85998   0.69065   0.22323   0.00000  Uiso   1.00
C589   C     0.80671   0.97602   0.27680   0.00000  Uiso   1.00
C590   C     0.68802   0.79346   0.26089   0.00000  Uiso   1.00
H591   H     0.78542   0.70895   0.29817   0.00000  Uiso   1.00
H592   H     0.96231   0.90414   0.23012   0.00000  Uiso   1.00
H593   H     0.96246   0.76248   0.26953   0.00000  Uiso   1.00
H594   H     0.70420   0.90422   0.23043   0.00000  Uiso   1.00
H595   H     0.93315   0.88852   0.09094   0.00000  Uiso   1.00
H596   H     0.93136   0.92090   0.14149   0.00000  Uiso   1.00
H597   H     0.91939   0.86156   0.14370   0.00000  Uiso   1.00
H598   H     0.86441   0.69572   0.36672   0.00000  Uiso   1.00
H599   H     0.81749   0.72497   0.38129   0.00000  Uiso   1.00
H600   H     0.85477   0.70796   0.42421   0.00000  Uiso   1.00
H601   H     0.73730   0.88987   0.41307   0.00000  Uiso   1.00
H602   H     0.88124   0.95773   0.20184   0.00000  Uiso   1.00
H603   H     0.73758   0.92236   0.36256   0.00000  Uiso   1.00
H604   H     0.74891   0.86288   0.35969   0.00000  Uiso   1.00
H605   H     0.80263   0.69591   0.13222   0.00000  Uiso   1.00
H606   H     0.85027   0.72435   0.11894   0.00000  Uiso   1.00
H607   H     0.81386   0.70780   0.07500   0.00000  Uiso   1.00
H608   H     0.88126   0.70887   0.20185   0.00000  Uiso   1.00
H609   H     0.78545   0.95781   0.29819   0.00000  Uiso   1.00
H610   H     0.86989   0.89670   0.02933   0.00000  Uiso   1.00
H611   H     0.86962   0.77094   0.47146   0.00000  Uiso   1.00
H612   H     0.80275   0.89743   0.47203   0.00000  Uiso   1.00
H613   H     0.80192   0.77097   0.02728   0.00000  Uiso   1.00
H614   H     0.70433   0.76253   0.26971   0.00000  Uiso   1.00
N615   N     0.83333   0.95240   0.25000   0.00000  Uiso   1.00
N616   N     0.83333   0.71427   0.25000   0.00000  Uiso   1.00
O617   O     0.77226   0.87154   0.25000   0.00000  Uiso   1.00
O618   O     0.87294   0.76245   0.38426   0.00000  Uiso   1.00
O619   O     0.79552   0.90476   0.38584   0.00000  Uiso   1.00
O620   O     0.79538   0.76270   0.11429   0.00000  Uiso   1.00
O621   O     0.89441   0.79513   0.25001   0.00000  Uiso   1.00
O622   O     0.89441   0.87154   0.25001   0.00000  Uiso   1.00
O623   O     0.77226   0.79513   0.25000   0.00000  Uiso   1.00
O624   O     0.83333   0.87155   0.18453   0.00000  Uiso   1.00
O625   O     0.83334   0.79511   0.31547   0.00000  Uiso   1.00
O626   O     0.83334   0.87155   0.31547   0.00000  Uiso   1.00
O627   O     0.83333   0.79511   0.18453   0.00000  Uiso   1.00
O628   O     0.87412   0.90403   0.11579   0.00000  Uiso   1.00
Zn629  Zn    0.83333   0.88437   0.25000   0.00000  Uiso   1.00
Zn630  Zn    0.83333   0.78229   0.25000   0.00000  Uiso   1.00
C631   C     0.08661   0.16668   0.75006   0.00000  Uiso   1.00
C632   C     0.31197   0.20656   0.73900   0.00000  Uiso   1.00
C633   C     0.31205   0.12676   0.76077   0.00000  Uiso   1.00
C634   C     0.02128   0.20660   0.73917   0.00000  Uiso   1.00
C635   C     0.18842   0.20237   0.54705   0.00000  Uiso   1.00
C636   C     0.18729   0.13114   0.95333   0.00000  Uiso   1.00
C637   C     0.15017   0.20301   0.95375   0.00000  Uiso   1.00
C638   C     0.15067   0.13092   0.54601   0.00000  Uiso   1.00
C639   C     0.18867   0.20196   0.59316   0.00000  Uiso   1.00
C640   C     0.18578   0.12994   0.90716   0.00000  Uiso   1.00
C641   C     0.14810   0.20247   0.90769   0.00000  Uiso   1.00
C642   C     0.24672   0.16666   0.74992   0.00000  Uiso   1.00
C643   C     0.15034   0.12988   0.59220   0.00000  Uiso   1.00
C644   C     0.16832   0.16635   0.61581   0.00000  Uiso   1.00
C645   C     0.16702   0.16644   0.88424   0.00000  Uiso   1.00
C646   C     0.16965   0.16689   0.52390   0.00000  Uiso   1.00
C647   C     0.16938   0.16731   0.97616   0.00000  Uiso   1.00
C648   C     0.29085   0.16665   0.74985   0.00000  Uiso   1.00
C649   C     0.04248   0.16671   0.75008   0.00000  Uiso   1.00
C650   C     0.24960   0.22606   0.62301   0.00000  Uiso   1.00
C651   C     0.18443   0.05462   0.88980   0.00000  Uiso   1.00
C652   C     0.08640   0.22730   0.88033   0.00000  Uiso   1.00
C653   C     0.16684   0.16662   0.66385   0.00000  Uiso   1.00
C654   C     0.15017   0.05451   0.60948   0.00000  Uiso   1.00
C655   C     0.16680   0.16664   0.83616   0.00000  Uiso   1.00
C656   C     0.14003   0.02403   0.77678   0.00000  Uiso   1.00
C657   C     0.19329   0.30931   0.72321   0.00000  Uiso   1.00
C658   C     0.19331   0.02398   0.72323   0.00000  Uiso   1.00
C659   C     0.14005   0.30935   0.77680   0.00000  Uiso   1.00
C660   C     0.02135   0.12679   0.76089   0.00000  Uiso   1.00
H661   H     0.11876   0.04228   0.79817   0.00000  Uiso   1.00
H662   H     0.29564   0.23747   0.73012   0.00000  Uiso   1.00
H663   H     0.29579   0.09582   0.76953   0.00000  Uiso   1.00
H664   H     0.03754   0.23755   0.73043   0.00000  Uiso   1.00
H665   H     0.26649   0.22185   0.59094   0.00000  Uiso   1.00
H666   H     0.26469   0.25423   0.64149   0.00000  Uiso   1.00
H667   H     0.25272   0.19489   0.64370   0.00000  Uiso   1.00
H668   H     0.19775   0.02905   0.86672   0.00000  Uiso   1.00
H669   H     0.15082   0.05830   0.88129   0.00000  Uiso   1.00
H670   H     0.18810   0.04130   0.92421   0.00000  Uiso   1.00
H671   H     0.07063   0.22320   0.91307   0.00000  Uiso   1.00
H672   H     0.21457   0.29106   0.70184   0.00000  Uiso   1.00
H673   H     0.07092   0.25569   0.86256   0.00000  Uiso   1.00
H674   H     0.08225   0.19621   0.85969   0.00000  Uiso   1.00
H675   H     0.13597   0.02924   0.63222   0.00000  Uiso   1.00
H676   H     0.18361   0.05769   0.61894   0.00000  Uiso   1.00
H677   H     0.14719   0.04113   0.57500   0.00000  Uiso   1.00
H678   H     0.21459   0.04220   0.70185   0.00000  Uiso   1.00
H679   H     0.11878   0.29114   0.79819   0.00000  Uiso   1.00
H680   H     0.20323   0.23003   0.52933   0.00000  Uiso   1.00
H681   H     0.20296   0.10427   0.97146   0.00000  Uiso   1.00
H682   H     0.13608   0.23076   0.97203   0.00000  Uiso   1.00
H683   H     0.13525   0.10431   0.52728   0.00000  Uiso   1.00
H684   H     0.03767   0.09586   0.76971   0.00000  Uiso   1.00
N685   N     0.16667   0.28573   0.75000   0.00000  Uiso   1.00
N686   N     0.16667   0.04760   0.75000   0.00000  Uiso   1.00
O687   O     0.10559   0.20487   0.75000   0.00000  Uiso   1.00
O688   O     0.20627   0.09578   0.88426   0.00000  Uiso   1.00
O689   O     0.12886   0.23809   0.88584   0.00000  Uiso   1.00
O690   O     0.12871   0.09603   0.61429   0.00000  Uiso   1.00
O691   O     0.22774   0.12846   0.75001   0.00000  Uiso   1.00
O692   O     0.22774   0.20487   0.75001   0.00000  Uiso   1.00
O693   O     0.10559   0.12846   0.75000   0.00000  Uiso   1.00
O694   O     0.16666   0.20489   0.68453   0.00000  Uiso   1.00
O695   O     0.16667   0.12845   0.81547   0.00000  Uiso   1.00
O696   O     0.16667   0.20489   0.81547   0.00000  Uiso   1.00
O697   O     0.16666   0.12845   0.68453   0.00000  Uiso   1.00
O698   O     0.20746   0.23736   0.61579   0.00000  Uiso   1.00
Zn699  Zn    0.16667   0.21771   0.75000   0.00000  Uiso   1.00
Zn700  Zn    0.16667   0.11563   0.75000   0.00000  Uiso   1.00
C701   C     0.41994   0.16668   0.75006   0.00000  Uiso   1.00
C702   C     0.64530   0.20656   0.73900   0.00000  Uiso   1.00
C703   C     0.64538   0.12676   0.76077   0.00000  Uiso   1.00
C704   C     0.35461   0.20660   0.73917   0.00000  Uiso   1.00
C705   C     0.52175   0.20237   0.54705   0.00000  Uiso   1.00
C706   C     0.52063   0.13114   0.95333   0.00000  Uiso   1.00
C707   C     0.48350   0.20301   0.95375   0.00000  Uiso   1.00
C708   C     0.48400   0.13092   0.54601   0.00000  Uiso   1.00
C709   C     0.52200   0.20196   0.59316   0.00000  Uiso   1.00
C710   C     0.51911   0.12994   0.90716   0.00000  Uiso   1.00
C711   C     0.48143   0.20247   0.90769   0.00000  Uiso   1.00
C712   C     0.58005   0.16666   0.74992   0.00000  Uiso   1.00
C713   C     0.48367   0.12988   0.59220   0.00000  Uiso   1.00
C714   C     0.50166   0.16635   0.61581   0.00000  Uiso   1.00
C715   C     0.50035   0.16644   0.88424   0.00000  Uiso   1.00
C716   C     0.50298   0.16689   0.52390   0.00000  Uiso   1.00
C717   C     0.50271   0.16731   0.97616   0.00000  Uiso   1.00
C718   C     0.62418   0.16665   0.74985   0.00000  Uiso   1.00
C719   C     0.37581   0.16671   0.75008   0.00000  Uiso   1.00
C720   C     0.58293   0.22606   0.62301   0.00000  Uiso   1.00
C721   C     0.51777   0.05462   0.88980   0.00000  Uiso   1.00
C722   C     0.41973   0.22730   0.88033   0.00000  Uiso   1.00
C723   C     0.50017   0.16662   0.66385   0.00000  Uiso   1.00
C724   C     0.48350   0.05451   0.60948   0.00000  Uiso   1.00
C725   C     0.50013   0.16664   0.83616   0.00000  Uiso   1.00
C726   C     0.47336   0.02403   0.77678   0.00000  Uiso   1.00
C727   C     0.52663   0.30931   0.72321   0.00000  Uiso   1.00
C728   C     0.52664   0.02398   0.72323   0.00000  Uiso   1.00
C729   C     0.47338   0.30935   0.77680   0.00000  Uiso   1.00
C730   C     0.35469   0.12679   0.76089   0.00000  Uiso   1.00
H731   H     0.45209   0.04228   0.79817   0.00000  Uiso   1.00
H732   H     0.62898   0.23747   0.73012   0.00000  Uiso   1.00
H733   H     0.62913   0.09582   0.76953   0.00000  Uiso   1.00
H734   H     0.37087   0.23755   0.73043   0.00000  Uiso   1.00
H735   H     0.59982   0.22185   0.59094   0.00000  Uiso   1.00
H736   H     0.59802   0.25423   0.64149   0.00000  Uiso   1.00
H737   H     0.58606   0.19489   0.64370   0.00000  Uiso   1.00
H738   H     0.53108   0.02905   0.86672   0.00000  Uiso   1.00
H739   H     0.48415   0.05830   0.88129   0.00000  Uiso   1.00
H740   H     0.52143   0.04130   0.92421   0.00000  Uiso   1.00
H741   H     0.40396   0.22320   0.91307   0.00000  Uiso   1.00
H742   H     0.54790   0.29106   0.70184   0.00000  Uiso   1.00
H743   H     0.40425   0.25569   0.86256   0.00000  Uiso   1.00
H744   H     0.41558   0.19621   0.85969   0.00000  Uiso   1.00
H745   H     0.46930   0.02924   0.63222   0.00000  Uiso   1.00
H746   H     0.51694   0.05769   0.61894   0.00000  Uiso   1.00
H747   H     0.48053   0.04113   0.57500   0.00000  Uiso   1.00
H748   H     0.54792   0.04220   0.70185   0.00000  Uiso   1.00
H749   H     0.45212   0.29114   0.79819   0.00000  Uiso   1.00
H750   H     0.53656   0.23003   0.52933   0.00000  Uiso   1.00
H751   H     0.53629   0.10427   0.97146   0.00000  Uiso   1.00
H752   H     0.46942   0.23076   0.97203   0.00000  Uiso   1.00
H753   H     0.46858   0.10431   0.52728   0.00000  Uiso   1.00
H754   H     0.37100   0.09586   0.76971   0.00000  Uiso   1.00
N755   N     0.50000   0.28573   0.75000   0.00000  Uiso   1.00
N756   N     0.50000   0.04760   0.75000   0.00000  Uiso   1.00
O757   O     0.43892   0.20487   0.75000   0.00000  Uiso   1.00
O758   O     0.53960   0.09578   0.88426   0.00000  Uiso   1.00
O759   O     0.46219   0.23809   0.88584   0.00000  Uiso   1.00
O760   O     0.46204   0.09603   0.61429   0.00000  Uiso   1.00
O761   O     0.56108   0.12846   0.75001   0.00000  Uiso   1.00
O762   O     0.56108   0.20487   0.75001   0.00000  Uiso   1.00
O763   O     0.43892   0.12846   0.75000   0.00000  Uiso   1.00
O764   O     0.50000   0.20489   0.68453   0.00000  Uiso   1.00
O765   O     0.50000   0.12845   0.81547   0.00000  Uiso   1.00
O766   O     0.50000   0.20489   0.81547   0.00000  Uiso   1.00
O767   O     0.50000   0.12845   0.68453   0.00000  Uiso   1.00
O768   O     0.54079   0.23736   0.61579   0.00000  Uiso   1.00
Zn769  Zn    0.50000   0.21771   0.75000   0.00000  Uiso   1.00
Zn770  Zn    0.50000   0.11563   0.75000   0.00000  Uiso   1.00
C771   C     0.75328   0.16668   0.75006   0.00000  Uiso   1.00
C772   C     0.97863   0.20656   0.73900   0.00000  Uiso   1.00
C773   C     0.97871   0.12676   0.76077   0.00000  Uiso   1.00
C774   C     0.68795   0.20660   0.73917   0.00000  Uiso   1.00
C775   C     0.85509   0.20237   0.54705   0.00000  Uiso   1.00
C776   C     0.85396   0.13114   0.95333   0.00000  Uiso   1.00
C777   C     0.81683   0.20301   0.95375   0.00000  Uiso   1.00
C778   C     0.81733   0.13092   0.54601   0.00000  Uiso   1.00
C779   C     0.85534   0.20196   0.59316   0.00000  Uiso   1.00
C780   C     0.85245   0.12994   0.90716   0.00000  Uiso   1.00
C781   C     0.81477   0.20247   0.90769   0.00000  Uiso   1.00
C782   C     0.91339   0.16666   0.74992   0.00000  Uiso   1.00
C783   C     0.81701   0.12988   0.59220   0.00000  Uiso   1.00
C784   C     0.83499   0.16635   0.61581   0.00000  Uiso   1.00
C785   C     0.83368   0.16644   0.88424   0.00000  Uiso   1.00
C786   C     0.83631   0.16689   0.52390   0.00000  Uiso   1.00
C787   C     0.83604   0.16731   0.97616   0.00000  Uiso   1.00
C788   C     0.95752   0.16665   0.74985   0.00000  Uiso   1.00
C789   C     0.70914   0.16671   0.75008   0.00000  Uiso   1.00
C790   C     0.91626   0.22606   0.62301   0.00000  Uiso   1.00
C791   C     0.85110   0.05462   0.88980   0.00000  Uiso   1.00
C792   C     0.75306   0.22730   0.88033   0.00000  Uiso   1.00
C793   C     0.83350   0.16662   0.66385   0.00000  Uiso   1.00
C794   C     0.81684   0.05451   0.60948   0.00000  Uiso   1.00
C795   C     0.83347   0.16664   0.83616   0.00000  Uiso   1.00
C796   C     0.80670   0.02403   0.77678   0.00000  Uiso   1.00
C797   C     0.85996   0.30931   0.72321   0.00000  Uiso   1.00
C798   C     0.85998   0.02398   0.72323   0.00000  Uiso   1.00
C799   C     0.80671   0.30935   0.77680   0.00000  Uiso   1.00
C800   C     0.68802   0.12679   0.76089   0.00000  Uiso   1.00
H801   H     0.78542   0.04228   0.79817   0.00000  Uiso   1.00
H802   H     0.96231   0.23747   0.73012   0.00000  Uiso   1.00
H803   H     0.96246   0.09582   0.76953   0.00000  Uiso   1.00
H804   H     0.70420   0.23755   0.73043   0.00000  Uiso   1.00
H805   H     0.93315   0.22185   0.59094   0.00000  Uiso   1.00
H806   H     0.93136   0.25423   0.64149   0.00000  Uiso   1.00
H807   H     0.91939   0.19489   0.64370   0.00000  Uiso   1.00
H808   H     0.86441   0.02905   0.86672   0.00000  Uiso   1.00
H809   H     0.81749   0.05830   0.88129   0.00000  Uiso   1.00
H810   H     0.85477   0.04130   0.92421   0.00000  Uiso   1.00
H811   H     0.73730   0.22320   0.91307   0.00000  Uiso   1.00
H812   H     0.88124   0.29106   0.70184   0.00000  Uiso   1.00
H813   H     0.73758   0.25569   0.86256   0.00000  Uiso   1.00
H814   H     0.74891   0.19621   0.85969   0.00000  Uiso   1.00
H815   H     0.80263   0.02924   0.63222   0.00000  Uiso   1.00
H816   H     0.85027   0.05769   0.61894   0.00000  Uiso   1.00
H817   H     0.81386   0.04113   0.57500   0.00000  Uiso   1.00
H818   H     0.88126   0.04220   0.70185   0.00000  Uiso   1.00
H819   H     0.78545   0.29114   0.79819   0.00000  Uiso   1.00
H820   H     0.86989   0.23003   0.52933   0.00000  Uiso   1.00
H821   H     0.86962   0.10427   0.97146   0.00000  Uiso   1.00
H822   H     0.80275   0.23076   0.97203   0.00000  Uiso   1.00
H823   H     0.80192   0.10431   0.52728   0.00000  Uiso   1.00
H824   H     0.70433   0.09586   0.76971   0.00000  Uiso   1.00
N825   N     0.83333   0.28573   0.75000   0.00000  Uiso   1.00
N826   N     0.83333   0.04760   0.75000   0.00000  Uiso   1.00
O827   O     0.77226   0.20487   0.75000   0.00000  Uiso   1.00
O828   O     0.87294   0.09578   0.88426   0.00000  Uiso   1.00
O829   O     0.79552   0.23809   0.88584   0.00000  Uiso   1.00
O830   O     0.79538   0.09603   0.61429   0.00000  Uiso   1.00
O831   O     0.89441   0.12846   0.75001   0.00000  Uiso   1.00
O832   O     0.89441   0.20487   0.75001   0.00000  Uiso   1.00
O833   O     0.77226   0.12846   0.75000   0.00000  Uiso   1.00
O834   O     0.83333   0.20489   0.68453   0.00000  Uiso   1.00
O835   O     0.83334   0.12845   0.81547   0.00000  Uiso   1.00
O836   O     0.83334   0.20489   0.81547   0.00000  Uiso   1.00
O837   O     0.83333   0.12845   0.68453   0.00000  Uiso   1.00
O838   O     0.87412   0.23736   0.61579   0.00000  Uiso   1.00
Zn839  Zn    0.83333   0.21771   0.75000   0.00000  Uiso   1.00
Zn840  Zn    0.83333   0.11563   0.75000   0.00000  Uiso   1.00
C841   C     0.08661   0.50001   0.75006   0.00000  Uiso   1.00
C842   C     0.31197   0.53989   0.73900   0.00000  Uiso   1.00
C843   C     0.31205   0.46010   0.76077   0.00000  Uiso   1.00
C844   C     0.02128   0.53993   0.73917   0.00000  Uiso   1.00
C845   C     0.18842   0.53570   0.54705   0.00000  Uiso   1.00
C846   C     0.18729   0.46447   0.95333   0.00000  Uiso   1.00
C847   C     0.15017   0.53634   0.95375   0.00000  Uiso   1.00
C848   C     0.15067   0.46425   0.54601   0.00000  Uiso   1.00
C849   C     0.18867   0.53529   0.59316   0.00000  Uiso   1.00
C850   C     0.18578   0.46328   0.90716   0.00000  Uiso   1.00
C851   C     0.14810   0.53580   0.90769   0.00000  Uiso   1.00
C852   C     0.24672   0.49999   0.74992   0.00000  Uiso   1.00
C853   C     0.15034   0.46321   0.59220   0.00000  Uiso   1.00
C854   C     0.16832   0.49969   0.61581   0.00000  Uiso   1.00
C855   C     0.16702   0.49978   0.88424   0.00000  Uiso   1.00
C856   C     0.16965   0.50023   0.52390   0.00000  Uiso   1.00
C857   C     0.16938   0.50064   0.97616   0.00000  Uiso   1.00
C858   C     0.29085   0.49998   0.74985   0.00000  Uiso   1.00
C859   C     0.04248   0.50004   0.75008   0.00000  Uiso   1.00
C860   C     0.24960   0.55940   0.62301   0.00000  Uiso   1.00
C861   C     0.18443   0.38795   0.88980   0.00000  Uiso   1.00
C862   C     0.08640   0.56063   0.88033   0.00000  Uiso   1.00
C863   C     0.16684   0.49996   0.66385   0.00000  Uiso   1.00
C864   C     0.15017   0.38784   0.60948   0.00000  Uiso   1.00
C865   C     0.16680   0.49997   0.83616   0.00000  Uiso   1.00
C866   C     0.14003   0.35736   0.77678   0.00000  Uiso   1.00
C867   C     0.19329   0.64264   0.72321   0.00000  Uiso   1.00
C868   C     0.19331   0.35732   0.72323   0.00000  Uiso   1.00
C869   C     0.14005   0.64269   0.77680   0.00000  Uiso   1.00
C870   C     0.02135   0.46013   0.76089   0.00000  Uiso   1.00
H871   H     0.11876   0.37562   0.79817   0.00000  Uiso   1.00
H872   H     0.29564   0.57080   0.73012   0.00000  Uiso   1.00
H873   H     0.29579   0.42915   0.76953   0.00000  Uiso   1.00
H874   H     0.03754   0.57088   0.73043   0.00000  Uiso   1.00
H875   H     0.26649   0.55518   0.59094   0.00000  Uiso   1.00
H876   H     0.26469   0.58756   0.64149   0.00000  Uiso   1.00
H877   H     0.25272   0.52822   0.64370   0.00000  Uiso   1.00
H878   H     0.19775   0.36239   0.86672   0.00000  Uiso   1.00
H879   H     0.15082   0.39163   0.88129   0.00000  Uiso   1.00
H880   H     0.18810   0.37463   0.92421   0.00000  Uiso   1.00
H881   H     0.07063   0.55654   0.91307   0.00000  Uiso   1.00
H882   H     0.21457   0.62440   0.70184   0.00000  Uiso   1.00
H883   H     0.07092   0.58902   0.86256   0.00000  Uiso   1.00
H884   H     0.08225   0.52955   0.85969   0.00000  Uiso   1.00
H885   H     0.13597   0.36257   0.63222   0.00000  Uiso   1.00
H886   H     0.18361   0.39102   0.61894   0.00000  Uiso   1.00
H887   H     0.14719   0.37447   0.57500   0.00000  Uiso   1.00
H888   H     0.21459   0.37554   0.70185   0.00000  Uiso   1.00
H889   H     0.11878   0.62447   0.79819   0.00000  Uiso   1.00
H890   H     0.20323   0.56336   0.52933   0.00000  Uiso   1.00
H891   H     0.20296   0.43760   0.97146   0.00000  Uiso   1.00
H892   H     0.13608   0.56409   0.97203   0.00000  Uiso   1.00
H893   H     0.13525   0.43764   0.52728   0.00000  Uiso   1.00
H894   H     0.03767   0.42920   0.76971   0.00000  Uiso   1.00
N895   N     0.16667   0.61907   0.75000   0.00000  Uiso   1.00
N896   N     0.16667   0.38093   0.75000   0.00000  Uiso   1.00
O897   O     0.10559   0.53821   0.75000   0.00000  Uiso   1.00
O898   O     0.20627   0.42912   0.88426   0.00000  Uiso   1.00
O899   O     0.12886   0.57143   0.88584   0.00000  Uiso   1.00
O900   O     0.12871   0.42937   0.61429   0.00000  Uiso   1.00
O901   O     0.22774   0.46179   0.75001   0.00000  Uiso   1.00
O902   O     0.22774   0.53821   0.75001   0.00000  Uiso   1.00
O903   O     0.10559   0.46179   0.75000   0.00000  Uiso   1.00
O904   O     0.16666   0.53822   0.68453   0.00000  Uiso   1.00
O905   O     0.16667   0.46178   0.81547   0.00000  Uiso   1.00
O906   O     0.16667   0.53822   0.81547   0.00000  Uiso   1.00
O907   O     0.16666   0.46178   0.68453   0.00000  Uiso   1.00
O908   O     0.20746   0.57070   0.61579   0.00000  Uiso   1.00
Zn909  Zn    0.16667   0.55104   0.75000   0.00000  Uiso   1.00
Zn910  Zn    0.16667   0.44896   0.75000   0.00000  Uiso   1.00
C911   C     0.41994   0.50001   0.75006   0.00000  Uiso   1.00
C912   C     0.64530   0.53989   0.73900   0.00000  Uiso   1.00
C913   C     0.64538   0.46010   0.76077   0.00000  Uiso   1.00
C914   C     0.35461   0.53993   0.73917   0.00000  Uiso   1.00
C915   C     0.52175   0.53570   0.54705   0.00000  Uiso   1.00
C916   C     0.52063   0.46447   0.95333   0.00000  Uiso   1.00
C917   C     0.48350   0.53634   0.95375   0.00000  Uiso   1.00
C918   C     0.48400   0.46425   0.54601   0.00000  Uiso   1.00
C919   C     0.52200   0.53529   0.59316   0.00000  Uiso   1.00
C920   C     0.51911   0.46328   0.90716   0.00000  Uiso   1.00
C921   C     0.48143   0.53580   0.90769   0.00000  Uiso   1.00
C922   C     0.58005   0.49999   0.74992   0.00000  Uiso   1.00
C923   C     0.48367   0.46321   0.59220   0.00000  Uiso   1.00
C924   C     0.50166   0.49969   0.61581   0.00000  Uiso   1.00
C925   C     0.50035   0.49978   0.88424   0.00000  Uiso   1.00
C926   C     0.50298   0.50023   0.52390   0.00000  Uiso   1.00
C927   C     0.50271   0.50064   0.97616   0.00000  Uiso   1.00
C928   C     0.62418   0.49998   0.74985   0.00000  Uiso   1.00
C929   C     0.37581   0.50004   0.75008   0.00000  Uiso   1.00
C930   C     0.58293   0.55940   0.62301   0.00000  Uiso   1.00
C931   C     0.51777   0.38795   0.88980   0.00000  Uiso   1.00
C932   C     0.41973   0.56063   0.88033   0.00000  Uiso   1.00
C933   C     0.50017   0.49996   0.66385   0.00000  Uiso   1.00
C934   C     0.48350   0.38784   0.60948   0.00000  Uiso   1.00
C935   C     0.50013   0.49997   0.83616   0.00000  Uiso   1.00
C936   C     0.47336   0.35736   0.77678   0.00000  Uiso   1.00
C937   C     0.52663   0.64264   0.72321   0.00000  Uiso   1.00
C938   C     0.52664   0.35732   0.72323   0.00000  Uiso   1.00
C939   C     0.47338   0.64269   0.77680   0.00000  Uiso   1.00
C940   C     0.35469   0.46013   0.76089   0.00000  Uiso   1.00
H941   H     0.45209   0.37562   0.79817   0.00000  Uiso   1.00
H942   H     0.62898   0.57080   0.73012   0.00000  Uiso   1.00
H943   H     0.62913   0.42915   0.76953   0.00000  Uiso   1.00
H944   H     0.37087   0.57088   0.73043   0.00000  Uiso   1.00
H945   H     0.59982   0.55518   0.59094   0.00000  Uiso   1.00
H946   H     0.59802   0.58756   0.64149   0.00000  Uiso   1.00
H947   H     0.58606   0.52822   0.64370   0.00000  Uiso   1.00
H948   H     0.53108   0.36239   0.86672   0.00000  Uiso   1.00
H949   H     0.48415   0.39163   0.88129   0.00000  Uiso   1.00
H950   H     0.52143   0.37463   0.92421   0.00000  Uiso   1.00
H951   H     0.40396   0.55654   0.91307   0.00000  Uiso   1.00
H952   H     0.54790   0.62440   0.70184   0.00000  Uiso   1.00
H953   H     0.40425   0.58902   0.86256   0.00000  Uiso   1.00
H954   H     0.41558   0.52955   0.85969   0.00000  Uiso   1.00
H955   H     0.46930   0.36257   0.63222   0.00000  Uiso   1.00
H956   H     0.51694   0.39102   0.61894   0.00000  Uiso   1.00
H957   H     0.48053   0.37447   0.57500   0.00000  Uiso   1.00
H958   H     0.54792   0.37554   0.70185   0.00000  Uiso   1.00
H959   H     0.45212   0.62447   0.79819   0.00000  Uiso   1.00
H960   H     0.53656   0.56336   0.52933   0.00000  Uiso   1.00
H961   H     0.53629   0.43760   0.97146   0.00000  Uiso   1.00
H962   H     0.46942   0.56409   0.97203   0.00000  Uiso   1.00
H963   H     0.46858   0.43764   0.52728   0.00000  Uiso   1.00
H964   H     0.37100   0.42920   0.76971   0.00000  Uiso   1.00
N965   N     0.50000   0.61907   0.75000   0.00000  Uiso   1.00
N966   N     0.50000   0.38093   0.75000   0.00000  Uiso   1.00
O967   O     0.43892   0.53821   0.75000   0.00000  Uiso   1.00
O968   O     0.53960   0.42912   0.88426   0.00000  Uiso   1.00
O969   O     0.46219   0.57143   0.88584   0.00000  Uiso   1.00
O970   O     0.46204   0.42937   0.61429   0.00000  Uiso   1.00
O971   O     0.56108   0.46179   0.75001   0.00000  Uiso   1.00
O972   O     0.56108   0.53821   0.75001   0.00000  Uiso   1.00
O973   O     0.43892   0.46179   0.75000   0.00000  Uiso   1.00
O974   O     0.50000   0.53822   0.68453   0.00000  Uiso   1.00
O975   O     0.50000   0.46178   0.81547   0.00000  Uiso   1.00
O976   O     0.50000   0.53822   0.81547   0.00000  Uiso   1.00
O977   O     0.50000   0.46178   0.68453   0.00000  Uiso   1.00
O978   O     0.54079   0.57070   0.61579   0.00000  Uiso   1.00
Zn979  Zn    0.50000   0.55104   0.75000   0.00000  Uiso   1.00
Zn980  Zn    0.50000   0.44896   0.75000   0.00000  Uiso   1.00
C981   C     0.75328   0.50001   0.75006   0.00000  Uiso   1.00
C982   C     0.97863   0.53989   0.73900   0.00000  Uiso   1.00
C983   C     0.97871   0.46010   0.76077   0.00000  Uiso   1.00
C984   C     0.68795   0.53993   0.73917   0.00000  Uiso   1.00
C985   C     0.85509   0.53570   0.54705   0.00000  Uiso   1.00
C986   C     0.85396   0.46447   0.95333   0.00000  Uiso   1.00
C987   C     0.81683   0.53634   0.95375   0.00000  Uiso   1.00
C988   C     0.81733   0.46425   0.54601   0.00000  Uiso   1.00
C989   C     0.85534   0.53529   0.59316   0.00000  Uiso   1.00
C990   C     0.85245   0.46328   0.90716   0.00000  Uiso   1.00
C991   C     0.81477   0.53580   0.90769   0.00000  Uiso   1.00
C992   C     0.91339   0.49999   0.74992   0.00000  Uiso   1.00
C993   C     0.81701   0.46321   0.59220   0.00000  Uiso   1.00
C994   C     0.83499   0.49969   0.61581   0.00000  Uiso   1.00
C995   C     0.83368   0.49978   0.88424   0.00000  Uiso   1.00
C996   C     0.83631   0.50023   0.52390   0.00000  Uiso   1.00
C997   C     0.83604   0.50064   0.97616   0.00000  Uiso   1.00
C998   C     0.95752   0.49998   0.74985   0.00000  Uiso   1.00
C999   C     0.70914   0.50004   0.75008   0.00000  Uiso   1.00
C1000  C     0.91626   0.55940   0.62301   0.00000  Uiso   1.00
C1001  C     0.85110   0.38795   0.88980   0.00000  Uiso   1.00
C1002  C     0.75306   0.56063   0.88033   0.00000  Uiso   1.00
C1003  C     0.83350   0.49996   0.66385   0.00000  Uiso   1.00
C1004  C     0.81684   0.38784   0.60948   0.00000  Uiso   1.00
C1005  C     0.83347   0.49997   0.83616   0.00000  Uiso   1.00
C1006  C     0.80670   0.35736   0.77678   0.00000  Uiso   1.00
C1007  C     0.85996   0.64264   0.72321   0.00000  Uiso   1.00
C1008  C     0.85998   0.35732   0.72323   0.00000  Uiso   1.00
C1009  C     0.80671   0.64269   0.77680   0.00000  Uiso   1.00
C1010  C     0.68802   0.46013   0.76089   0.00000  Uiso   1.00
H1011  H     0.78542   0.37562   0.79817   0.00000  Uiso   1.00
H1012  H     0.96231   0.57080   0.73012   0.00000  Uiso   1.00
H1013  H     0.96246   0.42915   0.76953   0.00000  Uiso   1.00
H1014  H     0.70420   0.57088   0.73043   0.00000  Uiso   1.00
H1015  H     0.93315   0.55518   0.59094   0.00000  Uiso   1.00
H1016  H     0.93136   0.58756   0.64149   0.00000  Uiso   1.00
H1017  H     0.91939   0.52822   0.64370   0.00000  Uiso   1.00
H1018  H     0.86441   0.36239   0.86672   0.00000  Uiso   1.00
H1019  H     0.81749   0.39163   0.88129   0.00000  Uiso   1.00
H1020  H     0.85477   0.37463   0.92421   0.00000  Uiso   1.00
H1021  H     0.73730   0.55654   0.91307   0.00000  Uiso   1.00
H1022  H     0.88124   0.62440   0.70184   0.00000  Uiso   1.00
H1023  H     0.73758   0.58902   0.86256   0.00000  Uiso   1.00
H1024  H     0.74891   0.52955   0.85969   0.00000  Uiso   1.00
H1025  H     0.80263   0.36257   0.63222   0.00000  Uiso   1.00
H1026  H     0.85027   0.39102   0.61894   0.00000  Uiso   1.00
H1027  H     0.81386   0.37447   0.57500   0.00000  Uiso   1.00
H1028  H     0.88126   0.37554   0.70185   0.00000  Uiso   1.00
H1029  H     0.78545   0.62447   0.79819   0.00000  Uiso   1.00
H1030  H     0.86989   0.56336   0.52933   0.00000  Uiso   1.00
H1031  H     0.86962   0.43760   0.97146   0.00000  Uiso   1.00
H1032  H     0.80275   0.56409   0.97203   0.00000  Uiso   1.00
H1033  H     0.80192   0.43764   0.52728   0.00000  Uiso   1.00
H1034  H     0.70433   0.42920   0.76971   0.00000  Uiso   1.00
N1035  N     0.83333   0.61907   0.75000   0.00000  Uiso   1.00
N1036  N     0.83333   0.38093   0.75000   0.00000  Uiso   1.00
O1037  O     0.77226   0.53821   0.75000   0.00000  Uiso   1.00
O1038  O     0.87294   0.42912   0.88426   0.00000  Uiso   1.00
O1039  O     0.79552   0.57143   0.88584   0.00000  Uiso   1.00
O1040  O     0.79538   0.42937   0.61429   0.00000  Uiso   1.00
O1041  O     0.89441   0.46179   0.75001   0.00000  Uiso   1.00
O1042  O     0.89441   0.53821   0.75001   0.00000  Uiso   1.00
O1043  O     0.77226   0.46179   0.75000   0.00000  Uiso   1.00
O1044  O     0.83333   0.53822   0.68453   0.00000  Uiso   1.00
O1045  O     0.83334   0.46178   0.81547   0.00000  Uiso   1.00
O1046  O     0.83334   0.53822   0.81547   0.00000  Uiso   1.00
O1047  O     0.83333   0.46178   0.68453   0.00000  Uiso   1.00
O1048  O     0.87412   0.57070   0.61579   0.00000  Uiso   1.00
Zn1049 Zn    0.83333   0.55104   0.75000   0.00000  Uiso   1.00
Zn1050 Zn    0.83333   0.44896   0.75000   0.00000  Uiso   1.00
C1051  C     0.08661   0.83335   0.75006   0.00000  Uiso   1.00
C1052  C     0.31197   0.87322   0.73900   0.00000  Uiso   1.00
C1053  C     0.31205   0.79343   0.76077   0.00000  Uiso   1.00
C1054  C     0.02128   0.87327   0.73917   0.00000  Uiso   1.00
C1055  C     0.18842   0.86903   0.54705   0.00000  Uiso   1.00
C1056  C     0.18729   0.79781   0.95333   0.00000  Uiso   1.00
C1057  C     0.15017   0.86967   0.95375   0.00000  Uiso   1.00
C1058  C     0.15067   0.79759   0.54601   0.00000  Uiso   1.00
C1059  C     0.18867   0.86862   0.59316   0.00000  Uiso   1.00
C1060  C     0.18578   0.79661   0.90716   0.00000  Uiso   1.00
C1061  C     0.14810   0.86914   0.90769   0.00000  Uiso   1.00
C1062  C     0.24672   0.83333   0.74992   0.00000  Uiso   1.00
C1063  C     0.15034   0.79655   0.59220   0.00000  Uiso   1.00
C1064  C     0.16832   0.83302   0.61581   0.00000  Uiso   1.00
C1065  C     0.16702   0.83311   0.88424   0.00000  Uiso   1.00
C1066  C     0.16965   0.83356   0.52390   0.00000  Uiso   1.00
C1067  C     0.16938   0.83397   0.97616   0.00000  Uiso   1.00
C1068  C     0.29085   0.83332   0.74985   0.00000  Uiso   1.00
C1069  C     0.04248   0.83337   0.75008   0.00000  Uiso   1.00
C1070  C     0.24960   0.89273   0.62301   0.00000  Uiso   1.00
C1071  C     0.18443   0.72128   0.88980   0.00000  Uiso   1.00
C1072  C     0.08640   0.89397   0.88033   0.00000  Uiso   1.00
C1073  C     0.16684   0.83329   0.66385   0.00000  Uiso   1.00
C1074  C     0.15017   0.72118   0.60948   0.00000  Uiso   1.00
C1075  C     0.16680   0.83330   0.83616   0.00000  Uiso   1.00
C1076  C     0.14003   0.69069   0.77678   0.00000  Uiso   1.00
C1077  C     0.19329   0.97598   0.72321   0.00000  Uiso   1.00
C1078  C     0.19331   0.69065   0.72323   0.00000  Uiso   1.00
C1079  C     0.14005   0.97602   0.77680   0.00000  Uiso   1.00
C1080  C     0.02135   0.79346   0.76089   0.00000  Uiso   1.00
H1081  H     0.11876   0.70895   0.79817   0.00000  Uiso   1.00
H1082  H     0.29564   0.90414   0.73012   0.00000  Uiso   1.00
H1083  H     0.29579   0.76248   0.76953   0.00000  Uiso   1.00
H1084  H     0.03754   0.90422   0.73043   0.00000  Uiso   1.00
H1085  H     0.26649   0.88852   0.59094   0.00000  Uiso   1.00
H1086  H     0.26469   0.92090   0.64149   0.00000  Uiso   1.00
H1087  H     0.25272   0.86156   0.64370   0.00000  Uiso   1.00
H1088  H     0.19775   0.69572   0.86672   0.00000  Uiso   1.00
H1089  H     0.15082   0.72497   0.88129   0.00000  Uiso   1.00
H1090  H     0.18810   0.70796   0.92421   0.00000  Uiso   1.00
H1091  H     0.07063   0.88987   0.91307   0.00000  Uiso   1.00
H1092  H     0.21457   0.95773   0.70184   0.00000  Uiso   1.00
H1093  H     0.07092   0.92236   0.86256   0.00000  Uiso   1.00
H1094  H     0.08225   0.86288   0.85969   0.00000  Uiso   1.00
H1095  H     0.13597   0.69591   0.63222   0.00000  Uiso   1.00
H1096  H     0.18361   0.72435   0.61894   0.00000  Uiso   1.00
H1097  H     0.14719   0.70780   0.57500   0.00000  Uiso   1.00
H1098  H     0.21459   0.70887   0.70185   0.00000  Uiso   1.00
H1099  H     0.11878   0.95781   0.79819   0.00000  Uiso   1.00
H1100  H     0.20323   0.89670   0.52933   0.00000  Uiso   1.00
H1101  H     0.20296   0.77094   0.97146   0.00000  Uiso   1.00
H1102  H     0.13608   0.89743   0.97203   0.00000  Uiso   1.00
H1103  H     0.13525   0.77097   0.52728   0.00000  Uiso   1.00
H1104  H     0.03767   0.76253   0.76971   0.00000  Uiso   1.00
N1105  N     0.16667   0.95240   0.75000   0.00000  Uiso   1.00
N1106  N     0.16667   0.71427   0.75000   0.00000  Uiso   1.00
O1107  O     0.10559   0.87154   0.75000   0.00000  Uiso   1.00
O1108  O     0.20627   0.76245   0.88426   0.00000  Uiso   1.00
O1109  O     0.12886   0.90476   0.88584   0.00000  Uiso   1.00
O1110  O     0.12871   0.76270   0.61429   0.00000  Uiso   1.00
O1111  O     0.22774   0.79513   0.75001   0.00000  Uiso   1.00
O1112  O     0.22774   0.87154   0.75001   0.00000  Uiso   1.00
O1113  O     0.10559   0.79513   0.75000   0.00000  Uiso   1.00
O1114  O     0.16666   0.87155   0.68453   0.00000  Uiso   1.00
O1115  O     0.16667   0.79511   0.81547   0.00000  Uiso   1.00
O1116  O     0.16667   0.87155   0.81547   0.00000  Uiso   1.00
O1117  O     0.16666   0.79511   0.68453   0.00000  Uiso   1.00
O1118  O     0.20746   0.90403   0.61579   0.00000  Uiso   1.00
Zn1119 Zn    0.16667   0.88437   0.75000   0.00000  Uiso   1.00
Zn1120 Zn    0.16667   0.78229   0.75000   0.00000  Uiso   1.00
C1121  C     0.41994   0.83335   0.75006   0.00000  Uiso   1.00
C1122  C     0.64530   0.87322   0.73900   0.00000  Uiso   1.00
C1123  C     0.64538   0.79343   0.76077   0.00000  Uiso   1.00
C1124  C     0.35461   0.87327   0.73917   0.00000  Uiso   1.00
C1125  C     0.52175   0.86903   0.54705   0.00000  Uiso   1.00
C1126  C     0.52063   0.79781   0.95333   0.00000  Uiso   1.00
C1127  C     0.48350   0.86967   0.95375   0.00000  Uiso   1.00
C1128  C     0.48400   0.79759   0.54601   0.00000  Uiso   1.00
C1129  C     0.52200   0.86862   0.59316   0.00000  Uiso   1.00
C1130  C     0.51911   0.79661   0.90716   0.00000  Uiso   1.00
C1131  C     0.48143   0.86914   0.90769   0.00000  Uiso   1.00
C1132  C     0.58005   0.83333   0.74992   0.00000  Uiso   1.00
C1133  C     0.48367   0.79655   0.59220   0.00000  Uiso   1.00
C1134  C     0.50166   0.83302   0.61581   0.00000  Uiso   1.00
C1135  C     0.50035   0.83311   0.88424   0.00000  Uiso   1.00
C1136  C     0.50298   0.83356   0.52390   0.00000  Uiso   1.00
C1137  C     0.50271   0.83397   0.97616   0.00000  Uiso   1.00
C1138  C     0.62418   0.83332   0.74985   0.00000  Uiso   1.00
C1139  C     0.37581   0.83337   0.75008   0.00000  Uiso   1.00
C1140  C     0.58293   0.89273   0.62301   0.00000  Uiso   1.00
C1141  C     0.51777   0.72128   0.88980   0.00000  Uiso   1.00
C1142  C     0.41973   0.89397   0.88033   0.00000  Uiso   1.00
C1143  C     0.50017   0.83329   0.66385   0.00000  Uiso   1.00
C1144  C     0.48350   0.72118   0.60948   0.00000  Uiso   1.00
C1145  C     0.50013   0.83330   0.83616   0.00000  Uiso   1.00
C1146  C     0.47336   0.69069   0.77678   0.00000  Uiso   1.00
C1147  C     0.52663   0.97598   0.72321   0.00000  Uiso   1.00
C1148  C     0.52664   0.69065   0.72323   0.00000  Uiso   1.00
C1149  C     0.47338   0.97602   0.77680   0.00000  Uiso   1.00
C1150  C     0.35469   0.79346   0.76089   0.00000  Uiso   1.00
H1151  H     0.45209   0.70895   0.79817   0.00000  Uiso   1.00
H1152  H     0.62898   0.90414   0.73012   0.00000  Uiso   1.00
H1153  H     0.62913   0.76248   0.76953   0.00000  Uiso   1.00
H1154  H     0.37087   0.90422   0.73043   0.00000  Uiso   1.00
H1155  H     0.59982   0.88852   0.59094   0.00000  Uiso   1.00
H1156  H     0.59802   0.92090   0.64149   0.00000  Uiso   1.00
H1157  H     0.58606   0.86156   0.64370   0.00000  Uiso   1.00
H1158  H     0.53108   0.69572   0.86672   0.00000  Uiso   1.00
H1159  H     0.48415   0.72497   0.88129   0.00000  Uiso   1.00
H1160  H     0.52143   0.70796   0.92421   0.00000  Uiso   1.00
H1161  H     0.40396   0.88987   0.91307   0.00000  Uiso   1.00
H1162  H     0.54790   0.95773   0.70184   0.00000  Uiso   1.00
H1163  H     0.40425   0.92236   0.86256   0.00000  Uiso   1.00
H1164  H     0.41558   0.86288   0.85969   0.00000  Uiso   1.00
H1165  H     0.46930   0.69591   0.63222   0.00000  Uiso   1.00
H1166  H     0.51694   0.72435   0.61894   0.00000  Uiso   1.00
H1167  H     0.48053   0.70780   0.57500   0.00000  Uiso   1.00
H1168  H     0.54792   0.70887   0.70185   0.00000  Uiso   1.00
H1169  H     0.45212   0.95781   0.79819   0.00000  Uiso   1.00
H1170  H     0.53656   0.89670   0.52933   0.00000  Uiso   1.00
H1171  H     0.53629   0.77094   0.97146   0.00000  Uiso   1.00
H1172  H     0.46942   0.89743   0.97203   0.00000  Uiso   1.00
H1173  H     0.46858   0.77097   0.52728   0.00000  Uiso   1.00
H1174  H     0.37100   0.76253   0.76971   0.00000  Uiso   1.00
N1175  N     0.50000   0.95240   0.75000   0.00000  Uiso   1.00
N1176  N     0.50000   0.71427   0.75000   0.00000  Uiso   1.00
O1177  O     0.43892   0.87154   0.75000   0.00000  Uiso   1.00
O1178  O     0.53960   0.76245   0.88426   0.00000  Uiso   1.00
O1179  O     0.46219   0.90476   0.88584   0.00000  Uiso   1.00
O1180  O     0.46204   0.76270   0.61429   0.00000  Uiso   1.00
O1181  O     0.56108   0.79513   0.75001   0.00000  Uiso   1.00
O1182  O     0.56108   0.87154   0.75001   0.00000  Uiso   1.00
O1183  O     0.43892   0.79513   0.75000   0.00000  Uiso   1.00
O1184  O     0.50000   0.87155   0.68453   0.00000  Uiso   1.00
O1185  O     0.50000   0.79511   0.81547   0.00000  Uiso   1.00
O1186  O     0.50000   0.87155   0.81547   0.00000  Uiso   1.00
O1187  O     0.50000   0.79511   0.68453   0.00000  Uiso   1.00
O1188  O     0.54079   0.90403   0.61579   0.00000  Uiso   1.00
Zn1189 Zn    0.50000   0.88437   0.75000   0.00000  Uiso   1.00
Zn1190 Zn    0.50000   0.78229   0.75000   0.00000  Uiso   1.00
C1191  C     0.75328   0.83335   0.75006   0.00000  Uiso   1.00
C1192  C     0.97863   0.87322   0.73900   0.00000  Uiso   1.00
C1193  C     0.97871   0.79343   0.76077   0.00000  Uiso   1.00
C1194  C     0.68795   0.87327   0.73917   0.00000  Uiso   1.00
C1195  C     0.85509   0.86903   0.54705   0.00000  Uiso   1.00
C1196  C     0.85396   0.79781   0.95333   0.00000  Uiso   1.00
C1197  C     0.81683   0.86967   0.95375   0.00000  Uiso   1.00
C1198  C     0.81733   0.79759   0.54601   0.00000  Uiso   1.00
C1199  C     0.85534   0.86862   0.59316   0.00000  Uiso   1.00
C1200  C     0.85245   0.79661   0.90716   0.00000  Uiso   1.00
C1201  C     0.81477   0.86914   0.90769   0.00000  Uiso   1.00
C1202  C     0.91339   0.83333   0.74992   0.00000  Uiso   1.00
C1203  C     0.81701   0.79655   0.59220   0.00000  Uiso   1.00
C1204  C     0.83499   0.83302   0.61581   0.00000  Uiso   1.00
C1205  C     0.83368   0.83311   0.88424   0.00000  Uiso   1.00
C1206  C     0.83631   0.83356   0.52390   0.00000  Uiso   1.00
C1207  C     0.83604   0.83397   0.97616   0.00000  Uiso   1.00
C1208  C     0.95752   0.83332   0.74985   0.00000  Uiso   1.00
C1209  C     0.70914   0.83337   0.75008   0.00000  Uiso   1.00
C1210  C     0.91626   0.89273   0.62301   0.00000  Uiso   1.00
C1211  C     0.85110   0.72128   0.88980   0.00000  Uiso   1.00
C1212  C     0.75306   0.89397   0.88033   0.00000  Uiso   1.00
C1213  C     0.83350   0.83329   0.66385   0.00000  Uiso   1.00
C1214  C     0.81684   0.72118   0.60948   0.00000  Uiso   1.00
C1215  C     0.83347   0.83330   0.83616   0.00000  Uiso   1.00
C1216  C     0.80670   0.69069   0.77678   0.00000  Uiso   1.00
C1217  C     0.85996   0.97598   0.72321   0.00000  Uiso   1.00
C1218  C     0.85998   0.69065   0.72323   0.00000  Uiso   1.00
C1219  C     0.80671   0.97602   0.77680   0.00000  Uiso   1.00
C1220  C     0.68802   0.79346   0.76089   0.00000  Uiso   1.00
H1221  H     0.78542   0.70895   0.79817   0.00000  Uiso   1.00
H1222  H     0.96231   0.90414   0.73012   0.00000  Uiso   1.00
H1223  H     0.96246   0.76248   0.76953   0.00000  Uiso   1.00
H1224  H     0.70420   0.90422   0.73043   0.00000  Uiso   1.00
H1225  H     0.93315   0.88852   0.59094   0.00000  Uiso   1.00
H1226  H     0.93136   0.92090   0.64149   0.00000  Uiso   1.00
H1227  H     0.91939   0.86156   0.64370   0.00000  Uiso   1.00
H1228  H     0.86441   0.69572   0.86672   0.00000  Uiso   1.00
H1229  H     0.81749   0.72497   0.88129   0.00000  Uiso   1.00
H1230  H     0.85477   0.70796   0.92421   0.00000  Uiso   1.00
H1231  H     0.73730   0.88987   0.91307   0.00000  Uiso   1.00
H1232  H     0.88124   0.95773   0.70184   0.00000  Uiso   1.00
H1233  H     0.73758   0.92236   0.86256   0.00000  Uiso   1.00
H1234  H     0.74891   0.86288   0.85969   0.00000  Uiso   1.00
H1235  H     0.80263   0.69591   0.63222   0.00000  Uiso   1.00
H1236  H     0.85027   0.72435   0.61894   0.00000  Uiso   1.00
H1237  H     0.81386   0.70780   0.57500   0.00000  Uiso   1.00
H1238  H     0.88126   0.70887   0.70185   0.00000  Uiso   1.00
H1239  H     0.78545   0.95781   0.79819   0.00000  Uiso   1.00
H1240  H     0.86989   0.89670   0.52933   0.00000  Uiso   1.00
H1241  H     0.86962   0.77094   0.97146   0.00000  Uiso   1.00
H1242  H     0.80275   0.89743   0.97203   0.00000  Uiso   1.00
H1243  H     0.80192   0.77097   0.52728   0.00000  Uiso   1.00
H1244  H     0.70433   0.76253   0.76971   0.00000  Uiso   1.00
N1245  N     0.83333   0.95240   0.75000   0.00000  Uiso   1.00
N1246  N     0.83333   0.71427   0.75000   0.00000  Uiso   1.00
O1247  O     0.77226   0.87154   0.75000   0.00000  Uiso   1.00
O1248  O     0.87294   0.76245   0.88426   0.00000  Uiso   1.00
O1249  O     0.79552   0.90476   0.88584   0.00000  Uiso   1.00
O1250  O     0.79538   0.76270   0.61429   0.00000  Uiso   1.00
O1251  O     0.89441   0.79513   0.75001   0.00000  Uiso   1.00
O1252  O     0.89441   0.87154   0.75001   0.00000  Uiso   1.00
O1253  O     0.77226   0.79513   0.75000   0.00000  Uiso   1.00
O1254  O     0.83333   0.87155   0.68453   0.00000  Uiso   1.00
O1255  O     0.83334   0.79511   0.81547   0.00000  Uiso   1.00
O1256  O     0.83334   0.87155   0.81547   0.00000  Uiso   1.00
O1257  O     0.83333   0.79511   0.68453   0.00000  Uiso   1.00
O1258  O     0.87412   0.90403   0.61579   0.00000  Uiso   1.00
Zn1259 Zn    0.83333   0.88437   0.75000   0.00000  Uiso   1.00
Zn1260 Zn    0.83333   0.78229   0.75000   0.00000  Uiso   1.00
loop_
_geom_bond_atom_site_label_1
_geom_bond_atom_site_label_2
_geom_bond_distance
_geom_bond_site_symmetry_2
_ccdc_geom_bond_type
C1     O57     1.280   .     A
C1     O63     1.280   .     A
C1     C19     1.418   .     S
C2     C18     1.397   .     A
C2     H32     1.084   .     S
C2     C74     1.370   .     S
C3     C18     1.397   .     A
C3     H33     1.084   .     S
C3     C100    1.370   .     S
C4     C19     1.397   .     A
C4     H34     1.084   .     S
C4     C142    1.370   1_455 S
C5     C9      1.385   .     A
C5     H50     1.084   .     S
C5     C16     1.392   .     A
C6     C10     1.387   .     A
C6     H51     1.084   .     S
C6     C17     1.392   .     A
C7     C11     1.384   .     A
C7     H52     1.084   .     S
C7     C17     1.392   .     A
C8     C13     1.387   .     A
C8     H53     1.084   .     S
C8     C16     1.392   .     A
C9     C14     1.412   .     A
C9     O68     1.383   .     S
C10    O58     1.386   .     S
C10    C15     1.411   .     A
C11    O59     1.383   .     S
C11    C15     1.412   .     A
C12    O61     1.280   .     A
C12    C18     1.418   .     S
C12    O62     1.280   .     A
C13    C14     1.410   .     A
C13    O60     1.386   .     S
C14    C23     1.443   .     S
C15    C25     1.444   .     S
C16    C647    1.433   1_554 S
C17    C646    1.433   .     S
C19    C30     1.397   .     A
C20    H37     1.114   .     S
C20    O68     1.410   .     S
C20    H35     1.113   .     S
C20    H36     1.109   .     S
C21    H39     1.114   .     S
C21    O58     1.412   .     S
C21    H40     1.111   .     S
C21    H38     1.109   .     S
C22    H43     1.109   .     S
C22    O59     1.410   .     S
C22    H41     1.113   .     S
C22    H44     1.114   .     S
C23    O64     1.287   .     A
C23    O67     1.285   .     A
C24    O60     1.412   .     S
C24    H46     1.114   .     S
C24    H45     1.109   .     S
C24    H47     1.111   .     S
C25    O65     1.285   .     A
C25    O66     1.287   .     A
C26    H31     1.082   .     S
C26    N56     1.366   .     A
C26    C449    1.415   1_545 S
C27    H42     1.081   .     S
C27    N55     1.366   .     A
C27    C238    1.415   .     S
C28    N56     1.366   .     A
C28    H48     1.082   .     S
C28    C447    1.415   1_545 S
C29    H49     1.081   .     S
C29    N55     1.366   .     A
C29    C236    1.415   .     S
C30    H54     1.084   .     S
C30    C143    1.370   1_455 S
N55    Zn69    2.004   .     S
N56    Zn70    2.004   .     S
O57    Zn69    1.998   .     S
O61    Zn70    1.998   .     S
O62    Zn69    1.998   .     S
O63    Zn70    1.998   .     S
O64    Zn69    2.001   .     S
O65    Zn70    2.001   .     S
O66    Zn69    2.002   .     S
O67    Zn70    2.002   .     S
C71    O127    1.280   .     A
C71    O133    1.280   .     A
C71    C89     1.418   .     S
C72    C88     1.397   .     A
C72    H102    1.084   .     S
C72    C144    1.370   .     S
C73    C88     1.397   .     A
C73    H103    1.084   .     S
C73    C170    1.370   .     S
C74    C89     1.397   .     A
C74    H104    1.084   .     S
C75    C79     1.385   .     A
C75    H120    1.084   .     S
C75    C86     1.392   .     A
C76    C80     1.387   .     A
C76    H121    1.084   .     S
C76    C87     1.392   .     A
C77    C81     1.384   .     A
C77    H122    1.084   .     S
C77    C87     1.392   .     A
C78    C83     1.387   .     A
C78    H123    1.084   .     S
C78    C86     1.392   .     A
C79    C84     1.412   .     A
C79    O138    1.383   .     S
C80    O128    1.386   .     S
C80    C85     1.411   .     A
C81    O129    1.383   .     S
C81    C85     1.412   .     A
C82    O131    1.280   .     A
C82    C88     1.418   .     S
C82    O132    1.280   .     A
C83    C84     1.410   .     A
C83    O130    1.386   .     S
C84    C93     1.443   .     S
C85    C95     1.444   .     S
C86    C717    1.433   1_554 S
C87    C716    1.433   .     S
C89    C100    1.397   .     A
C90    H107    1.114   .     S
C90    O138    1.410   .     S
C90    H105    1.113   .     S
C90    H106    1.109   .     S
C91    H109    1.114   .     S
C91    O128    1.412   .     S
C91    H110    1.111   .     S
C91    H108    1.109   .     S
C92    H113    1.109   .     S
C92    O129    1.410   .     S
C92    H111    1.113   .     S
C92    H114    1.114   .     S
C93    O134    1.287   .     A
C93    O137    1.285   .     A
C94    O130    1.412   .     S
C94    H116    1.114   .     S
C94    H115    1.109   .     S
C94    H117    1.111   .     S
C95    O135    1.285   .     A
C95    O136    1.287   .     A
C96    H101    1.082   .     S
C96    N126    1.366   .     A
C96    C519    1.415   1_545 S
C97    H112    1.081   .     S
C97    N125    1.366   .     A
C97    C308    1.415   .     S
C98    N126    1.366   .     A
C98    H118    1.082   .     S
C98    C517    1.415   1_545 S
C99    H119    1.081   .     S
C99    N125    1.366   .     A
C99    C306    1.415   .     S
C100   H124    1.084   .     S
N125   Zn139   2.004   .     S
N126   Zn140   2.004   .     S
O127   Zn139   1.998   .     S
O131   Zn140   1.998   .     S
O132   Zn139   1.998   .     S
O133   Zn140   1.998   .     S
O134   Zn139   2.001   .     S
O135   Zn140   2.001   .     S
O136   Zn139   2.002   .     S
O137   Zn140   2.002   .     S
C141   O197    1.280   .     A
C141   O203    1.280   .     A
C141   C159    1.418   .     S
C142   C158    1.397   .     A
C142   H172    1.084   .     S
C142   C4      1.370   1_655 S
C143   C158    1.397   .     A
C143   H173    1.084   .     S
C143   C30     1.370   1_655 S
C144   C159    1.397   .     A
C144   H174    1.084   .     S
C145   C149    1.385   .     A
C145   H190    1.084   .     S
C145   C156    1.392   .     A
C146   C150    1.387   .     A
C146   H191    1.084   .     S
C146   C157    1.392   .     A
C147   C151    1.384   .     A
C147   H192    1.084   .     S
C147   C157    1.392   .     A
C148   C153    1.387   .     A
C148   H193    1.084   .     S
C148   C156    1.392   .     A
C149   C154    1.412   .     A
C149   O208    1.383   .     S
C150   O198    1.386   .     S
C150   C155    1.411   .     A
C151   O199    1.383   .     S
C151   C155    1.412   .     A
C152   O201    1.280   .     A
C152   C158    1.418   .     S
C152   O202    1.280   .     A
C153   C154    1.410   .     A
C153   O200    1.386   .     S
C154   C163    1.443   .     S
C155   C165    1.444   .     S
C156   C787    1.433   1_554 S
C157   C786    1.433   .     S
C159   C170    1.397   .     A
C160   H177    1.114   .     S
C160   O208    1.410   .     S
C160   H175    1.113   .     S
C160   H176    1.109   .     S
C161   H179    1.114   .     S
C161   O198    1.412   .     S
C161   H180    1.111   .     S
C161   H178    1.109   .     S
C162   H183    1.109   .     S
C162   O199    1.410   .     S
C162   H181    1.113   .     S
C162   H184    1.114   .     S
C163   O204    1.287   .     A
C163   O207    1.285   .     A
C164   O200    1.412   .     S
C164   H186    1.114   .     S
C164   H185    1.109   .     S
C164   H187    1.111   .     S
C165   O205    1.285   .     A
C165   O206    1.287   .     A
C166   H171    1.082   .     S
C166   N196    1.366   .     A
C166   C589    1.415   1_545 S
C167   H182    1.081   .     S
C167   N195    1.366   .     A
C167   C378    1.415   .     S
C168   N196    1.366   .     A
C168   H188    1.082   .     S
C168   C587    1.415   1_545 S
C169   H189    1.081   .     S
C169   N195    1.366   .     A
C169   C376    1.415   .     S
C170   H194    1.084   .     S
N195   Zn209   2.004   .     S
N196   Zn210   2.004   .     S
O197   Zn209   1.998   .     S
O201   Zn210   1.998   .     S
O202   Zn209   1.998   .     S
O203   Zn210   1.998   .     S
O204   Zn209   2.001   .     S
O205   Zn210   2.001   .     S
O206   Zn209   2.002   .     S
O207   Zn210   2.002   .     S
C211   O267    1.280   .     A
C211   O273    1.280   .     A
C211   C229    1.418   .     S
C212   C228    1.397   .     A
C212   H242    1.084   .     S
C212   C284    1.370   .     S
C213   C228    1.397   .     A
C213   H243    1.084   .     S
C213   C310    1.370   .     S
C214   C229    1.397   .     A
C214   H244    1.084   .     S
C214   C352    1.370   1_455 S
C215   C219    1.385   .     A
C215   H260    1.084   .     S
C215   C226    1.392   .     A
C216   C220    1.387   .     A
C216   H261    1.084   .     S
C216   C227    1.392   .     A
C217   C221    1.384   .     A
C217   H262    1.084   .     S
C217   C227    1.392   .     A
C218   C223    1.387   .     A
C218   H263    1.084   .     S
C218   C226    1.392   .     A
C219   C224    1.412   .     A
C219   O278    1.383   .     S
C220   O268    1.386   .     S
C220   C225    1.411   .     A
C221   O269    1.383   .     S
C221   C225    1.412   .     A
C222   O271    1.280   .     A
C222   C228    1.418   .     S
C222   O272    1.280   .     A
C223   C224    1.410   .     A
C223   O270    1.386   .     S
C224   C233    1.443   .     S
C225   C235    1.444   .     S
C226   C857    1.433   1_554 S
C227   C856    1.433   .     S
C229   C240    1.397   .     A
C230   H247    1.114   .     S
C230   O278    1.410   .     S
C230   H245    1.113   .     S
C230   H246    1.109   .     S
C231   H249    1.114   .     S
C231   O268    1.412   .     S
C231   H250    1.111   .     S
C231   H248    1.109   .     S
C232   H253    1.109   .     S
C232   O269    1.410   .     S
C232   H251    1.113   .     S
C232   H254    1.114   .     S
C233   O274    1.287   .     A
C233   O277    1.285   .     A
C234   O270    1.412   .     S
C234   H256    1.114   .     S
C234   H255    1.109   .     S
C234   H257    1.111   .     S
C235   O275    1.285   .     A
C235   O276    1.287   .     A
C236   H241    1.082   .     S
C236   N266    1.366   .     A
C237   H252    1.081   .     S
C237   N265    1.366   .     A
C237   C448    1.415   .     S
C238   N266    1.366   .     A
C238   H258    1.082   .     S
C239   H259    1.081   .     S
C239   N265    1.366   .     A
C239   C446    1.415   .     S
C240   H264    1.084   .     S
C240   C353    1.370   1_455 S
N265   Zn279   2.004   .     S
N266   Zn280   2.004   .     S
O267   Zn279   1.998   .     S
O271   Zn280   1.998   .     S
O272   Zn279   1.998   .     S
O273   Zn280   1.998   .     S
O274   Zn279   2.001   .     S
O275   Zn280   2.001   .     S
O276   Zn279   2.002   .     S
O277   Zn280   2.002   .     S
C281   O337    1.280   .     A
C281   O343    1.280   .     A
C281   C299    1.418   .     S
C282   C298    1.397   .     A
C282   H312    1.084   .     S
C282   C354    1.370   .     S
C283   C298    1.397   .     A
C283   H313    1.084   .     S
C283   C380    1.370   .     S
C284   C299    1.397   .     A
C284   H314    1.084   .     S
C285   C289    1.385   .     A
C285   H330    1.084   .     S
C285   C296    1.392   .     A
C286   C290    1.387   .     A
C286   H331    1.084   .     S
C286   C297    1.392   .     A
C287   C291    1.384   .     A
C287   H332    1.084   .     S
C287   C297    1.392   .     A
C288   C293    1.387   .     A
C288   H333    1.084   .     S
C288   C296    1.392   .     A
C289   C294    1.412   .     A
C289   O348    1.383   .     S
C290   O338    1.386   .     S
C290   C295    1.411   .     A
C291   O339    1.383   .     S
C291   C295    1.412   .     A
C292   O341    1.280   .     A
C292   C298    1.418   .     S
C292   O342    1.280   .     A
C293   C294    1.410   .     A
C293   O340    1.386   .     S
C294   C303    1.443   .     S
C295   C305    1.444   .     S
C296   C927    1.433   1_554 S
C297   C926    1.433   .     S
C299   C310    1.397   .     A
C300   H317    1.114   .     S
C300   O348    1.410   .     S
C300   H315    1.113   .     S
C300   H316    1.109   .     S
C301   H319    1.114   .     S
C301   O338    1.412   .     S
C301   H320    1.111   .     S
C301   H318    1.109   .     S
C302   H323    1.109   .     S
C302   O339    1.410   .     S
C302   H321    1.113   .     S
C302   H324    1.114   .     S
C303   O344    1.287   .     A
C303   O347    1.285   .     A
C304   O340    1.412   .     S
C304   H326    1.114   .     S
C304   H325    1.109   .     S
C304   H327    1.111   .     S
C305   O345    1.285   .     A
C305   O346    1.287   .     A
C306   H311    1.082   .     S
C306   N336    1.366   .     A
C307   H322    1.081   .     S
C307   N335    1.366   .     A
C307   C518    1.415   .     S
C308   N336    1.366   .     A
C308   H328    1.082   .     S
C309   H329    1.081   .     S
C309   N335    1.366   .     A
C309   C516    1.415   .     S
C310   H334    1.084   .     S
N335   Zn349   2.004   .     S
N336   Zn350   2.004   .     S
O337   Zn349   1.998   .     S
O341   Zn350   1.998   .     S
O342   Zn349   1.998   .     S
O343   Zn350   1.998   .     S
O344   Zn349   2.001   .     S
O345   Zn350   2.001   .     S
O346   Zn349   2.002   .     S
O347   Zn350   2.002   .     S
C351   O407    1.280   .     A
C351   O413    1.280   .     A
C351   C369    1.418   .     S
C352   C368    1.397   .     A
C352   H382    1.084   .     S
C352   C214    1.370   1_655 S
C353   C368    1.397   .     A
C353   H383    1.084   .     S
C353   C240    1.370   1_655 S
C354   C369    1.397   .     A
C354   H384    1.084   .     S
C355   C359    1.385   .     A
C355   H400    1.084   .     S
C355   C366    1.392   .     A
C356   C360    1.387   .     A
C356   H401    1.084   .     S
C356   C367    1.392   .     A
C357   C361    1.384   .     A
C357   H402    1.084   .     S
C357   C367    1.392   .     A
C358   C363    1.387   .     A
C358   H403    1.084   .     S
C358   C366    1.392   .     A
C359   C364    1.412   .     A
C359   O418    1.383   .     S
C360   O408    1.386   .     S
C360   C365    1.411   .     A
C361   O409    1.383   .     S
C361   C365    1.412   .     A
C362   O411    1.280   .     A
C362   C368    1.418   .     S
C362   O412    1.280   .     A
C363   C364    1.410   .     A
C363   O410    1.386   .     S
C364   C373    1.443   .     S
C365   C375    1.444   .     S
C366   C997    1.433   1_554 S
C367   C996    1.433   .     S
C369   C380    1.397   .     A
C370   H387    1.114   .     S
C370   O418    1.410   .     S
C370   H385    1.113   .     S
C370   H386    1.109   .     S
C371   H389    1.114   .     S
C371   O408    1.412   .     S
C371   H390    1.111   .     S
C371   H388    1.109   .     S
C372   H393    1.109   .     S
C372   O409    1.410   .     S
C372   H391    1.113   .     S
C372   H394    1.114   .     S
C373   O414    1.287   .     A
C373   O417    1.285   .     A
C374   O410    1.412   .     S
C374   H396    1.114   .     S
C374   H395    1.109   .     S
C374   H397    1.111   .     S
C375   O415    1.285   .     A
C375   O416    1.287   .     A
C376   H381    1.082   .     S
C376   N406    1.366   .     A
C377   H392    1.081   .     S
C377   N405    1.366   .     A
C377   C588    1.415   .     S
C378   N406    1.366   .     A
C378   H398    1.082   .     S
C379   H399    1.081   .     S
C379   N405    1.366   .     A
C379   C586    1.415   .     S
C380   H404    1.084   .     S
N405   Zn419   2.004   .     S
N406   Zn420   2.004   .     S
O407   Zn419   1.998   .     S
O411   Zn420   1.998   .     S
O412   Zn419   1.998   .     S
O413   Zn420   1.998   .     S
O414   Zn419   2.001   .     S
O415   Zn420   2.001   .     S
O416   Zn419   2.002   .     S
O417   Zn420   2.002   .     S
C421   O477    1.280   .     A
C421   O483    1.280   .     A
C421   C439    1.418   .     S
C422   C438    1.397   .     A
C422   H452    1.084   .     S
C422   C494    1.370   .     S
C423   C438    1.397   .     A
C423   H453    1.084   .     S
C423   C520    1.370   .     S
C424   C439    1.397   .     A
C424   H454    1.084   .     S
C424   C562    1.370   1_455 S
C425   C429    1.385   .     A
C425   H470    1.084   .     S
C425   C436    1.392   .     A
C426   C430    1.387   .     A
C426   H471    1.084   .     S
C426   C437    1.392   .     A
C427   C431    1.384   .     A
C427   H472    1.084   .     S
C427   C437    1.392   .     A
C428   C433    1.387   .     A
C428   H473    1.084   .     S
C428   C436    1.392   .     A
C429   C434    1.412   .     A
C429   O488    1.383   .     S
C430   O478    1.386   .     S
C430   C435    1.411   .     A
C431   O479    1.383   .     S
C431   C435    1.412   .     A
C432   O481    1.280   .     A
C432   C438    1.418   .     S
C432   O482    1.280   .     A
C433   C434    1.410   .     A
C433   O480    1.386   .     S
C434   C443    1.443   .     S
C435   C445    1.444   .     S
C436   C1067   1.433   1_554 S
C437   C1066   1.433   .     S
C439   C450    1.397   .     A
C440   H457    1.114   .     S
C440   O488    1.410   .     S
C440   H455    1.113   .     S
C440   H456    1.109   .     S
C441   H459    1.114   .     S
C441   O478    1.412   .     S
C441   H460    1.111   .     S
C441   H458    1.109   .     S
C442   H463    1.109   .     S
C442   O479    1.410   .     S
C442   H461    1.113   .     S
C442   H464    1.114   .     S
C443   O484    1.287   .     A
C443   O487    1.285   .     A
C444   O480    1.412   .     S
C444   H466    1.114   .     S
C444   H465    1.109   .     S
C444   H467    1.111   .     S
C445   O485    1.285   .     A
C445   O486    1.287   .     A
C446   H451    1.082   .     S
C446   N476    1.366   .     A
C447   H462    1.081   .     S
C447   N475    1.366   .     A
C447   C28     1.415   1_565 S
C448   N476    1.366   .     A
C448   H468    1.082   .     S
C449   H469    1.081   .     S
C449   N475    1.366   .     A
C449   C26     1.415   1_565 S
C450   H474    1.084   .     S
C450   C563    1.370   1_455 S
N475   Zn489   2.004   .     S
N476   Zn490   2.004   .     S
O477   Zn489   1.998   .     S
O481   Zn490   1.998   .     S
O482   Zn489   1.998   .     S
O483   Zn490   1.998   .     S
O484   Zn489   2.001   .     S
O485   Zn490   2.001   .     S
O486   Zn489   2.002   .     S
O487   Zn490   2.002   .     S
C491   O547    1.280   .     A
C491   O553    1.280   .     A
C491   C509    1.418   .     S
C492   C508    1.397   .     A
C492   H522    1.084   .     S
C492   C564    1.370   .     S
C493   C508    1.397   .     A
C493   H523    1.084   .     S
C493   C590    1.370   .     S
C494   C509    1.397   .     A
C494   H524    1.084   .     S
C495   C499    1.385   .     A
C495   H540    1.084   .     S
C495   C506    1.392   .     A
C496   C500    1.387   .     A
C496   H541    1.084   .     S
C496   C507    1.392   .     A
C497   C501    1.384   .     A
C497   H542    1.084   .     S
C497   C507    1.392   .     A
C498   C503    1.387   .     A
C498   H543    1.084   .     S
C498   C506    1.392   .     A
C499   C504    1.412   .     A
C499   O558    1.383   .     S
C500   O548    1.386   .     S
C500   C505    1.411   .     A
C501   O549    1.383   .     S
C501   C505    1.412   .     A
C502   O551    1.280   .     A
C502   C508    1.418   .     S
C502   O552    1.280   .     A
C503   C504    1.410   .     A
C503   O550    1.386   .     S
C504   C513    1.443   .     S
C505   C515    1.444   .     S
C506   C1137   1.433   1_554 S
C507   C1136   1.433   .     S
C509   C520    1.397   .     A
C510   H527    1.114   .     S
C510   O558    1.410   .     S
C510   H525    1.113   .     S
C510   H526    1.109   .     S
C511   H529    1.114   .     S
C511   O548    1.412   .     S
C511   H530    1.111   .     S
C511   H528    1.109   .     S
C512   H533    1.109   .     S
C512   O549    1.410   .     S
C512   H531    1.113   .     S
C512   H534    1.114   .     S
C513   O554    1.287   .     A
C513   O557    1.285   .     A
C514   O550    1.412   .     S
C514   H536    1.114   .     S
C514   H535    1.109   .     S
C514   H537    1.111   .     S
C515   O555    1.285   .     A
C515   O556    1.287   .     A
C516   H521    1.082   .     S
C516   N546    1.366   .     A
C517   H532    1.081   .     S
C517   N545    1.366   .     A
C517   C98     1.415   1_565 S
C518   N546    1.366   .     A
C518   H538    1.082   .     S
C519   H539    1.081   .     S
C519   N545    1.366   .     A
C519   C96     1.415   1_565 S
C520   H544    1.084   .     S
N545   Zn559   2.004   .     S
N546   Zn560   2.004   .     S
O547   Zn559   1.998   .     S
O551   Zn560   1.998   .     S
O552   Zn559   1.998   .     S
O553   Zn560   1.998   .     S
O554   Zn559   2.001   .     S
O555   Zn560   2.001   .     S
O556   Zn559   2.002   .     S
O557   Zn560   2.002   .     S
C561   O617    1.280   .     A
C561   O623    1.280   .     A
C561   C579    1.418   .     S
C562   C578    1.397   .     A
C562   H592    1.084   .     S
C562   C424    1.370   1_655 S
C563   C578    1.397   .     A
C563   H593    1.084   .     S
C563   C450    1.370   1_655 S
C564   C579    1.397   .     A
C564   H594    1.084   .     S
C565   C569    1.385   .     A
C565   H610    1.084   .     S
C565   C576    1.392   .     A
C566   C570    1.387   .     A
C566   H611    1.084   .     S
C566   C577    1.392   .     A
C567   C571    1.384   .     A
C567   H612    1.084   .     S
C567   C577    1.392   .     A
C568   C573    1.387   .     A
C568   H613    1.084   .     S
C568   C576    1.392   .     A
C569   C574    1.412   .     A
C569   O628    1.383   .     S
C570   O618    1.386   .     S
C570   C575    1.411   .     A
C571   O619    1.383   .     S
C571   C575    1.412   .     A
C572   O621    1.280   .     A
C572   C578    1.418   .     S
C572   O622    1.280   .     A
C573   C574    1.410   .     A
C573   O620    1.386   .     S
C574   C583    1.443   .     S
C575   C585    1.444   .     S
C576   C1207   1.433   1_554 S
C577   C1206   1.433   .     S
C579   C590    1.397   .     A
C580   H597    1.114   .     S
C580   O628    1.410   .     S
C580   H595    1.113   .     S
C580   H596    1.109   .     S
C581   H599    1.114   .     S
C581   O618    1.412   .     S
C581   H600    1.111   .     S
C581   H598    1.109   .     S
C582   H603    1.109   .     S
C582   O619    1.410   .     S
C582   H601    1.113   .     S
C582   H604    1.114   .     S
C583   O624    1.287   .     A
C583   O627    1.285   .     A
C584   O620    1.412   .     S
C584   H606    1.114   .     S
C584   H605    1.109   .     S
C584   H607    1.111   .     S
C585   O625    1.285   .     A
C585   O626    1.287   .     A
C586   H591    1.082   .     S
C586   N616    1.366   .     A
C587   H602    1.081   .     S
C587   N615    1.366   .     A
C587   C168    1.415   1_565 S
C588   N616    1.366   .     A
C588   H608    1.082   .     S
C589   H609    1.081   .     S
C589   N615    1.366   .     A
C589   C166    1.415   1_565 S
C590   H614    1.084   .     S
N615   Zn629   2.004   .     S
N616   Zn630   2.004   .     S
O617   Zn629   1.998   .     S
O621   Zn630   1.998   .     S
O622   Zn629   1.998   .     S
O623   Zn630   1.998   .     S
O624   Zn629   2.001   .     S
O625   Zn630   2.001   .     S
O626   Zn629   2.002   .     S
O627   Zn630   2.002   .     S
C631   O687    1.280   .     A
C631   O693    1.280   .     A
C631   C649    1.418   .     S
C632   C648    1.397   .     A
C632   H662    1.084   .     S
C632   C704    1.370   .     S
C633   C648    1.397   .     A
C633   H663    1.084   .     S
C633   C730    1.370   .     S
C634   C649    1.397   .     A
C634   H664    1.084   .     S
C634   C772    1.370   1_455 S
C635   C639    1.385   .     A
C635   H680    1.084   .     S
C635   C646    1.392   .     A
C636   C640    1.387   .     A
C636   H681    1.084   .     S
C636   C647    1.392   .     A
C637   C641    1.384   .     A
C637   H682    1.084   .     S
C637   C647    1.392   .     A
C638   C643    1.387   .     A
C638   H683    1.084   .     S
C638   C646    1.392   .     A
C639   C644    1.412   .     A
C639   O698    1.383   .     S
C640   O688    1.386   .     S
C640   C645    1.411   .     A
C641   O689    1.383   .     S
C641   C645    1.412   .     A
C642   O691    1.280   .     A
C642   C648    1.418   .     S
C642   O692    1.280   .     A
C643   C644    1.410   .     A
C643   O690    1.386   .     S
C644   C653    1.443   .     S
C645   C655    1.444   .     S
C647   C16     1.433   1_556 S
C649   C660    1.397   .     A
C650   H667    1.114   .     S
C650   O698    1.410   .     S
C650   H665    1.113   .     S
C650   H666    1.109   .     S
C651   H669    1.114   .     S
C651   O688    1.412   .     S
C651   H670    1.111   .     S
C651   H668    1.109   .     S
C652   H673    1.109   .     S
C652   O689    1.410   .     S
C652   H671    1.113   .     S
C652   H674    1.114   .     S
C653   O694    1.287   .     A
C653   O697    1.285   .     A
C654   O690    1.412   .     S
C654   H676    1.114   .     S
C654   H675    1.109   .     S
C654   H677    1.111   .     S
C655   O695    1.285   .     A
C655   O696    1.287   .     A
C656   H661    1.082   .     S
C656   N686    1.366   .     A
C656   C1079   1.415   1_545 S
C657   H672    1.081   .     S
C657   N685    1.366   .     A
C657   C868    1.415   .     S
C658   N686    1.366   .     A
C658   H678    1.082   .     S
C658   C1077   1.415   1_545 S
C659   H679    1.081   .     S
C659   N685    1.366   .     A
C659   C866    1.415   .     S
C660   H684    1.084   .     S
C660   C773    1.370   1_455 S
N685   Zn699   2.004   .     S
N686   Zn700   2.004   .     S
O687   Zn699   1.998   .     S
O691   Zn700   1.998   .     S
O692   Zn699   1.998   .     S
O693   Zn700   1.998   .     S
O694   Zn699   2.001   .     S
O695   Zn700   2.001   .     S
O696   Zn699   2.002   .     S
O697   Zn700   2.002   .     S
C701   O757    1.280   .     A
C701   O763    1.280   .     A
C701   C719    1.418   .     S
C702   C718    1.397   .     A
C702   H732    1.084   .     S
C702   C774    1.370   .     S
C703   C718    1.397   .     A
C703   H733    1.084   .     S
C703   C800    1.370   .     S
C704   C719    1.397   .     A
C704   H734    1.084   .     S
C705   C709    1.385   .     A
C705   H750    1.084   .     S
C705   C716    1.392   .     A
C706   C710    1.387   .     A
C706   H751    1.084   .     S
C706   C717    1.392   .     A
C707   C711    1.384   .     A
C707   H752    1.084   .     S
C707   C717    1.392   .     A
C708   C713    1.387   .     A
C708   H753    1.084   .     S
C708   C716    1.392   .     A
C709   C714    1.412   .     A
C709   O768    1.383   .     S
C710   O758    1.386   .     S
C710   C715    1.411   .     A
C711   O759    1.383   .     S
C711   C715    1.412   .     A
C712   O761    1.280   .     A
C712   C718    1.418   .     S
C712   O762    1.280   .     A
C713   C714    1.410   .     A
C713   O760    1.386   .     S
C714   C723    1.443   .     S
C715   C725    1.444   .     S
C717   C86     1.433   1_556 S
C719   C730    1.397   .     A
C720   H737    1.114   .     S
C720   O768    1.410   .     S
C720   H735    1.113   .     S
C720   H736    1.109   .     S
C721   H739    1.114   .     S
C721   O758    1.412   .     S
C721   H740    1.111   .     S
C721   H738    1.109   .     S
C722   H743    1.109   .     S
C722   O759    1.410   .     S
C722   H741    1.113   .     S
C722   H744    1.114   .     S
C723   O764    1.287   .     A
C723   O767    1.285   .     A
C724   O760    1.412   .     S
C724   H746    1.114   .     S
C724   H745    1.109   .     S
C724   H747    1.111   .     S
C725   O765    1.285   .     A
C725   O766    1.287   .     A
C726   H731    1.082   .     S
C726   N756    1.366   .     A
C726   C1149   1.415   1_545 S
C727   H742    1.081   .     S
C727   N755    1.366   .     A
C727   C938    1.415   .     S
C728   N756    1.366   .     A
C728   H748    1.082   .     S
C728   C1147   1.415   1_545 S
C729   H749    1.081   .     S
C729   N755    1.366   .     A
C729   C936    1.415   .     S
C730   H754    1.084   .     S
N755   Zn769   2.004   .     S
N756   Zn770   2.004   .     S
O757   Zn769   1.998   .     S
O761   Zn770   1.998   .     S
O762   Zn769   1.998   .     S
O763   Zn770   1.998   .     S
O764   Zn769   2.001   .     S
O765   Zn770   2.001   .     S
O766   Zn769   2.002   .     S
O767   Zn770   2.002   .     S
C771   O827    1.280   .     A
C771   O833    1.280   .     A
C771   C789    1.418   .     S
C772   C788    1.397   .     A
C772   H802    1.084   .     S
C772   C634    1.370   1_655 S
C773   C788    1.397   .     A
C773   H803    1.084   .     S
C773   C660    1.370   1_655 S
C774   C789    1.397   .     A
C774   H804    1.084   .     S
C775   C779    1.385   .     A
C775   H820    1.084   .     S
C775   C786    1.392   .     A
C776   C780    1.387   .     A
C776   H821    1.084   .     S
C776   C787    1.392   .     A
C777   C781    1.384   .     A
C777   H822    1.084   .     S
C777   C787    1.392   .     A
C778   C783    1.387   .     A
C778   H823    1.084   .     S
C778   C786    1.392   .     A
C779   C784    1.412   .     A
C779   O838    1.383   .     S
C780   O828    1.386   .     S
C780   C785    1.411   .     A
C781   O829    1.383   .     S
C781   C785    1.412   .     A
C782   O831    1.280   .     A
C782   C788    1.418   .     S
C782   O832    1.280   .     A
C783   C784    1.410   .     A
C783   O830    1.386   .     S
C784   C793    1.443   .     S
C785   C795    1.444   .     S
C787   C156    1.433   1_556 S
C789   C800    1.397   .     A
C790   H807    1.114   .     S
C790   O838    1.410   .     S
C790   H805    1.113   .     S
C790   H806    1.109   .     S
C791   H809    1.114   .     S
C791   O828    1.412   .     S
C791   H810    1.111   .     S
C791   H808    1.109   .     S
C792   H813    1.109   .     S
C792   O829    1.410   .     S
C792   H811    1.113   .     S
C792   H814    1.114   .     S
C793   O834    1.287   .     A
C793   O837    1.285   .     A
C794   O830    1.412   .     S
C794   H816    1.114   .     S
C794   H815    1.109   .     S
C794   H817    1.111   .     S
C795   O835    1.285   .     A
C795   O836    1.287   .     A
C796   H801    1.082   .     S
C796   N826    1.366   .     A
C796   C1219   1.415   1_545 S
C797   H812    1.081   .     S
C797   N825    1.366   .     A
C797   C1008   1.415   .     S
C798   N826    1.366   .     A
C798   H818    1.082   .     S
C798   C1217   1.415   1_545 S
C799   H819    1.081   .     S
C799   N825    1.366   .     A
C799   C1006   1.415   .     S
C800   H824    1.084   .     S
N825   Zn839   2.004   .     S
N826   Zn840   2.004   .     S
O827   Zn839   1.998   .     S
O831   Zn840   1.998   .     S
O832   Zn839   1.998   .     S
O833   Zn840   1.998   .     S
O834   Zn839   2.001   .     S
O835   Zn840   2.001   .     S
O836   Zn839   2.002   .     S
O837   Zn840   2.002   .     S
C841   O897    1.280   .     A
C841   O903    1.280   .     A
C841   C859    1.418   .     S
C842   C858    1.397   .     A
C842   H872    1.084   .     S
C842   C914    1.370   .     S
C843   C858    1.397   .     A
C843   H873    1.084   .     S
C843   C940    1.370   .     S
C844   C859    1.397   .     A
C844   H874    1.084   .     S
C844   C982    1.370   1_455 S
C845   C849    1.385   .     A
C845   H890    1.084   .     S
C845   C856    1.392   .     A
C846   C850    1.387   .     A
C846   H891    1.084   .     S
C846   C857    1.392   .     A
C847   C851    1.384   .     A
C847   H892    1.084   .     S
C847   C857    1.392   .     A
C848   C853    1.387   .     A
C848   H893    1.084   .     S
C848   C856    1.392   .     A
C849   C854    1.412   .     A
C849   O908    1.383   .     S
C850   O898    1.386   .     S
C850   C855    1.411   .     A
C851   O899    1.383   .     S
C851   C855    1.412   .     A
C852   O901    1.280   .     A
C852   C858    1.418   .     S
C852   O902    1.280   .     A
C853   C854    1.410   .     A
C853   O900    1.386   .     S
C854   C863    1.443   .     S
C855   C865    1.444   .     S
C857   C226    1.433   1_556 S
C859   C870    1.397   .     A
C860   H877    1.114   .     S
C860   O908    1.410   .     S
C860   H875    1.113   .     S
C860   H876    1.109   .     S
C861   H879    1.114   .     S
C861   O898    1.412   .     S
C861   H880    1.111   .     S
C861   H878    1.109   .     S
C862   H883    1.109   .     S
C862   O899    1.410   .     S
C862   H881    1.113   .     S
C862   H884    1.114   .     S
C863   O904    1.287   .     A
C863   O907    1.285   .     A
C864   O900    1.412   .     S
C864   H886    1.114   .     S
C864   H885    1.109   .     S
C864   H887    1.111   .     S
C865   O905    1.285   .     A
C865   O906    1.287   .     A
C866   H871    1.082   .     S
C866   N896    1.366   .     A
C867   H882    1.081   .     S
C867   N895    1.366   .     A
C867   C1078   1.415   .     S
C868   N896    1.366   .     A
C868   H888    1.082   .     S
C869   H889    1.081   .     S
C869   N895    1.366   .     A
C869   C1076   1.415   .     S
C870   H894    1.084   .     S
C870   C983    1.370   1_455 S
N895   Zn909   2.004   .     S
N896   Zn910   2.004   .     S
O897   Zn909   1.998   .     S
O901   Zn910   1.998   .     S
O902   Zn909   1.998   .     S
O903   Zn910   1.998   .     S
O904   Zn909   2.001   .     S
O905   Zn910   2.001   .     S
O906   Zn909   2.002   .     S
O907   Zn910   2.002   .     S
C911   O967    1.280   .     A
C911   O973    1.280   .     A
C911   C929    1.418   .     S
C912   C928    1.397   .     A
C912   H942    1.084   .     S
C912   C984    1.370   .     S
C913   C928    1.397   .     A
C913   H943    1.084   .     S
C913   C1010   1.370   .     S
C914   C929    1.397   .     A
C914   H944    1.084   .     S
C915   C919    1.385   .     A
C915   H960    1.084   .     S
C915   C926    1.392   .     A
C916   C920    1.387   .     A
C916   H961    1.084   .     S
C916   C927    1.392   .     A
C917   C921    1.384   .     A
C917   H962    1.084   .     S
C917   C927    1.392   .     A
C918   C923    1.387   .     A
C918   H963    1.084   .     S
C918   C926    1.392   .     A
C919   C924    1.412   .     A
C919   O978    1.383   .     S
C920   O968    1.386   .     S
C920   C925    1.411   .     A
C921   O969    1.383   .     S
C921   C925    1.412   .     A
C922   O971    1.280   .     A
C922   C928    1.418   .     S
C922   O972    1.280   .     A
C923   C924    1.410   .     A
C923   O970    1.386   .     S
C924   C933    1.443   .     S
C925   C935    1.444   .     S
C927   C296    1.433   1_556 S
C929   C940    1.397   .     A
C930   H947    1.114   .     S
C930   O978    1.410   .     S
C930   H945    1.113   .     S
C930   H946    1.109   .     S
C931   H949    1.114   .     S
C931   O968    1.412   .     S
C931   H950    1.111   .     S
C931   H948    1.109   .     S
C932   H953    1.109   .     S
C932   O969    1.410   .     S
C932   H951    1.113   .     S
C932   H954    1.114   .     S
C933   O974    1.287   .     A
C933   O977    1.285   .     A
C934   O970    1.412   .     S
C934   H956    1.114   .     S
C934   H955    1.109   .     S
C934   H957    1.111   .     S
C935   O975    1.285   .     A
C935   O976    1.287   .     A
C936   H941    1.082   .     S
C936   N966    1.366   .     A
C937   H952    1.081   .     S
C937   N965    1.366   .     A
C937   C1148   1.415   .     S
C938   N966    1.366   .     A
C938   H958    1.082   .     S
C939   H959    1.081   .     S
C939   N965    1.366   .     A
C939   C1146   1.415   .     S
C940   H964    1.084   .     S
N965   Zn979   2.004   .     S
N966   Zn980   2.004   .     S
O967   Zn979   1.998   .     S
O971   Zn980   1.998   .     S
O972   Zn979   1.998   .     S
O973   Zn980   1.998   .     S
O974   Zn979   2.001   .     S
O975   Zn980   2.001   .     S
O976   Zn979   2.002   .     S
O977   Zn980   2.002   .     S
C981   O1037   1.280   .     A
C981   O1043   1.280   .     A
C981   C999    1.418   .     S
C982   C998    1.397   .     A
C982   H1012   1.084   .     S
C982   C844    1.370   1_655 S
C983   C998    1.397   .     A
C983   H1013   1.084   .     S
C983   C870    1.370   1_655 S
C984   C999    1.397   .     A
C984   H1014   1.084   .     S
C985   C989    1.385   .     A
C985   H1030   1.084   .     S
C985   C996    1.392   .     A
C986   C990    1.387   .     A
C986   H1031   1.084   .     S
C986   C997    1.392   .     A
C987   C991    1.384   .     A
C987   H1032   1.084   .     S
C987   C997    1.392   .     A
C988   C993    1.387   .     A
C988   H1033   1.084   .     S
C988   C996    1.392   .     A
C989   C994    1.412   .     A
C989   O1048   1.383   .     S
C990   O1038   1.386   .     S
C990   C995    1.411   .     A
C991   O1039   1.383   .     S
C991   C995    1.412   .     A
C992   O1041   1.280   .     A
C992   C998    1.418   .     S
C992   O1042   1.280   .     A
C993   C994    1.410   .     A
C993   O1040   1.386   .     S
C994   C1003   1.443   .     S
C995   C1005   1.444   .     S
C997   C366    1.433   1_556 S
C999   C1010   1.397   .     A
C1000  H1017   1.114   .     S
C1000  O1048   1.410   .     S
C1000  H1015   1.113   .     S
C1000  H1016   1.109   .     S
C1001  H1019   1.114   .     S
C1001  O1038   1.412   .     S
C1001  H1020   1.111   .     S
C1001  H1018   1.109   .     S
C1002  H1023   1.109   .     S
C1002  O1039   1.410   .     S
C1002  H1021   1.113   .     S
C1002  H1024   1.114   .     S
C1003  O1044   1.287   .     A
C1003  O1047   1.285   .     A
C1004  O1040   1.412   .     S
C1004  H1026   1.114   .     S
C1004  H1025   1.109   .     S
C1004  H1027   1.111   .     S
C1005  O1045   1.285   .     A
C1005  O1046   1.287   .     A
C1006  H1011   1.082   .     S
C1006  N1036   1.366   .     A
C1007  H1022   1.081   .     S
C1007  N1035   1.366   .     A
C1007  C1218   1.415   .     S
C1008  N1036   1.366   .     A
C1008  H1028   1.082   .     S
C1009  H1029   1.081   .     S
C1009  N1035   1.366   .     A
C1009  C1216   1.415   .     S
C1010  H1034   1.084   .     S
N1035  Zn1049  2.004   .     S
N1036  Zn1050  2.004   .     S
O1037  Zn1049  1.998   .     S
O1041  Zn1050  1.998   .     S
O1042  Zn1049  1.998   .     S
O1043  Zn1050  1.998   .     S
O1044  Zn1049  2.001   .     S
O1045  Zn1050  2.001   .     S
O1046  Zn1049  2.002   .     S
O1047  Zn1050  2.002   .     S
C1051  O1107   1.280   .     A
C1051  O1113   1.280   .     A
C1051  C1069   1.418   .     S
C1052  C1068   1.397   .     A
C1052  H1082   1.084   .     S
C1052  C1124   1.370   .     S
C1053  C1068   1.397   .     A
C1053  H1083   1.084   .     S
C1053  C1150   1.370   .     S
C1054  C1069   1.397   .     A
C1054  H1084   1.084   .     S
C1054  C1192   1.370   1_455 S
C1055  C1059   1.385   .     A
C1055  H1100   1.084   .     S
C1055  C1066   1.392   .     A
C1056  C1060   1.387   .     A
C1056  H1101   1.084   .     S
C1056  C1067   1.392   .     A
C1057  C1061   1.384   .     A
C1057  H1102   1.084   .     S
C1057  C1067   1.392   .     A
C1058  C1063   1.387   .     A
C1058  H1103   1.084   .     S
C1058  C1066   1.392   .     A
C1059  C1064   1.412   .     A
C1059  O1118   1.383   .     S
C1060  O1108   1.386   .     S
C1060  C1065   1.411   .     A
C1061  O1109   1.383   .     S
C1061  C1065   1.412   .     A
C1062  O1111   1.280   .     A
C1062  C1068   1.418   .     S
C1062  O1112   1.280   .     A
C1063  C1064   1.410   .     A
C1063  O1110   1.386   .     S
C1064  C1073   1.443   .     S
C1065  C1075   1.444   .     S
C1067  C436    1.433   1_556 S
C1069  C1080   1.397   .     A
C1070  H1087   1.114   .     S
C1070  O1118   1.410   .     S
C1070  H1085   1.113   .     S
C1070  H1086   1.109   .     S
C1071  H1089   1.114   .     S
C1071  O1108   1.412   .     S
C1071  H1090   1.111   .     S
C1071  H1088   1.109   .     S
C1072  H1093   1.109   .     S
C1072  O1109   1.410   .     S
C1072  H1091   1.113   .     S
C1072  H1094   1.114   .     S
C1073  O1114   1.287   .     A
C1073  O1117   1.285   .     A
C1074  O1110   1.412   .     S
C1074  H1096   1.114   .     S
C1074  H1095   1.109   .     S
C1074  H1097   1.111   .     S
C1075  O1115   1.285   .     A
C1075  O1116   1.287   .     A
C1076  H1081   1.082   .     S
C1076  N1106   1.366   .     A
C1077  H1092   1.081   .     S
C1077  N1105   1.366   .     A
C1077  C658    1.415   1_565 S
C1078  N1106   1.366   .     A
C1078  H1098   1.082   .     S
C1079  H1099   1.081   .     S
C1079  N1105   1.366   .     A
C1079  C656    1.415   1_565 S
C1080  H1104   1.084   .     S
C1080  C1193   1.370   1_455 S
N1105  Zn1119  2.004   .     S
N1106  Zn1120  2.004   .     S
O1107  Zn1119  1.998   .     S
O1111  Zn1120  1.998   .     S
O1112  Zn1119  1.998   .     S
O1113  Zn1120  1.998   .     S
O1114  Zn1119  2.001   .     S
O1115  Zn1120  2.001   .     S
O1116  Zn1119  2.002   .     S
O1117  Zn1120  2.002   .     S
C1121  O1177   1.280   .     A
C1121  O1183   1.280   .     A
C1121  C1139   1.418   .     S
C1122  C1138   1.397   .     A
C1122  H1152   1.084   .     S
C1122  C1194   1.370   .     S
C1123  C1138   1.397   .     A
C1123  H1153   1.084   .     S
C1123  C1220   1.370   .     S
C1124  C1139   1.397   .     A
C1124  H1154   1.084   .     S
C1125  C1129   1.385   .     A
C1125  H1170   1.084   .     S
C1125  C1136   1.392   .     A
C1126  C1130   1.387   .     A
C1126  H1171   1.084   .     S
C1126  C1137   1.392   .     A
C1127  C1131   1.384   .     A
C1127  H1172   1.084   .     S
C1127  C1137   1.392   .     A
C1128  C1133   1.387   .     A
C1128  H1173   1.084   .     S
C1128  C1136   1.392   .     A
C1129  C1134   1.412   .     A
C1129  O1188   1.383   .     S
C1130  O1178   1.386   .     S
C1130  C1135   1.411   .     A
C1131  O1179   1.383   .     S
C1131  C1135   1.412   .     A
C1132  O1181   1.280   .     A
C1132  C1138   1.418   .     S
C1132  O1182   1.280   .     A
C1133  C1134   1.410   .     A
C1133  O1180   1.386   .     S
C1134  C1143   1.443   .     S
C1135  C1145   1.444   .     S
C1137  C506    1.433   1_556 S
C1139  C1150   1.397   .     A
C1140  H1157   1.114   .     S
C1140  O1188   1.410   .     S
C1140  H1155   1.113   .     S
C1140  H1156   1.109   .     S
C1141  H1159   1.114   .     S
C1141  O1178   1.412   .     S
C1141  H1160   1.111   .     S
C1141  H1158   1.109   .     S
C1142  H1163   1.109   .     S
C1142  O1179   1.410   .     S
C1142  H1161   1.113   .     S
C1142  H1164   1.114   .     S
C1143  O1184   1.287   .     A
C1143  O1187   1.285   .     A
C1144  O1180   1.412   .     S
C1144  H1166   1.114   .     S
C1144  H1165   1.109   .     S
C1144  H1167   1.111   .     S
C1145  O1185   1.285   .     A
C1145  O1186   1.287   .     A
C1146  H1151   1.082   .     S
C1146  N1176   1.366   .     A
C1147  H1162   1.081   .     S
C1147  N1175   1.366   .     A
C1147  C728    1.415   1_565 S
C1148  N1176   1.366   .     A
C1148  H1168   1.082   .     S
C1149  H1169   1.081   .     S
C1149  N1175   1.366   .     A
C1149  C726    1.415   1_565 S
C1150  H1174   1.084   .     S
N1175  Zn1189  2.004   .     S
N1176  Zn1190  2.004   .     S
O1177  Zn1189  1.998   .     S
O1181  Zn1190  1.998   .     S
O1182  Zn1189  1.998   .     S
O1183  Zn1190  1.998   .     S
O1184  Zn1189  2.001   .     S
O1185  Zn1190  2.001   .     S
O1186  Zn1189  2.002   .     S
O1187  Zn1190  2.002   .     S
C1191  O1247   1.280   .     A
C1191  O1253   1.280   .     A
C1191  C1209   1.418   .     S
C1192  C1208   1.397   .     A
C1192  H1222   1.084   .     S
C1192  C1054   1.370   1_655 S
C1193  C1208   1.397   .     A
C1193  H1223   1.084   .     S
C1193  C1080   1.370   1_655 S
C1194  C1209   1.397   .     A
C1194  H1224   1.084   .     S
C1195  C1199   1.385   .     A
C1195  H1240   1.084   .     S
C1195  C1206   1.392   .     A
C1196  C1200   1.387   .     A
C1196  H1241   1.084   .     S
C1196  C1207   1.392   .     A
C1197  C1201   1.384   .     A
C1197  H1242   1.084   .     S
C1197  C1207   1.392   .     A
C1198  C1203   1.387   .     A
C1198  H1243   1.084   .     S
C1198  C1206   1.392   .     A
C1199  C1204   1.412   .     A
C1199  O1258   1.383   .     S
C1200  O1248   1.386   .     S
C1200  C1205   1.411   .     A
C1201  O1249   1.383   .     S
C1201  C1205   1.412   .     A
C1202  O1251   1.280   .     A
C1202  C1208   1.418   .     S
C1202  O1252   1.280   .     A
C1203  C1204   1.410   .     A
C1203  O1250   1.386   .     S
C1204  C1213   1.443   .     S
C1205  C1215   1.444   .     S
C1207  C576    1.433   1_556 S
C1209  C1220   1.397   .     A
C1210  H1227   1.114   .     S
C1210  O1258   1.410   .     S
C1210  H1225   1.113   .     S
C1210  H1226   1.109   .     S
C1211  H1229   1.114   .     S
C1211  O1248   1.412   .     S
C1211  H1230   1.111   .     S
C1211  H1228   1.109   .     S
C1212  H1233   1.109   .     S
C1212  O1249   1.410   .     S
C1212  H1231   1.113   .     S
C1212  H1234   1.114   .     S
C1213  O1254   1.287   .     A
C1213  O1257   1.285   .     A
C1214  O1250   1.412   .     S
C1214  H1236   1.114   .     S
C1214  H1235   1.109   .     S
C1214  H1237   1.111   .     S
C1215  O1255   1.285   .     A
C1215  O1256   1.287   .     A
C1216  H1221   1.082   .     S
C1216  N1246   1.366   .     A
C1217  H1232   1.081   .     S
C1217  N1245   1.366   .     A
C1217  C798    1.415   1_565 S
C1218  N1246   1.366   .     A
C1218  H1238   1.082   .     S
C1219  H1239   1.081   .     S
C1219  N1245   1.366   .     A
C1219  C796    1.415   1_565 S
C1220  H1244   1.084   .     S
N1245  Zn1259  2.004   .     S
N1246  Zn1260  2.004   .     S
O1247  Zn1259  1.998   .     S
O1251  Zn1260  1.998   .     S
O1252  Zn1259  1.998   .     S
O1253  Zn1260  1.998   .     S
O1254  Zn1259  2.001   .     S
O1255  Zn1260  2.001   .     S
O1256  Zn1259  2.002   .     S
O1257  Zn1260  2.002   .     S
