data_str_m3_o10_o16_pcu_sym.96
_audit_creation_date              2020-01-03
_audit_creation_method            'Materials Studio'
_symmetry_space_group_name_H-M    'P1'
_symmetry_Int_Tables_number       1
_symmetry_cell_setting            triclinic
loop_
_symmetry_equiv_pos_as_xyz
  x,y,z
_cell_length_a                    23.4892
_cell_length_b                    25.7093
_cell_length_c                    24.1123
_cell_angle_alpha                 92.2386
_cell_angle_beta                  101.3006
_cell_angle_gamma                 94.2443
loop_
_atom_site_label
_atom_site_type_symbol
_atom_site_fract_x
_atom_site_fract_y
_atom_site_fract_z
_atom_site_U_iso_or_equiv
_atom_site_adp_type
_atom_site_occupancy
C1     C     0.01531   0.26495   0.25053   0.00000  Uiso   1.00
C2     C     0.05447   0.17503   0.41616   0.00000  Uiso   1.00
C3     C     0.02276   0.31965   0.25093   0.00000  Uiso   1.00
C4     C     0.03562   0.16968   0.35524   0.00000  Uiso   1.00
C5     C     0.31446   0.01530   0.26401   0.00000  Uiso   1.00
C6     C     0.31922   0.06873   0.25379   0.00000  Uiso   1.00
C7     C     0.29729   0.16156   0.14487   0.00000  Uiso   1.00
C8     C     0.25630   0.08077   0.00956   0.00000  Uiso   1.00
C9     C     0.27625   0.14780   0.08537   0.00000  Uiso   1.00
C10    C     0.03275   0.21396   0.44651   0.00000  Uiso   1.00
C11    C     0.06132   0.22971   0.00118   0.00000  Uiso   1.00
C12    C     0.13545   0.16921   0.49391   0.00000  Uiso   1.00
C13    C     0.11330   0.20898   0.02424   0.00000  Uiso   1.00
C14    C     0.05216   0.08330   0.06528   0.00000  Uiso   1.00
C15    C     0.28431   0.33189   0.34581   0.00000  Uiso   1.00
C16    C     0.14424   0.32391   0.42902   0.00000  Uiso   1.00
C17    C     0.10174   0.14855   0.44203   0.00000  Uiso   1.00
C18    C     0.18948   0.14885   0.01353   0.00000  Uiso   1.00
C19    C     0.20432   0.10277   0.48691   0.00000  Uiso   1.00
C20    C     0.16577   0.07834   0.43975   0.00000  Uiso   1.00
C21    C     0.11608   0.10236   0.41643   0.00000  Uiso   1.00
C22    C     0.22887   0.17290   0.05961   0.00000  Uiso   1.00
C23    C     0.29197   0.10240   0.05967   0.00000  Uiso   1.00
H24    H     0.15647   0.12500   0.20811   0.00000  Uiso   1.00
H25    H     0.07021   0.12456   0.07447   0.00000  Uiso   1.00
H26    H     0.04366   0.07307   0.01891   0.00000  Uiso   1.00
H27    H     0.08578   0.05832   0.08595   0.00000  Uiso   1.00
H28    H     0.29102   0.03992   0.36276   0.00000  Uiso   1.00
H29    H     0.32420   0.31135   0.36046   0.00000  Uiso   1.00
H30    H     0.24890   0.31206   0.36354   0.00000  Uiso   1.00
H31    H     0.09711   0.32677   0.41186   0.00000  Uiso   1.00
H32    H     0.15214   0.32090   0.47582   0.00000  Uiso   1.00
H33    H     0.15649   0.28721   0.41046   0.00000  Uiso   1.00
H34    H     0.17686   0.20836   0.29187   0.00000  Uiso   1.00
H35    H     0.26739   0.04480   0.49091   0.00000  Uiso   1.00
H36    H     0.22150   0.20955   0.07933   0.00000  Uiso   1.00
H37    H     0.32883   0.23388   0.42699   0.00000  Uiso   1.00
H38    H     0.13383   0.22332   0.06659   0.00000  Uiso   1.00
H39    H     0.04469   0.25982   0.02475   0.00000  Uiso   1.00
H40    H     0.08802   0.08381   0.37871   0.00000  Uiso   1.00
H41    H     0.06083   0.00272   0.23622   0.00000  Uiso   1.00
N42    N     0.14493   0.15223   0.23542   0.00000  Uiso   1.00
N43    N     0.18840   0.18110   0.26457   0.00000  Uiso   1.00
O44    O     0.29769   0.24629   0.25357   0.00000  Uiso   1.00
O45    O     0.26754   0.32892   0.28623   0.00000  Uiso   1.00
O46    O     0.17864   0.03295   0.41383   0.00000  Uiso   1.00
O47    O     0.05742   0.23704   0.24423   0.00000  Uiso   1.00
O48    O     0.31490   0.17358   0.33380   0.00000  Uiso   1.00
O49    O     0.07463   0.16433   0.32446   0.00000  Uiso   1.00
O50    O     0.27592   0.09629   0.25576   0.00000  Uiso   1.00
O51    O     0.03565   0.08704   0.24642   0.00000  Uiso   1.00
O52    O     0.25870   0.16901   0.17554   0.00000  Uiso   1.00
O53    O     0.01843   0.15976   0.16620   0.00000  Uiso   1.00
O54    O     0.00188   0.07407   0.08824   0.00000  Uiso   1.00
Zn55   Zn    0.27119   0.17284   0.25623   0.00000  Uiso   1.00
Zn56   Zn    0.06214   0.16049   0.24376   0.00000  Uiso   1.00
C57    C     0.34864   0.26495   0.25053   0.00000  Uiso   1.00
C58    C     0.38780   0.17503   0.41616   0.00000  Uiso   1.00
C59    C     0.35609   0.31965   0.25093   0.00000  Uiso   1.00
C60    C     0.36895   0.16968   0.35524   0.00000  Uiso   1.00
C61    C     0.64779   0.01530   0.26401   0.00000  Uiso   1.00
C62    C     0.65255   0.06873   0.25379   0.00000  Uiso   1.00
C63    C     0.63063   0.16156   0.14487   0.00000  Uiso   1.00
C64    C     0.58963   0.08077   0.00956   0.00000  Uiso   1.00
C65    C     0.60958   0.14780   0.08537   0.00000  Uiso   1.00
C66    C     0.36608   0.21396   0.44651   0.00000  Uiso   1.00
C67    C     0.39465   0.22971   0.00118   0.00000  Uiso   1.00
C68    C     0.46878   0.16921   0.49391   0.00000  Uiso   1.00
C69    C     0.44664   0.20898   0.02424   0.00000  Uiso   1.00
C70    C     0.38549   0.08330   0.06528   0.00000  Uiso   1.00
C71    C     0.61764   0.33189   0.34581   0.00000  Uiso   1.00
C72    C     0.47758   0.32391   0.42902   0.00000  Uiso   1.00
C73    C     0.43508   0.14855   0.44203   0.00000  Uiso   1.00
C74    C     0.52281   0.14885   0.01353   0.00000  Uiso   1.00
C75    C     0.53765   0.10277   0.48691   0.00000  Uiso   1.00
C76    C     0.49910   0.07834   0.43975   0.00000  Uiso   1.00
C77    C     0.44941   0.10236   0.41643   0.00000  Uiso   1.00
C78    C     0.56221   0.17290   0.05961   0.00000  Uiso   1.00
C79    C     0.62530   0.10240   0.05967   0.00000  Uiso   1.00
H80    H     0.48981   0.12500   0.20811   0.00000  Uiso   1.00
H81    H     0.40354   0.12456   0.07447   0.00000  Uiso   1.00
H82    H     0.37699   0.07307   0.01891   0.00000  Uiso   1.00
H83    H     0.41911   0.05832   0.08595   0.00000  Uiso   1.00
H84    H     0.62435   0.03992   0.36276   0.00000  Uiso   1.00
H85    H     0.65753   0.31135   0.36046   0.00000  Uiso   1.00
H86    H     0.58223   0.31206   0.36354   0.00000  Uiso   1.00
H87    H     0.43045   0.32677   0.41186   0.00000  Uiso   1.00
H88    H     0.48548   0.32090   0.47582   0.00000  Uiso   1.00
H89    H     0.48982   0.28721   0.41046   0.00000  Uiso   1.00
H90    H     0.51019   0.20836   0.29187   0.00000  Uiso   1.00
H91    H     0.60072   0.04480   0.49091   0.00000  Uiso   1.00
H92    H     0.55484   0.20955   0.07933   0.00000  Uiso   1.00
H93    H     0.66216   0.23388   0.42699   0.00000  Uiso   1.00
H94    H     0.46717   0.22332   0.06659   0.00000  Uiso   1.00
H95    H     0.37802   0.25982   0.02475   0.00000  Uiso   1.00
H96    H     0.42135   0.08381   0.37871   0.00000  Uiso   1.00
H97    H     0.39416   0.00272   0.23622   0.00000  Uiso   1.00
N98    N     0.47827   0.15223   0.23542   0.00000  Uiso   1.00
N99    N     0.52173   0.18110   0.26457   0.00000  Uiso   1.00
O100   O     0.63102   0.24629   0.25357   0.00000  Uiso   1.00
O101   O     0.60087   0.32892   0.28623   0.00000  Uiso   1.00
O102   O     0.51197   0.03295   0.41383   0.00000  Uiso   1.00
O103   O     0.39075   0.23704   0.24423   0.00000  Uiso   1.00
O104   O     0.64823   0.17358   0.33380   0.00000  Uiso   1.00
O105   O     0.40796   0.16433   0.32446   0.00000  Uiso   1.00
O106   O     0.60925   0.09629   0.25576   0.00000  Uiso   1.00
O107   O     0.36898   0.08704   0.24642   0.00000  Uiso   1.00
O108   O     0.59204   0.16901   0.17554   0.00000  Uiso   1.00
O109   O     0.35177   0.15976   0.16620   0.00000  Uiso   1.00
O110   O     0.33521   0.07407   0.08824   0.00000  Uiso   1.00
Zn111  Zn    0.60453   0.17284   0.25623   0.00000  Uiso   1.00
Zn112  Zn    0.39547   0.16049   0.24376   0.00000  Uiso   1.00
C113   C     0.68198   0.26495   0.25053   0.00000  Uiso   1.00
C114   C     0.72113   0.17503   0.41616   0.00000  Uiso   1.00
C115   C     0.68943   0.31965   0.25093   0.00000  Uiso   1.00
C116   C     0.70228   0.16968   0.35524   0.00000  Uiso   1.00
C117   C     0.98112   0.01530   0.26401   0.00000  Uiso   1.00
C118   C     0.98589   0.06873   0.25379   0.00000  Uiso   1.00
C119   C     0.96396   0.16156   0.14487   0.00000  Uiso   1.00
C120   C     0.92297   0.08077   0.00956   0.00000  Uiso   1.00
C121   C     0.94292   0.14780   0.08537   0.00000  Uiso   1.00
C122   C     0.69941   0.21396   0.44651   0.00000  Uiso   1.00
C123   C     0.72798   0.22971   0.00118   0.00000  Uiso   1.00
C124   C     0.80211   0.16921   0.49391   0.00000  Uiso   1.00
C125   C     0.77997   0.20898   0.02424   0.00000  Uiso   1.00
C126   C     0.71882   0.08330   0.06528   0.00000  Uiso   1.00
C127   C     0.95097   0.33189   0.34581   0.00000  Uiso   1.00
C128   C     0.81091   0.32391   0.42902   0.00000  Uiso   1.00
C129   C     0.76841   0.14855   0.44203   0.00000  Uiso   1.00
C130   C     0.85615   0.14885   0.01353   0.00000  Uiso   1.00
C131   C     0.87098   0.10277   0.48691   0.00000  Uiso   1.00
C132   C     0.83244   0.07834   0.43975   0.00000  Uiso   1.00
C133   C     0.78275   0.10236   0.41643   0.00000  Uiso   1.00
C134   C     0.89554   0.17290   0.05961   0.00000  Uiso   1.00
C135   C     0.95863   0.10240   0.05967   0.00000  Uiso   1.00
H136   H     0.82314   0.12500   0.20811   0.00000  Uiso   1.00
H137   H     0.73688   0.12456   0.07447   0.00000  Uiso   1.00
H138   H     0.71033   0.07307   0.01891   0.00000  Uiso   1.00
H139   H     0.75245   0.05832   0.08595   0.00000  Uiso   1.00
H140   H     0.95769   0.03992   0.36276   0.00000  Uiso   1.00
H141   H     0.99087   0.31135   0.36046   0.00000  Uiso   1.00
H142   H     0.91557   0.31206   0.36354   0.00000  Uiso   1.00
H143   H     0.76378   0.32677   0.41186   0.00000  Uiso   1.00
H144   H     0.81881   0.32090   0.47582   0.00000  Uiso   1.00
H145   H     0.82316   0.28721   0.41046   0.00000  Uiso   1.00
H146   H     0.84352   0.20836   0.29187   0.00000  Uiso   1.00
H147   H     0.93406   0.04480   0.49091   0.00000  Uiso   1.00
H148   H     0.88817   0.20955   0.07933   0.00000  Uiso   1.00
H149   H     0.99549   0.23388   0.42699   0.00000  Uiso   1.00
H150   H     0.80050   0.22332   0.06659   0.00000  Uiso   1.00
H151   H     0.71135   0.25982   0.02475   0.00000  Uiso   1.00
H152   H     0.75469   0.08381   0.37871   0.00000  Uiso   1.00
H153   H     0.72749   0.00272   0.23622   0.00000  Uiso   1.00
N154   N     0.81160   0.15223   0.23542   0.00000  Uiso   1.00
N155   N     0.85507   0.18110   0.26457   0.00000  Uiso   1.00
O156   O     0.96435   0.24629   0.25357   0.00000  Uiso   1.00
O157   O     0.93420   0.32892   0.28623   0.00000  Uiso   1.00
O158   O     0.84530   0.03295   0.41383   0.00000  Uiso   1.00
O159   O     0.72408   0.23704   0.24423   0.00000  Uiso   1.00
O160   O     0.98157   0.17358   0.33380   0.00000  Uiso   1.00
O161   O     0.74130   0.16433   0.32446   0.00000  Uiso   1.00
O162   O     0.94258   0.09629   0.25576   0.00000  Uiso   1.00
O163   O     0.70231   0.08704   0.24642   0.00000  Uiso   1.00
O164   O     0.92537   0.16901   0.17554   0.00000  Uiso   1.00
O165   O     0.68510   0.15976   0.16620   0.00000  Uiso   1.00
O166   O     0.66854   0.07407   0.08824   0.00000  Uiso   1.00
Zn167  Zn    0.93786   0.17284   0.25623   0.00000  Uiso   1.00
Zn168  Zn    0.72881   0.16049   0.24376   0.00000  Uiso   1.00
C169   C     0.01531   0.59829   0.25053   0.00000  Uiso   1.00
C170   C     0.05447   0.50836   0.41616   0.00000  Uiso   1.00
C171   C     0.02276   0.65299   0.25093   0.00000  Uiso   1.00
C172   C     0.03562   0.50301   0.35524   0.00000  Uiso   1.00
C173   C     0.31446   0.34863   0.26401   0.00000  Uiso   1.00
C174   C     0.31922   0.40206   0.25379   0.00000  Uiso   1.00
C175   C     0.29729   0.49489   0.14487   0.00000  Uiso   1.00
C176   C     0.25630   0.41410   0.00956   0.00000  Uiso   1.00
C177   C     0.27625   0.48113   0.08537   0.00000  Uiso   1.00
C178   C     0.03275   0.54729   0.44651   0.00000  Uiso   1.00
C179   C     0.06132   0.56304   0.00118   0.00000  Uiso   1.00
C180   C     0.13545   0.50254   0.49391   0.00000  Uiso   1.00
C181   C     0.11330   0.54232   0.02424   0.00000  Uiso   1.00
C182   C     0.05216   0.41663   0.06528   0.00000  Uiso   1.00
C183   C     0.28431   0.66522   0.34581   0.00000  Uiso   1.00
C184   C     0.14424   0.65724   0.42902   0.00000  Uiso   1.00
C185   C     0.10174   0.48188   0.44203   0.00000  Uiso   1.00
C186   C     0.18948   0.48218   0.01353   0.00000  Uiso   1.00
C187   C     0.20432   0.43611   0.48691   0.00000  Uiso   1.00
C188   C     0.16577   0.41167   0.43975   0.00000  Uiso   1.00
C189   C     0.11608   0.43569   0.41643   0.00000  Uiso   1.00
C190   C     0.22887   0.50623   0.05961   0.00000  Uiso   1.00
C191   C     0.29197   0.43573   0.05967   0.00000  Uiso   1.00
H192   H     0.15647   0.45833   0.20811   0.00000  Uiso   1.00
H193   H     0.07021   0.45790   0.07447   0.00000  Uiso   1.00
H194   H     0.04366   0.40640   0.01891   0.00000  Uiso   1.00
H195   H     0.08578   0.39165   0.08595   0.00000  Uiso   1.00
H196   H     0.29102   0.37326   0.36276   0.00000  Uiso   1.00
H197   H     0.32420   0.64468   0.36046   0.00000  Uiso   1.00
H198   H     0.24890   0.64539   0.36354   0.00000  Uiso   1.00
H199   H     0.09711   0.66010   0.41186   0.00000  Uiso   1.00
H200   H     0.15214   0.65423   0.47582   0.00000  Uiso   1.00
H201   H     0.15649   0.62054   0.41046   0.00000  Uiso   1.00
H202   H     0.17686   0.54169   0.29187   0.00000  Uiso   1.00
H203   H     0.26739   0.37813   0.49091   0.00000  Uiso   1.00
H204   H     0.22150   0.54288   0.07933   0.00000  Uiso   1.00
H205   H     0.32883   0.56722   0.42699   0.00000  Uiso   1.00
H206   H     0.13383   0.55666   0.06659   0.00000  Uiso   1.00
H207   H     0.04469   0.59316   0.02475   0.00000  Uiso   1.00
H208   H     0.08802   0.41714   0.37871   0.00000  Uiso   1.00
H209   H     0.06083   0.33605   0.23622   0.00000  Uiso   1.00
N210   N     0.14493   0.48556   0.23542   0.00000  Uiso   1.00
N211   N     0.18840   0.51444   0.26457   0.00000  Uiso   1.00
O212   O     0.29769   0.57963   0.25357   0.00000  Uiso   1.00
O213   O     0.26754   0.66226   0.28623   0.00000  Uiso   1.00
O214   O     0.17864   0.36628   0.41383   0.00000  Uiso   1.00
O215   O     0.05742   0.57038   0.24423   0.00000  Uiso   1.00
O216   O     0.31490   0.50691   0.33380   0.00000  Uiso   1.00
O217   O     0.07463   0.49766   0.32446   0.00000  Uiso   1.00
O218   O     0.27592   0.42962   0.25576   0.00000  Uiso   1.00
O219   O     0.03565   0.42037   0.24642   0.00000  Uiso   1.00
O220   O     0.25870   0.50234   0.17554   0.00000  Uiso   1.00
O221   O     0.01843   0.49309   0.16620   0.00000  Uiso   1.00
O222   O     0.00188   0.40740   0.08824   0.00000  Uiso   1.00
Zn223  Zn    0.27119   0.50618   0.25623   0.00000  Uiso   1.00
Zn224  Zn    0.06214   0.49382   0.24376   0.00000  Uiso   1.00
C225   C     0.34864   0.59829   0.25053   0.00000  Uiso   1.00
C226   C     0.38780   0.50836   0.41616   0.00000  Uiso   1.00
C227   C     0.35609   0.65299   0.25093   0.00000  Uiso   1.00
C228   C     0.36895   0.50301   0.35524   0.00000  Uiso   1.00
C229   C     0.64779   0.34863   0.26401   0.00000  Uiso   1.00
C230   C     0.65255   0.40206   0.25379   0.00000  Uiso   1.00
C231   C     0.63063   0.49489   0.14487   0.00000  Uiso   1.00
C232   C     0.58963   0.41410   0.00956   0.00000  Uiso   1.00
C233   C     0.60958   0.48113   0.08537   0.00000  Uiso   1.00
C234   C     0.36608   0.54729   0.44651   0.00000  Uiso   1.00
C235   C     0.39465   0.56304   0.00118   0.00000  Uiso   1.00
C236   C     0.46878   0.50254   0.49391   0.00000  Uiso   1.00
C237   C     0.44664   0.54232   0.02424   0.00000  Uiso   1.00
C238   C     0.38549   0.41663   0.06528   0.00000  Uiso   1.00
C239   C     0.61764   0.66522   0.34581   0.00000  Uiso   1.00
C240   C     0.47758   0.65724   0.42902   0.00000  Uiso   1.00
C241   C     0.43508   0.48188   0.44203   0.00000  Uiso   1.00
C242   C     0.52281   0.48218   0.01353   0.00000  Uiso   1.00
C243   C     0.53765   0.43611   0.48691   0.00000  Uiso   1.00
C244   C     0.49910   0.41167   0.43975   0.00000  Uiso   1.00
C245   C     0.44941   0.43569   0.41643   0.00000  Uiso   1.00
C246   C     0.56221   0.50623   0.05961   0.00000  Uiso   1.00
C247   C     0.62530   0.43573   0.05967   0.00000  Uiso   1.00
H248   H     0.48981   0.45833   0.20811   0.00000  Uiso   1.00
H249   H     0.40354   0.45790   0.07447   0.00000  Uiso   1.00
H250   H     0.37699   0.40640   0.01891   0.00000  Uiso   1.00
H251   H     0.41911   0.39165   0.08595   0.00000  Uiso   1.00
H252   H     0.62435   0.37326   0.36276   0.00000  Uiso   1.00
H253   H     0.65753   0.64468   0.36046   0.00000  Uiso   1.00
H254   H     0.58223   0.64539   0.36354   0.00000  Uiso   1.00
H255   H     0.43045   0.66010   0.41186   0.00000  Uiso   1.00
H256   H     0.48548   0.65423   0.47582   0.00000  Uiso   1.00
H257   H     0.48982   0.62054   0.41046   0.00000  Uiso   1.00
H258   H     0.51019   0.54169   0.29187   0.00000  Uiso   1.00
H259   H     0.60072   0.37813   0.49091   0.00000  Uiso   1.00
H260   H     0.55484   0.54288   0.07933   0.00000  Uiso   1.00
H261   H     0.66216   0.56722   0.42699   0.00000  Uiso   1.00
H262   H     0.46717   0.55666   0.06659   0.00000  Uiso   1.00
H263   H     0.37802   0.59316   0.02475   0.00000  Uiso   1.00
H264   H     0.42135   0.41714   0.37871   0.00000  Uiso   1.00
H265   H     0.39416   0.33605   0.23622   0.00000  Uiso   1.00
N266   N     0.47827   0.48556   0.23542   0.00000  Uiso   1.00
N267   N     0.52173   0.51444   0.26457   0.00000  Uiso   1.00
O268   O     0.63102   0.57963   0.25357   0.00000  Uiso   1.00
O269   O     0.60087   0.66226   0.28623   0.00000  Uiso   1.00
O270   O     0.51197   0.36628   0.41383   0.00000  Uiso   1.00
O271   O     0.39075   0.57038   0.24423   0.00000  Uiso   1.00
O272   O     0.64823   0.50691   0.33380   0.00000  Uiso   1.00
O273   O     0.40796   0.49766   0.32446   0.00000  Uiso   1.00
O274   O     0.60925   0.42962   0.25576   0.00000  Uiso   1.00
O275   O     0.36898   0.42037   0.24642   0.00000  Uiso   1.00
O276   O     0.59204   0.50234   0.17554   0.00000  Uiso   1.00
O277   O     0.35177   0.49309   0.16620   0.00000  Uiso   1.00
O278   O     0.33521   0.40740   0.08824   0.00000  Uiso   1.00
Zn279  Zn    0.60453   0.50618   0.25623   0.00000  Uiso   1.00
Zn280  Zn    0.39547   0.49382   0.24376   0.00000  Uiso   1.00
C281   C     0.68198   0.59829   0.25053   0.00000  Uiso   1.00
C282   C     0.72113   0.50836   0.41616   0.00000  Uiso   1.00
C283   C     0.68943   0.65299   0.25093   0.00000  Uiso   1.00
C284   C     0.70228   0.50301   0.35524   0.00000  Uiso   1.00
C285   C     0.98112   0.34863   0.26401   0.00000  Uiso   1.00
C286   C     0.98589   0.40206   0.25379   0.00000  Uiso   1.00
C287   C     0.96396   0.49489   0.14487   0.00000  Uiso   1.00
C288   C     0.92297   0.41410   0.00956   0.00000  Uiso   1.00
C289   C     0.94292   0.48113   0.08537   0.00000  Uiso   1.00
C290   C     0.69941   0.54729   0.44651   0.00000  Uiso   1.00
C291   C     0.72798   0.56304   0.00118   0.00000  Uiso   1.00
C292   C     0.80211   0.50254   0.49391   0.00000  Uiso   1.00
C293   C     0.77997   0.54232   0.02424   0.00000  Uiso   1.00
C294   C     0.71882   0.41663   0.06528   0.00000  Uiso   1.00
C295   C     0.95097   0.66522   0.34581   0.00000  Uiso   1.00
C296   C     0.81091   0.65724   0.42902   0.00000  Uiso   1.00
C297   C     0.76841   0.48188   0.44203   0.00000  Uiso   1.00
C298   C     0.85615   0.48218   0.01353   0.00000  Uiso   1.00
C299   C     0.87098   0.43611   0.48691   0.00000  Uiso   1.00
C300   C     0.83244   0.41167   0.43975   0.00000  Uiso   1.00
C301   C     0.78275   0.43569   0.41643   0.00000  Uiso   1.00
C302   C     0.89554   0.50623   0.05961   0.00000  Uiso   1.00
C303   C     0.95863   0.43573   0.05967   0.00000  Uiso   1.00
H304   H     0.82314   0.45833   0.20811   0.00000  Uiso   1.00
H305   H     0.73688   0.45790   0.07447   0.00000  Uiso   1.00
H306   H     0.71033   0.40640   0.01891   0.00000  Uiso   1.00
H307   H     0.75245   0.39165   0.08595   0.00000  Uiso   1.00
H308   H     0.95769   0.37326   0.36276   0.00000  Uiso   1.00
H309   H     0.99087   0.64468   0.36046   0.00000  Uiso   1.00
H310   H     0.91557   0.64539   0.36354   0.00000  Uiso   1.00
H311   H     0.76378   0.66010   0.41186   0.00000  Uiso   1.00
H312   H     0.81881   0.65423   0.47582   0.00000  Uiso   1.00
H313   H     0.82316   0.62054   0.41046   0.00000  Uiso   1.00
H314   H     0.84352   0.54169   0.29187   0.00000  Uiso   1.00
H315   H     0.93406   0.37813   0.49091   0.00000  Uiso   1.00
H316   H     0.88817   0.54288   0.07933   0.00000  Uiso   1.00
H317   H     0.99549   0.56722   0.42699   0.00000  Uiso   1.00
H318   H     0.80050   0.55666   0.06659   0.00000  Uiso   1.00
H319   H     0.71135   0.59316   0.02475   0.00000  Uiso   1.00
H320   H     0.75469   0.41714   0.37871   0.00000  Uiso   1.00
H321   H     0.72749   0.33605   0.23622   0.00000  Uiso   1.00
N322   N     0.81160   0.48556   0.23542   0.00000  Uiso   1.00
N323   N     0.85507   0.51444   0.26457   0.00000  Uiso   1.00
O324   O     0.96435   0.57963   0.25357   0.00000  Uiso   1.00
O325   O     0.93420   0.66226   0.28623   0.00000  Uiso   1.00
O326   O     0.84530   0.36628   0.41383   0.00000  Uiso   1.00
O327   O     0.72408   0.57038   0.24423   0.00000  Uiso   1.00
O328   O     0.98157   0.50691   0.33380   0.00000  Uiso   1.00
O329   O     0.74130   0.49766   0.32446   0.00000  Uiso   1.00
O330   O     0.94258   0.42962   0.25576   0.00000  Uiso   1.00
O331   O     0.70231   0.42037   0.24642   0.00000  Uiso   1.00
O332   O     0.92537   0.50234   0.17554   0.00000  Uiso   1.00
O333   O     0.68510   0.49309   0.16620   0.00000  Uiso   1.00
O334   O     0.66854   0.40740   0.08824   0.00000  Uiso   1.00
Zn335  Zn    0.93786   0.50618   0.25623   0.00000  Uiso   1.00
Zn336  Zn    0.72881   0.49382   0.24376   0.00000  Uiso   1.00
C337   C     0.01531   0.93162   0.25053   0.00000  Uiso   1.00
C338   C     0.05447   0.84170   0.41616   0.00000  Uiso   1.00
C339   C     0.02276   0.98632   0.25093   0.00000  Uiso   1.00
C340   C     0.03562   0.83634   0.35524   0.00000  Uiso   1.00
C341   C     0.31446   0.68197   0.26401   0.00000  Uiso   1.00
C342   C     0.31922   0.73539   0.25379   0.00000  Uiso   1.00
C343   C     0.29729   0.82822   0.14487   0.00000  Uiso   1.00
C344   C     0.25630   0.74743   0.00956   0.00000  Uiso   1.00
C345   C     0.27625   0.81447   0.08537   0.00000  Uiso   1.00
C346   C     0.03275   0.88062   0.44651   0.00000  Uiso   1.00
C347   C     0.06132   0.89638   0.00118   0.00000  Uiso   1.00
C348   C     0.13545   0.83587   0.49391   0.00000  Uiso   1.00
C349   C     0.11330   0.87565   0.02424   0.00000  Uiso   1.00
C350   C     0.05216   0.74997   0.06528   0.00000  Uiso   1.00
C351   C     0.28431   0.99856   0.34581   0.00000  Uiso   1.00
C352   C     0.14424   0.99058   0.42902   0.00000  Uiso   1.00
C353   C     0.10174   0.81521   0.44203   0.00000  Uiso   1.00
C354   C     0.18948   0.81552   0.01353   0.00000  Uiso   1.00
C355   C     0.20432   0.76944   0.48691   0.00000  Uiso   1.00
C356   C     0.16577   0.74500   0.43975   0.00000  Uiso   1.00
C357   C     0.11608   0.76902   0.41643   0.00000  Uiso   1.00
C358   C     0.22887   0.83956   0.05961   0.00000  Uiso   1.00
C359   C     0.29197   0.76907   0.05967   0.00000  Uiso   1.00
H360   H     0.15647   0.79167   0.20811   0.00000  Uiso   1.00
H361   H     0.07021   0.79123   0.07447   0.00000  Uiso   1.00
H362   H     0.04366   0.73974   0.01891   0.00000  Uiso   1.00
H363   H     0.08578   0.72499   0.08595   0.00000  Uiso   1.00
H364   H     0.29102   0.70659   0.36276   0.00000  Uiso   1.00
H365   H     0.32420   0.97801   0.36046   0.00000  Uiso   1.00
H366   H     0.24890   0.97873   0.36354   0.00000  Uiso   1.00
H367   H     0.09711   0.99344   0.41186   0.00000  Uiso   1.00
H368   H     0.15214   0.98756   0.47582   0.00000  Uiso   1.00
H369   H     0.15649   0.95387   0.41046   0.00000  Uiso   1.00
H370   H     0.17686   0.87502   0.29187   0.00000  Uiso   1.00
H371   H     0.26739   0.71146   0.49091   0.00000  Uiso   1.00
H372   H     0.22150   0.87621   0.07933   0.00000  Uiso   1.00
H373   H     0.32883   0.90055   0.42699   0.00000  Uiso   1.00
H374   H     0.13383   0.88999   0.06659   0.00000  Uiso   1.00
H375   H     0.04469   0.92649   0.02475   0.00000  Uiso   1.00
H376   H     0.08802   0.75047   0.37871   0.00000  Uiso   1.00
H377   H     0.06083   0.66938   0.23622   0.00000  Uiso   1.00
N378   N     0.14493   0.81890   0.23542   0.00000  Uiso   1.00
N379   N     0.18840   0.84777   0.26457   0.00000  Uiso   1.00
O380   O     0.29769   0.91296   0.25357   0.00000  Uiso   1.00
O381   O     0.26754   0.99559   0.28623   0.00000  Uiso   1.00
O382   O     0.17864   0.69962   0.41383   0.00000  Uiso   1.00
O383   O     0.05742   0.90371   0.24423   0.00000  Uiso   1.00
O384   O     0.31490   0.84024   0.33380   0.00000  Uiso   1.00
O385   O     0.07463   0.83099   0.32446   0.00000  Uiso   1.00
O386   O     0.27592   0.76296   0.25576   0.00000  Uiso   1.00
O387   O     0.03565   0.75371   0.24642   0.00000  Uiso   1.00
O388   O     0.25870   0.83567   0.17554   0.00000  Uiso   1.00
O389   O     0.01843   0.82642   0.16620   0.00000  Uiso   1.00
O390   O     0.00188   0.74073   0.08824   0.00000  Uiso   1.00
Zn391  Zn    0.27119   0.83951   0.25623   0.00000  Uiso   1.00
Zn392  Zn    0.06214   0.82716   0.24376   0.00000  Uiso   1.00
C393   C     0.34864   0.93162   0.25053   0.00000  Uiso   1.00
C394   C     0.38780   0.84170   0.41616   0.00000  Uiso   1.00
C395   C     0.35609   0.98632   0.25093   0.00000  Uiso   1.00
C396   C     0.36895   0.83634   0.35524   0.00000  Uiso   1.00
C397   C     0.64779   0.68197   0.26401   0.00000  Uiso   1.00
C398   C     0.65255   0.73539   0.25379   0.00000  Uiso   1.00
C399   C     0.63063   0.82822   0.14487   0.00000  Uiso   1.00
C400   C     0.58963   0.74743   0.00956   0.00000  Uiso   1.00
C401   C     0.60958   0.81447   0.08537   0.00000  Uiso   1.00
C402   C     0.36608   0.88062   0.44651   0.00000  Uiso   1.00
C403   C     0.39465   0.89638   0.00118   0.00000  Uiso   1.00
C404   C     0.46878   0.83587   0.49391   0.00000  Uiso   1.00
C405   C     0.44664   0.87565   0.02424   0.00000  Uiso   1.00
C406   C     0.38549   0.74997   0.06528   0.00000  Uiso   1.00
C407   C     0.61764   0.99856   0.34581   0.00000  Uiso   1.00
C408   C     0.47758   0.99058   0.42902   0.00000  Uiso   1.00
C409   C     0.43508   0.81521   0.44203   0.00000  Uiso   1.00
C410   C     0.52281   0.81552   0.01353   0.00000  Uiso   1.00
C411   C     0.53765   0.76944   0.48691   0.00000  Uiso   1.00
C412   C     0.49910   0.74500   0.43975   0.00000  Uiso   1.00
C413   C     0.44941   0.76902   0.41643   0.00000  Uiso   1.00
C414   C     0.56221   0.83956   0.05961   0.00000  Uiso   1.00
C415   C     0.62530   0.76907   0.05967   0.00000  Uiso   1.00
H416   H     0.48981   0.79167   0.20811   0.00000  Uiso   1.00
H417   H     0.40354   0.79123   0.07447   0.00000  Uiso   1.00
H418   H     0.37699   0.73974   0.01891   0.00000  Uiso   1.00
H419   H     0.41911   0.72499   0.08595   0.00000  Uiso   1.00
H420   H     0.62435   0.70659   0.36276   0.00000  Uiso   1.00
H421   H     0.65753   0.97801   0.36046   0.00000  Uiso   1.00
H422   H     0.58223   0.97873   0.36354   0.00000  Uiso   1.00
H423   H     0.43045   0.99344   0.41186   0.00000  Uiso   1.00
H424   H     0.48548   0.98756   0.47582   0.00000  Uiso   1.00
H425   H     0.48982   0.95387   0.41046   0.00000  Uiso   1.00
H426   H     0.51019   0.87502   0.29187   0.00000  Uiso   1.00
H427   H     0.60072   0.71146   0.49091   0.00000  Uiso   1.00
H428   H     0.55484   0.87621   0.07933   0.00000  Uiso   1.00
H429   H     0.66216   0.90055   0.42699   0.00000  Uiso   1.00
H430   H     0.46717   0.88999   0.06659   0.00000  Uiso   1.00
H431   H     0.37802   0.92649   0.02475   0.00000  Uiso   1.00
H432   H     0.42135   0.75047   0.37871   0.00000  Uiso   1.00
H433   H     0.39416   0.66938   0.23622   0.00000  Uiso   1.00
N434   N     0.47827   0.81890   0.23542   0.00000  Uiso   1.00
N435   N     0.52173   0.84777   0.26457   0.00000  Uiso   1.00
O436   O     0.63102   0.91296   0.25357   0.00000  Uiso   1.00
O437   O     0.60087   0.99559   0.28623   0.00000  Uiso   1.00
O438   O     0.51197   0.69962   0.41383   0.00000  Uiso   1.00
O439   O     0.39075   0.90371   0.24423   0.00000  Uiso   1.00
O440   O     0.64823   0.84024   0.33380   0.00000  Uiso   1.00
O441   O     0.40796   0.83099   0.32446   0.00000  Uiso   1.00
O442   O     0.60925   0.76296   0.25576   0.00000  Uiso   1.00
O443   O     0.36898   0.75371   0.24642   0.00000  Uiso   1.00
O444   O     0.59204   0.83567   0.17554   0.00000  Uiso   1.00
O445   O     0.35177   0.82642   0.16620   0.00000  Uiso   1.00
O446   O     0.33521   0.74073   0.08824   0.00000  Uiso   1.00
Zn447  Zn    0.60453   0.83951   0.25623   0.00000  Uiso   1.00
Zn448  Zn    0.39547   0.82716   0.24376   0.00000  Uiso   1.00
C449   C     0.68198   0.93162   0.25053   0.00000  Uiso   1.00
C450   C     0.72113   0.84170   0.41616   0.00000  Uiso   1.00
C451   C     0.68943   0.98632   0.25093   0.00000  Uiso   1.00
C452   C     0.70228   0.83634   0.35524   0.00000  Uiso   1.00
C453   C     0.98112   0.68197   0.26401   0.00000  Uiso   1.00
C454   C     0.98589   0.73539   0.25379   0.00000  Uiso   1.00
C455   C     0.96396   0.82822   0.14487   0.00000  Uiso   1.00
C456   C     0.92297   0.74743   0.00956   0.00000  Uiso   1.00
C457   C     0.94292   0.81447   0.08537   0.00000  Uiso   1.00
C458   C     0.69941   0.88062   0.44651   0.00000  Uiso   1.00
C459   C     0.72798   0.89638   0.00118   0.00000  Uiso   1.00
C460   C     0.80211   0.83587   0.49391   0.00000  Uiso   1.00
C461   C     0.77997   0.87565   0.02424   0.00000  Uiso   1.00
C462   C     0.71882   0.74997   0.06528   0.00000  Uiso   1.00
C463   C     0.95097   0.99856   0.34581   0.00000  Uiso   1.00
C464   C     0.81091   0.99058   0.42902   0.00000  Uiso   1.00
C465   C     0.76841   0.81521   0.44203   0.00000  Uiso   1.00
C466   C     0.85615   0.81552   0.01353   0.00000  Uiso   1.00
C467   C     0.87098   0.76944   0.48691   0.00000  Uiso   1.00
C468   C     0.83244   0.74500   0.43975   0.00000  Uiso   1.00
C469   C     0.78275   0.76902   0.41643   0.00000  Uiso   1.00
C470   C     0.89554   0.83956   0.05961   0.00000  Uiso   1.00
C471   C     0.95863   0.76907   0.05967   0.00000  Uiso   1.00
H472   H     0.82314   0.79167   0.20811   0.00000  Uiso   1.00
H473   H     0.73688   0.79123   0.07447   0.00000  Uiso   1.00
H474   H     0.71033   0.73974   0.01891   0.00000  Uiso   1.00
H475   H     0.75245   0.72499   0.08595   0.00000  Uiso   1.00
H476   H     0.95769   0.70659   0.36276   0.00000  Uiso   1.00
H477   H     0.99087   0.97801   0.36046   0.00000  Uiso   1.00
H478   H     0.91557   0.97873   0.36354   0.00000  Uiso   1.00
H479   H     0.76378   0.99344   0.41186   0.00000  Uiso   1.00
H480   H     0.81881   0.98756   0.47582   0.00000  Uiso   1.00
H481   H     0.82316   0.95387   0.41046   0.00000  Uiso   1.00
H482   H     0.84352   0.87502   0.29187   0.00000  Uiso   1.00
H483   H     0.93406   0.71146   0.49091   0.00000  Uiso   1.00
H484   H     0.88817   0.87621   0.07933   0.00000  Uiso   1.00
H485   H     0.99549   0.90055   0.42699   0.00000  Uiso   1.00
H486   H     0.80050   0.88999   0.06659   0.00000  Uiso   1.00
H487   H     0.71135   0.92649   0.02475   0.00000  Uiso   1.00
H488   H     0.75469   0.75047   0.37871   0.00000  Uiso   1.00
H489   H     0.72749   0.66938   0.23622   0.00000  Uiso   1.00
N490   N     0.81160   0.81890   0.23542   0.00000  Uiso   1.00
N491   N     0.85507   0.84777   0.26457   0.00000  Uiso   1.00
O492   O     0.96435   0.91296   0.25357   0.00000  Uiso   1.00
O493   O     0.93420   0.99559   0.28623   0.00000  Uiso   1.00
O494   O     0.84530   0.69962   0.41383   0.00000  Uiso   1.00
O495   O     0.72408   0.90371   0.24423   0.00000  Uiso   1.00
O496   O     0.98157   0.84024   0.33380   0.00000  Uiso   1.00
O497   O     0.74130   0.83099   0.32446   0.00000  Uiso   1.00
O498   O     0.94258   0.76296   0.25576   0.00000  Uiso   1.00
O499   O     0.70231   0.75371   0.24642   0.00000  Uiso   1.00
O500   O     0.92537   0.83567   0.17554   0.00000  Uiso   1.00
O501   O     0.68510   0.82642   0.16620   0.00000  Uiso   1.00
O502   O     0.66854   0.74073   0.08824   0.00000  Uiso   1.00
Zn503  Zn    0.93786   0.83951   0.25623   0.00000  Uiso   1.00
Zn504  Zn    0.72881   0.82716   0.24376   0.00000  Uiso   1.00
C505   C     0.01531   0.26495   0.75053   0.00000  Uiso   1.00
C506   C     0.05447   0.17503   0.91616   0.00000  Uiso   1.00
C507   C     0.02276   0.31965   0.75093   0.00000  Uiso   1.00
C508   C     0.03562   0.16968   0.85524   0.00000  Uiso   1.00
C509   C     0.31446   0.01530   0.76401   0.00000  Uiso   1.00
C510   C     0.31922   0.06873   0.75379   0.00000  Uiso   1.00
C511   C     0.29729   0.16156   0.64487   0.00000  Uiso   1.00
C512   C     0.25630   0.08077   0.50956   0.00000  Uiso   1.00
C513   C     0.27625   0.14780   0.58537   0.00000  Uiso   1.00
C514   C     0.03275   0.21396   0.94651   0.00000  Uiso   1.00
C515   C     0.06132   0.22971   0.50118   0.00000  Uiso   1.00
C516   C     0.13545   0.16921   0.99391   0.00000  Uiso   1.00
C517   C     0.11330   0.20898   0.52424   0.00000  Uiso   1.00
C518   C     0.05216   0.08330   0.56528   0.00000  Uiso   1.00
C519   C     0.28431   0.33189   0.84581   0.00000  Uiso   1.00
C520   C     0.14424   0.32391   0.92902   0.00000  Uiso   1.00
C521   C     0.10174   0.14855   0.94203   0.00000  Uiso   1.00
C522   C     0.18948   0.14885   0.51353   0.00000  Uiso   1.00
C523   C     0.20432   0.10277   0.98691   0.00000  Uiso   1.00
C524   C     0.16577   0.07834   0.93975   0.00000  Uiso   1.00
C525   C     0.11608   0.10236   0.91643   0.00000  Uiso   1.00
C526   C     0.22887   0.17290   0.55961   0.00000  Uiso   1.00
C527   C     0.29197   0.10240   0.55967   0.00000  Uiso   1.00
H528   H     0.15647   0.12500   0.70811   0.00000  Uiso   1.00
H529   H     0.07021   0.12456   0.57447   0.00000  Uiso   1.00
H530   H     0.04366   0.07307   0.51891   0.00000  Uiso   1.00
H531   H     0.08578   0.05832   0.58595   0.00000  Uiso   1.00
H532   H     0.29102   0.03992   0.86276   0.00000  Uiso   1.00
H533   H     0.32420   0.31135   0.86046   0.00000  Uiso   1.00
H534   H     0.24890   0.31206   0.86354   0.00000  Uiso   1.00
H535   H     0.09711   0.32677   0.91186   0.00000  Uiso   1.00
H536   H     0.15214   0.32090   0.97582   0.00000  Uiso   1.00
H537   H     0.15649   0.28721   0.91046   0.00000  Uiso   1.00
H538   H     0.17686   0.20836   0.79187   0.00000  Uiso   1.00
H539   H     0.26739   0.04480   0.99091   0.00000  Uiso   1.00
H540   H     0.22150   0.20955   0.57933   0.00000  Uiso   1.00
H541   H     0.32883   0.23388   0.92699   0.00000  Uiso   1.00
H542   H     0.13383   0.22332   0.56659   0.00000  Uiso   1.00
H543   H     0.04469   0.25982   0.52475   0.00000  Uiso   1.00
H544   H     0.08802   0.08381   0.87871   0.00000  Uiso   1.00
H545   H     0.06083   0.00272   0.73622   0.00000  Uiso   1.00
N546   N     0.14493   0.15223   0.73542   0.00000  Uiso   1.00
N547   N     0.18840   0.18110   0.76457   0.00000  Uiso   1.00
O548   O     0.29769   0.24629   0.75357   0.00000  Uiso   1.00
O549   O     0.26754   0.32892   0.78623   0.00000  Uiso   1.00
O550   O     0.17864   0.03295   0.91383   0.00000  Uiso   1.00
O551   O     0.05742   0.23704   0.74423   0.00000  Uiso   1.00
O552   O     0.31490   0.17358   0.83380   0.00000  Uiso   1.00
O553   O     0.07463   0.16433   0.82446   0.00000  Uiso   1.00
O554   O     0.27592   0.09629   0.75576   0.00000  Uiso   1.00
O555   O     0.03565   0.08704   0.74642   0.00000  Uiso   1.00
O556   O     0.25870   0.16901   0.67554   0.00000  Uiso   1.00
O557   O     0.01843   0.15976   0.66620   0.00000  Uiso   1.00
O558   O     0.00188   0.07407   0.58824   0.00000  Uiso   1.00
Zn559  Zn    0.27119   0.17284   0.75623   0.00000  Uiso   1.00
Zn560  Zn    0.06214   0.16049   0.74376   0.00000  Uiso   1.00
C561   C     0.34864   0.26495   0.75053   0.00000  Uiso   1.00
C562   C     0.38780   0.17503   0.91616   0.00000  Uiso   1.00
C563   C     0.35609   0.31965   0.75093   0.00000  Uiso   1.00
C564   C     0.36895   0.16968   0.85524   0.00000  Uiso   1.00
C565   C     0.64779   0.01530   0.76401   0.00000  Uiso   1.00
C566   C     0.65255   0.06873   0.75379   0.00000  Uiso   1.00
C567   C     0.63063   0.16156   0.64487   0.00000  Uiso   1.00
C568   C     0.58963   0.08077   0.50956   0.00000  Uiso   1.00
C569   C     0.60958   0.14780   0.58537   0.00000  Uiso   1.00
C570   C     0.36608   0.21396   0.94651   0.00000  Uiso   1.00
C571   C     0.39465   0.22971   0.50118   0.00000  Uiso   1.00
C572   C     0.46878   0.16921   0.99391   0.00000  Uiso   1.00
C573   C     0.44664   0.20898   0.52424   0.00000  Uiso   1.00
C574   C     0.38549   0.08330   0.56528   0.00000  Uiso   1.00
C575   C     0.61764   0.33189   0.84581   0.00000  Uiso   1.00
C576   C     0.47758   0.32391   0.92902   0.00000  Uiso   1.00
C577   C     0.43508   0.14855   0.94203   0.00000  Uiso   1.00
C578   C     0.52281   0.14885   0.51353   0.00000  Uiso   1.00
C579   C     0.53765   0.10277   0.98691   0.00000  Uiso   1.00
C580   C     0.49910   0.07834   0.93975   0.00000  Uiso   1.00
C581   C     0.44941   0.10236   0.91643   0.00000  Uiso   1.00
C582   C     0.56221   0.17290   0.55961   0.00000  Uiso   1.00
C583   C     0.62530   0.10240   0.55967   0.00000  Uiso   1.00
H584   H     0.48981   0.12500   0.70811   0.00000  Uiso   1.00
H585   H     0.40354   0.12456   0.57447   0.00000  Uiso   1.00
H586   H     0.37699   0.07307   0.51891   0.00000  Uiso   1.00
H587   H     0.41911   0.05832   0.58595   0.00000  Uiso   1.00
H588   H     0.62435   0.03992   0.86276   0.00000  Uiso   1.00
H589   H     0.65753   0.31135   0.86046   0.00000  Uiso   1.00
H590   H     0.58223   0.31206   0.86354   0.00000  Uiso   1.00
H591   H     0.43045   0.32677   0.91186   0.00000  Uiso   1.00
H592   H     0.48548   0.32090   0.97582   0.00000  Uiso   1.00
H593   H     0.48982   0.28721   0.91046   0.00000  Uiso   1.00
H594   H     0.51019   0.20836   0.79187   0.00000  Uiso   1.00
H595   H     0.60072   0.04480   0.99091   0.00000  Uiso   1.00
H596   H     0.55484   0.20955   0.57933   0.00000  Uiso   1.00
H597   H     0.66216   0.23388   0.92699   0.00000  Uiso   1.00
H598   H     0.46717   0.22332   0.56659   0.00000  Uiso   1.00
H599   H     0.37802   0.25982   0.52475   0.00000  Uiso   1.00
H600   H     0.42135   0.08381   0.87871   0.00000  Uiso   1.00
H601   H     0.39416   0.00272   0.73622   0.00000  Uiso   1.00
N602   N     0.47827   0.15223   0.73542   0.00000  Uiso   1.00
N603   N     0.52173   0.18110   0.76457   0.00000  Uiso   1.00
O604   O     0.63102   0.24629   0.75357   0.00000  Uiso   1.00
O605   O     0.60087   0.32892   0.78623   0.00000  Uiso   1.00
O606   O     0.51197   0.03295   0.91383   0.00000  Uiso   1.00
O607   O     0.39075   0.23704   0.74423   0.00000  Uiso   1.00
O608   O     0.64823   0.17358   0.83380   0.00000  Uiso   1.00
O609   O     0.40796   0.16433   0.82446   0.00000  Uiso   1.00
O610   O     0.60925   0.09629   0.75576   0.00000  Uiso   1.00
O611   O     0.36898   0.08704   0.74642   0.00000  Uiso   1.00
O612   O     0.59204   0.16901   0.67554   0.00000  Uiso   1.00
O613   O     0.35177   0.15976   0.66620   0.00000  Uiso   1.00
O614   O     0.33521   0.07407   0.58824   0.00000  Uiso   1.00
Zn615  Zn    0.60453   0.17284   0.75623   0.00000  Uiso   1.00
Zn616  Zn    0.39547   0.16049   0.74376   0.00000  Uiso   1.00
C617   C     0.68198   0.26495   0.75053   0.00000  Uiso   1.00
C618   C     0.72113   0.17503   0.91616   0.00000  Uiso   1.00
C619   C     0.68943   0.31965   0.75093   0.00000  Uiso   1.00
C620   C     0.70228   0.16968   0.85524   0.00000  Uiso   1.00
C621   C     0.98112   0.01530   0.76401   0.00000  Uiso   1.00
C622   C     0.98589   0.06873   0.75379   0.00000  Uiso   1.00
C623   C     0.96396   0.16156   0.64487   0.00000  Uiso   1.00
C624   C     0.92297   0.08077   0.50956   0.00000  Uiso   1.00
C625   C     0.94292   0.14780   0.58537   0.00000  Uiso   1.00
C626   C     0.69941   0.21396   0.94651   0.00000  Uiso   1.00
C627   C     0.72798   0.22971   0.50118   0.00000  Uiso   1.00
C628   C     0.80211   0.16921   0.99391   0.00000  Uiso   1.00
C629   C     0.77997   0.20898   0.52424   0.00000  Uiso   1.00
C630   C     0.71882   0.08330   0.56528   0.00000  Uiso   1.00
C631   C     0.95097   0.33189   0.84581   0.00000  Uiso   1.00
C632   C     0.81091   0.32391   0.92902   0.00000  Uiso   1.00
C633   C     0.76841   0.14855   0.94203   0.00000  Uiso   1.00
C634   C     0.85615   0.14885   0.51353   0.00000  Uiso   1.00
C635   C     0.87098   0.10277   0.98691   0.00000  Uiso   1.00
C636   C     0.83244   0.07834   0.93975   0.00000  Uiso   1.00
C637   C     0.78275   0.10236   0.91643   0.00000  Uiso   1.00
C638   C     0.89554   0.17290   0.55961   0.00000  Uiso   1.00
C639   C     0.95863   0.10240   0.55967   0.00000  Uiso   1.00
H640   H     0.82314   0.12500   0.70811   0.00000  Uiso   1.00
H641   H     0.73688   0.12456   0.57447   0.00000  Uiso   1.00
H642   H     0.71033   0.07307   0.51891   0.00000  Uiso   1.00
H643   H     0.75245   0.05832   0.58595   0.00000  Uiso   1.00
H644   H     0.95769   0.03992   0.86276   0.00000  Uiso   1.00
H645   H     0.99087   0.31135   0.86046   0.00000  Uiso   1.00
H646   H     0.91557   0.31206   0.86354   0.00000  Uiso   1.00
H647   H     0.76378   0.32677   0.91186   0.00000  Uiso   1.00
H648   H     0.81881   0.32090   0.97582   0.00000  Uiso   1.00
H649   H     0.82316   0.28721   0.91046   0.00000  Uiso   1.00
H650   H     0.84352   0.20836   0.79187   0.00000  Uiso   1.00
H651   H     0.93406   0.04480   0.99091   0.00000  Uiso   1.00
H652   H     0.88817   0.20955   0.57933   0.00000  Uiso   1.00
H653   H     0.99549   0.23388   0.92699   0.00000  Uiso   1.00
H654   H     0.80050   0.22332   0.56659   0.00000  Uiso   1.00
H655   H     0.71135   0.25982   0.52475   0.00000  Uiso   1.00
H656   H     0.75469   0.08381   0.87871   0.00000  Uiso   1.00
H657   H     0.72749   0.00272   0.73622   0.00000  Uiso   1.00
N658   N     0.81160   0.15223   0.73542   0.00000  Uiso   1.00
N659   N     0.85507   0.18110   0.76457   0.00000  Uiso   1.00
O660   O     0.96435   0.24629   0.75357   0.00000  Uiso   1.00
O661   O     0.93420   0.32892   0.78623   0.00000  Uiso   1.00
O662   O     0.84530   0.03295   0.91383   0.00000  Uiso   1.00
O663   O     0.72408   0.23704   0.74423   0.00000  Uiso   1.00
O664   O     0.98157   0.17358   0.83380   0.00000  Uiso   1.00
O665   O     0.74130   0.16433   0.82446   0.00000  Uiso   1.00
O666   O     0.94258   0.09629   0.75576   0.00000  Uiso   1.00
O667   O     0.70231   0.08704   0.74642   0.00000  Uiso   1.00
O668   O     0.92537   0.16901   0.67554   0.00000  Uiso   1.00
O669   O     0.68510   0.15976   0.66620   0.00000  Uiso   1.00
O670   O     0.66854   0.07407   0.58824   0.00000  Uiso   1.00
Zn671  Zn    0.93786   0.17284   0.75623   0.00000  Uiso   1.00
Zn672  Zn    0.72881   0.16049   0.74376   0.00000  Uiso   1.00
C673   C     0.01531   0.59829   0.75053   0.00000  Uiso   1.00
C674   C     0.05447   0.50836   0.91616   0.00000  Uiso   1.00
C675   C     0.02276   0.65299   0.75093   0.00000  Uiso   1.00
C676   C     0.03562   0.50301   0.85524   0.00000  Uiso   1.00
C677   C     0.31446   0.34863   0.76401   0.00000  Uiso   1.00
C678   C     0.31922   0.40206   0.75379   0.00000  Uiso   1.00
C679   C     0.29729   0.49489   0.64487   0.00000  Uiso   1.00
C680   C     0.25630   0.41410   0.50956   0.00000  Uiso   1.00
C681   C     0.27625   0.48113   0.58537   0.00000  Uiso   1.00
C682   C     0.03275   0.54729   0.94651   0.00000  Uiso   1.00
C683   C     0.06132   0.56304   0.50118   0.00000  Uiso   1.00
C684   C     0.13545   0.50254   0.99391   0.00000  Uiso   1.00
C685   C     0.11330   0.54232   0.52424   0.00000  Uiso   1.00
C686   C     0.05216   0.41663   0.56528   0.00000  Uiso   1.00
C687   C     0.28431   0.66522   0.84581   0.00000  Uiso   1.00
C688   C     0.14424   0.65724   0.92902   0.00000  Uiso   1.00
C689   C     0.10174   0.48188   0.94203   0.00000  Uiso   1.00
C690   C     0.18948   0.48218   0.51353   0.00000  Uiso   1.00
C691   C     0.20432   0.43611   0.98691   0.00000  Uiso   1.00
C692   C     0.16577   0.41167   0.93975   0.00000  Uiso   1.00
C693   C     0.11608   0.43569   0.91643   0.00000  Uiso   1.00
C694   C     0.22887   0.50623   0.55961   0.00000  Uiso   1.00
C695   C     0.29197   0.43573   0.55967   0.00000  Uiso   1.00
H696   H     0.15647   0.45833   0.70811   0.00000  Uiso   1.00
H697   H     0.07021   0.45790   0.57447   0.00000  Uiso   1.00
H698   H     0.04366   0.40640   0.51891   0.00000  Uiso   1.00
H699   H     0.08578   0.39165   0.58595   0.00000  Uiso   1.00
H700   H     0.29102   0.37326   0.86276   0.00000  Uiso   1.00
H701   H     0.32420   0.64468   0.86046   0.00000  Uiso   1.00
H702   H     0.24890   0.64539   0.86354   0.00000  Uiso   1.00
H703   H     0.09711   0.66010   0.91186   0.00000  Uiso   1.00
H704   H     0.15214   0.65423   0.97582   0.00000  Uiso   1.00
H705   H     0.15649   0.62054   0.91046   0.00000  Uiso   1.00
H706   H     0.17686   0.54169   0.79187   0.00000  Uiso   1.00
H707   H     0.26739   0.37813   0.99091   0.00000  Uiso   1.00
H708   H     0.22150   0.54288   0.57933   0.00000  Uiso   1.00
H709   H     0.32883   0.56722   0.92699   0.00000  Uiso   1.00
H710   H     0.13383   0.55666   0.56659   0.00000  Uiso   1.00
H711   H     0.04469   0.59316   0.52475   0.00000  Uiso   1.00
H712   H     0.08802   0.41714   0.87871   0.00000  Uiso   1.00
H713   H     0.06083   0.33605   0.73622   0.00000  Uiso   1.00
N714   N     0.14493   0.48556   0.73542   0.00000  Uiso   1.00
N715   N     0.18840   0.51444   0.76457   0.00000  Uiso   1.00
O716   O     0.29769   0.57963   0.75357   0.00000  Uiso   1.00
O717   O     0.26754   0.66226   0.78623   0.00000  Uiso   1.00
O718   O     0.17864   0.36628   0.91383   0.00000  Uiso   1.00
O719   O     0.05742   0.57038   0.74423   0.00000  Uiso   1.00
O720   O     0.31490   0.50691   0.83380   0.00000  Uiso   1.00
O721   O     0.07463   0.49766   0.82446   0.00000  Uiso   1.00
O722   O     0.27592   0.42962   0.75576   0.00000  Uiso   1.00
O723   O     0.03565   0.42037   0.74642   0.00000  Uiso   1.00
O724   O     0.25870   0.50234   0.67554   0.00000  Uiso   1.00
O725   O     0.01843   0.49309   0.66620   0.00000  Uiso   1.00
O726   O     0.00188   0.40740   0.58824   0.00000  Uiso   1.00
Zn727  Zn    0.27119   0.50618   0.75623   0.00000  Uiso   1.00
Zn728  Zn    0.06214   0.49382   0.74376   0.00000  Uiso   1.00
C729   C     0.34864   0.59829   0.75053   0.00000  Uiso   1.00
C730   C     0.38780   0.50836   0.91616   0.00000  Uiso   1.00
C731   C     0.35609   0.65299   0.75093   0.00000  Uiso   1.00
C732   C     0.36895   0.50301   0.85524   0.00000  Uiso   1.00
C733   C     0.64779   0.34863   0.76401   0.00000  Uiso   1.00
C734   C     0.65255   0.40206   0.75379   0.00000  Uiso   1.00
C735   C     0.63063   0.49489   0.64487   0.00000  Uiso   1.00
C736   C     0.58963   0.41410   0.50956   0.00000  Uiso   1.00
C737   C     0.60958   0.48113   0.58537   0.00000  Uiso   1.00
C738   C     0.36608   0.54729   0.94651   0.00000  Uiso   1.00
C739   C     0.39465   0.56304   0.50118   0.00000  Uiso   1.00
C740   C     0.46878   0.50254   0.99391   0.00000  Uiso   1.00
C741   C     0.44664   0.54232   0.52424   0.00000  Uiso   1.00
C742   C     0.38549   0.41663   0.56528   0.00000  Uiso   1.00
C743   C     0.61764   0.66522   0.84581   0.00000  Uiso   1.00
C744   C     0.47758   0.65724   0.92902   0.00000  Uiso   1.00
C745   C     0.43508   0.48188   0.94203   0.00000  Uiso   1.00
C746   C     0.52281   0.48218   0.51353   0.00000  Uiso   1.00
C747   C     0.53765   0.43611   0.98691   0.00000  Uiso   1.00
C748   C     0.49910   0.41167   0.93975   0.00000  Uiso   1.00
C749   C     0.44941   0.43569   0.91643   0.00000  Uiso   1.00
C750   C     0.56221   0.50623   0.55961   0.00000  Uiso   1.00
C751   C     0.62530   0.43573   0.55967   0.00000  Uiso   1.00
H752   H     0.48981   0.45833   0.70811   0.00000  Uiso   1.00
H753   H     0.40354   0.45790   0.57447   0.00000  Uiso   1.00
H754   H     0.37699   0.40640   0.51891   0.00000  Uiso   1.00
H755   H     0.41911   0.39165   0.58595   0.00000  Uiso   1.00
H756   H     0.62435   0.37326   0.86276   0.00000  Uiso   1.00
H757   H     0.65753   0.64468   0.86046   0.00000  Uiso   1.00
H758   H     0.58223   0.64539   0.86354   0.00000  Uiso   1.00
H759   H     0.43045   0.66010   0.91186   0.00000  Uiso   1.00
H760   H     0.48548   0.65423   0.97582   0.00000  Uiso   1.00
H761   H     0.48982   0.62054   0.91046   0.00000  Uiso   1.00
H762   H     0.51019   0.54169   0.79187   0.00000  Uiso   1.00
H763   H     0.60072   0.37813   0.99091   0.00000  Uiso   1.00
H764   H     0.55484   0.54288   0.57933   0.00000  Uiso   1.00
H765   H     0.66216   0.56722   0.92699   0.00000  Uiso   1.00
H766   H     0.46717   0.55666   0.56659   0.00000  Uiso   1.00
H767   H     0.37802   0.59316   0.52475   0.00000  Uiso   1.00
H768   H     0.42135   0.41714   0.87871   0.00000  Uiso   1.00
H769   H     0.39416   0.33605   0.73622   0.00000  Uiso   1.00
N770   N     0.47827   0.48556   0.73542   0.00000  Uiso   1.00
N771   N     0.52173   0.51444   0.76457   0.00000  Uiso   1.00
O772   O     0.63102   0.57963   0.75357   0.00000  Uiso   1.00
O773   O     0.60087   0.66226   0.78623   0.00000  Uiso   1.00
O774   O     0.51197   0.36628   0.91383   0.00000  Uiso   1.00
O775   O     0.39075   0.57038   0.74423   0.00000  Uiso   1.00
O776   O     0.64823   0.50691   0.83380   0.00000  Uiso   1.00
O777   O     0.40796   0.49766   0.82446   0.00000  Uiso   1.00
O778   O     0.60925   0.42962   0.75576   0.00000  Uiso   1.00
O779   O     0.36898   0.42037   0.74642   0.00000  Uiso   1.00
O780   O     0.59204   0.50234   0.67554   0.00000  Uiso   1.00
O781   O     0.35177   0.49309   0.66620   0.00000  Uiso   1.00
O782   O     0.33521   0.40740   0.58824   0.00000  Uiso   1.00
Zn783  Zn    0.60453   0.50618   0.75623   0.00000  Uiso   1.00
Zn784  Zn    0.39547   0.49382   0.74376   0.00000  Uiso   1.00
C785   C     0.68198   0.59829   0.75053   0.00000  Uiso   1.00
C786   C     0.72113   0.50836   0.91616   0.00000  Uiso   1.00
C787   C     0.68943   0.65299   0.75093   0.00000  Uiso   1.00
C788   C     0.70228   0.50301   0.85524   0.00000  Uiso   1.00
C789   C     0.98112   0.34863   0.76401   0.00000  Uiso   1.00
C790   C     0.98589   0.40206   0.75379   0.00000  Uiso   1.00
C791   C     0.96396   0.49489   0.64487   0.00000  Uiso   1.00
C792   C     0.92297   0.41410   0.50956   0.00000  Uiso   1.00
C793   C     0.94292   0.48113   0.58537   0.00000  Uiso   1.00
C794   C     0.69941   0.54729   0.94651   0.00000  Uiso   1.00
C795   C     0.72798   0.56304   0.50118   0.00000  Uiso   1.00
C796   C     0.80211   0.50254   0.99391   0.00000  Uiso   1.00
C797   C     0.77997   0.54232   0.52424   0.00000  Uiso   1.00
C798   C     0.71882   0.41663   0.56528   0.00000  Uiso   1.00
C799   C     0.95097   0.66522   0.84581   0.00000  Uiso   1.00
C800   C     0.81091   0.65724   0.92902   0.00000  Uiso   1.00
C801   C     0.76841   0.48188   0.94203   0.00000  Uiso   1.00
C802   C     0.85615   0.48218   0.51353   0.00000  Uiso   1.00
C803   C     0.87098   0.43611   0.98691   0.00000  Uiso   1.00
C804   C     0.83244   0.41167   0.93975   0.00000  Uiso   1.00
C805   C     0.78275   0.43569   0.91643   0.00000  Uiso   1.00
C806   C     0.89554   0.50623   0.55961   0.00000  Uiso   1.00
C807   C     0.95863   0.43573   0.55967   0.00000  Uiso   1.00
H808   H     0.82314   0.45833   0.70811   0.00000  Uiso   1.00
H809   H     0.73688   0.45790   0.57447   0.00000  Uiso   1.00
H810   H     0.71033   0.40640   0.51891   0.00000  Uiso   1.00
H811   H     0.75245   0.39165   0.58595   0.00000  Uiso   1.00
H812   H     0.95769   0.37326   0.86276   0.00000  Uiso   1.00
H813   H     0.99087   0.64468   0.86046   0.00000  Uiso   1.00
H814   H     0.91557   0.64539   0.86354   0.00000  Uiso   1.00
H815   H     0.76378   0.66010   0.91186   0.00000  Uiso   1.00
H816   H     0.81881   0.65423   0.97582   0.00000  Uiso   1.00
H817   H     0.82316   0.62054   0.91046   0.00000  Uiso   1.00
H818   H     0.84352   0.54169   0.79187   0.00000  Uiso   1.00
H819   H     0.93406   0.37813   0.99091   0.00000  Uiso   1.00
H820   H     0.88817   0.54288   0.57933   0.00000  Uiso   1.00
H821   H     0.99549   0.56722   0.92699   0.00000  Uiso   1.00
H822   H     0.80050   0.55666   0.56659   0.00000  Uiso   1.00
H823   H     0.71135   0.59316   0.52475   0.00000  Uiso   1.00
H824   H     0.75469   0.41714   0.87871   0.00000  Uiso   1.00
H825   H     0.72749   0.33605   0.73622   0.00000  Uiso   1.00
N826   N     0.81160   0.48556   0.73542   0.00000  Uiso   1.00
N827   N     0.85507   0.51444   0.76457   0.00000  Uiso   1.00
O828   O     0.96435   0.57963   0.75357   0.00000  Uiso   1.00
O829   O     0.93420   0.66226   0.78623   0.00000  Uiso   1.00
O830   O     0.84530   0.36628   0.91383   0.00000  Uiso   1.00
O831   O     0.72408   0.57038   0.74423   0.00000  Uiso   1.00
O832   O     0.98157   0.50691   0.83380   0.00000  Uiso   1.00
O833   O     0.74130   0.49766   0.82446   0.00000  Uiso   1.00
O834   O     0.94258   0.42962   0.75576   0.00000  Uiso   1.00
O835   O     0.70231   0.42037   0.74642   0.00000  Uiso   1.00
O836   O     0.92537   0.50234   0.67554   0.00000  Uiso   1.00
O837   O     0.68510   0.49309   0.66620   0.00000  Uiso   1.00
O838   O     0.66854   0.40740   0.58824   0.00000  Uiso   1.00
Zn839  Zn    0.93786   0.50618   0.75623   0.00000  Uiso   1.00
Zn840  Zn    0.72881   0.49382   0.74376   0.00000  Uiso   1.00
C841   C     0.01531   0.93162   0.75053   0.00000  Uiso   1.00
C842   C     0.05447   0.84170   0.91616   0.00000  Uiso   1.00
C843   C     0.02276   0.98632   0.75093   0.00000  Uiso   1.00
C844   C     0.03562   0.83634   0.85524   0.00000  Uiso   1.00
C845   C     0.31446   0.68197   0.76401   0.00000  Uiso   1.00
C846   C     0.31922   0.73539   0.75379   0.00000  Uiso   1.00
C847   C     0.29729   0.82822   0.64487   0.00000  Uiso   1.00
C848   C     0.25630   0.74743   0.50956   0.00000  Uiso   1.00
C849   C     0.27625   0.81447   0.58537   0.00000  Uiso   1.00
C850   C     0.03275   0.88062   0.94651   0.00000  Uiso   1.00
C851   C     0.06132   0.89638   0.50118   0.00000  Uiso   1.00
C852   C     0.13545   0.83587   0.99391   0.00000  Uiso   1.00
C853   C     0.11330   0.87565   0.52424   0.00000  Uiso   1.00
C854   C     0.05216   0.74997   0.56528   0.00000  Uiso   1.00
C855   C     0.28431   0.99856   0.84581   0.00000  Uiso   1.00
C856   C     0.14424   0.99058   0.92902   0.00000  Uiso   1.00
C857   C     0.10174   0.81521   0.94203   0.00000  Uiso   1.00
C858   C     0.18948   0.81552   0.51353   0.00000  Uiso   1.00
C859   C     0.20432   0.76944   0.98691   0.00000  Uiso   1.00
C860   C     0.16577   0.74500   0.93975   0.00000  Uiso   1.00
C861   C     0.11608   0.76902   0.91643   0.00000  Uiso   1.00
C862   C     0.22887   0.83956   0.55961   0.00000  Uiso   1.00
C863   C     0.29197   0.76907   0.55967   0.00000  Uiso   1.00
H864   H     0.15647   0.79167   0.70811   0.00000  Uiso   1.00
H865   H     0.07021   0.79123   0.57447   0.00000  Uiso   1.00
H866   H     0.04366   0.73974   0.51891   0.00000  Uiso   1.00
H867   H     0.08578   0.72499   0.58595   0.00000  Uiso   1.00
H868   H     0.29102   0.70659   0.86276   0.00000  Uiso   1.00
H869   H     0.32420   0.97801   0.86046   0.00000  Uiso   1.00
H870   H     0.24890   0.97873   0.86354   0.00000  Uiso   1.00
H871   H     0.09711   0.99344   0.91186   0.00000  Uiso   1.00
H872   H     0.15214   0.98756   0.97582   0.00000  Uiso   1.00
H873   H     0.15649   0.95387   0.91046   0.00000  Uiso   1.00
H874   H     0.17686   0.87502   0.79187   0.00000  Uiso   1.00
H875   H     0.26739   0.71146   0.99091   0.00000  Uiso   1.00
H876   H     0.22150   0.87621   0.57933   0.00000  Uiso   1.00
H877   H     0.32883   0.90055   0.92699   0.00000  Uiso   1.00
H878   H     0.13383   0.88999   0.56659   0.00000  Uiso   1.00
H879   H     0.04469   0.92649   0.52475   0.00000  Uiso   1.00
H880   H     0.08802   0.75047   0.87871   0.00000  Uiso   1.00
H881   H     0.06083   0.66938   0.73622   0.00000  Uiso   1.00
N882   N     0.14493   0.81890   0.73542   0.00000  Uiso   1.00
N883   N     0.18840   0.84777   0.76457   0.00000  Uiso   1.00
O884   O     0.29769   0.91296   0.75357   0.00000  Uiso   1.00
O885   O     0.26754   0.99559   0.78623   0.00000  Uiso   1.00
O886   O     0.17864   0.69962   0.91383   0.00000  Uiso   1.00
O887   O     0.05742   0.90371   0.74423   0.00000  Uiso   1.00
O888   O     0.31490   0.84024   0.83380   0.00000  Uiso   1.00
O889   O     0.07463   0.83099   0.82446   0.00000  Uiso   1.00
O890   O     0.27592   0.76296   0.75576   0.00000  Uiso   1.00
O891   O     0.03565   0.75371   0.74642   0.00000  Uiso   1.00
O892   O     0.25870   0.83567   0.67554   0.00000  Uiso   1.00
O893   O     0.01843   0.82642   0.66620   0.00000  Uiso   1.00
O894   O     0.00188   0.74073   0.58824   0.00000  Uiso   1.00
Zn895  Zn    0.27119   0.83951   0.75623   0.00000  Uiso   1.00
Zn896  Zn    0.06214   0.82716   0.74376   0.00000  Uiso   1.00
C897   C     0.34864   0.93162   0.75053   0.00000  Uiso   1.00
C898   C     0.38780   0.84170   0.91616   0.00000  Uiso   1.00
C899   C     0.35609   0.98632   0.75093   0.00000  Uiso   1.00
C900   C     0.36895   0.83634   0.85524   0.00000  Uiso   1.00
C901   C     0.64779   0.68197   0.76401   0.00000  Uiso   1.00
C902   C     0.65255   0.73539   0.75379   0.00000  Uiso   1.00
C903   C     0.63063   0.82822   0.64487   0.00000  Uiso   1.00
C904   C     0.58963   0.74743   0.50956   0.00000  Uiso   1.00
C905   C     0.60958   0.81447   0.58537   0.00000  Uiso   1.00
C906   C     0.36608   0.88062   0.94651   0.00000  Uiso   1.00
C907   C     0.39465   0.89638   0.50118   0.00000  Uiso   1.00
C908   C     0.46878   0.83587   0.99391   0.00000  Uiso   1.00
C909   C     0.44664   0.87565   0.52424   0.00000  Uiso   1.00
C910   C     0.38549   0.74997   0.56528   0.00000  Uiso   1.00
C911   C     0.61764   0.99856   0.84581   0.00000  Uiso   1.00
C912   C     0.47758   0.99058   0.92902   0.00000  Uiso   1.00
C913   C     0.43508   0.81521   0.94203   0.00000  Uiso   1.00
C914   C     0.52281   0.81552   0.51353   0.00000  Uiso   1.00
C915   C     0.53765   0.76944   0.98691   0.00000  Uiso   1.00
C916   C     0.49910   0.74500   0.93975   0.00000  Uiso   1.00
C917   C     0.44941   0.76902   0.91643   0.00000  Uiso   1.00
C918   C     0.56221   0.83956   0.55961   0.00000  Uiso   1.00
C919   C     0.62530   0.76907   0.55967   0.00000  Uiso   1.00
H920   H     0.48981   0.79167   0.70811   0.00000  Uiso   1.00
H921   H     0.40354   0.79123   0.57447   0.00000  Uiso   1.00
H922   H     0.37699   0.73974   0.51891   0.00000  Uiso   1.00
H923   H     0.41911   0.72499   0.58595   0.00000  Uiso   1.00
H924   H     0.62435   0.70659   0.86276   0.00000  Uiso   1.00
H925   H     0.65753   0.97801   0.86046   0.00000  Uiso   1.00
H926   H     0.58223   0.97873   0.86354   0.00000  Uiso   1.00
H927   H     0.43045   0.99344   0.91186   0.00000  Uiso   1.00
H928   H     0.48548   0.98756   0.97582   0.00000  Uiso   1.00
H929   H     0.48982   0.95387   0.91046   0.00000  Uiso   1.00
H930   H     0.51019   0.87502   0.79187   0.00000  Uiso   1.00
H931   H     0.60072   0.71146   0.99091   0.00000  Uiso   1.00
H932   H     0.55484   0.87621   0.57933   0.00000  Uiso   1.00
H933   H     0.66216   0.90055   0.92699   0.00000  Uiso   1.00
H934   H     0.46717   0.88999   0.56659   0.00000  Uiso   1.00
H935   H     0.37802   0.92649   0.52475   0.00000  Uiso   1.00
H936   H     0.42135   0.75047   0.87871   0.00000  Uiso   1.00
H937   H     0.39416   0.66938   0.73622   0.00000  Uiso   1.00
N938   N     0.47827   0.81890   0.73542   0.00000  Uiso   1.00
N939   N     0.52173   0.84777   0.76457   0.00000  Uiso   1.00
O940   O     0.63102   0.91296   0.75357   0.00000  Uiso   1.00
O941   O     0.60087   0.99559   0.78623   0.00000  Uiso   1.00
O942   O     0.51197   0.69962   0.91383   0.00000  Uiso   1.00
O943   O     0.39075   0.90371   0.74423   0.00000  Uiso   1.00
O944   O     0.64823   0.84024   0.83380   0.00000  Uiso   1.00
O945   O     0.40796   0.83099   0.82446   0.00000  Uiso   1.00
O946   O     0.60925   0.76296   0.75576   0.00000  Uiso   1.00
O947   O     0.36898   0.75371   0.74642   0.00000  Uiso   1.00
O948   O     0.59204   0.83567   0.67554   0.00000  Uiso   1.00
O949   O     0.35177   0.82642   0.66620   0.00000  Uiso   1.00
O950   O     0.33521   0.74073   0.58824   0.00000  Uiso   1.00
Zn951  Zn    0.60453   0.83951   0.75623   0.00000  Uiso   1.00
Zn952  Zn    0.39547   0.82716   0.74376   0.00000  Uiso   1.00
C953   C     0.68198   0.93162   0.75053   0.00000  Uiso   1.00
C954   C     0.72113   0.84170   0.91616   0.00000  Uiso   1.00
C955   C     0.68943   0.98632   0.75093   0.00000  Uiso   1.00
C956   C     0.70228   0.83634   0.85524   0.00000  Uiso   1.00
C957   C     0.98112   0.68197   0.76401   0.00000  Uiso   1.00
C958   C     0.98589   0.73539   0.75379   0.00000  Uiso   1.00
C959   C     0.96396   0.82822   0.64487   0.00000  Uiso   1.00
C960   C     0.92297   0.74743   0.50956   0.00000  Uiso   1.00
C961   C     0.94292   0.81447   0.58537   0.00000  Uiso   1.00
C962   C     0.69941   0.88062   0.94651   0.00000  Uiso   1.00
C963   C     0.72798   0.89638   0.50118   0.00000  Uiso   1.00
C964   C     0.80211   0.83587   0.99391   0.00000  Uiso   1.00
C965   C     0.77997   0.87565   0.52424   0.00000  Uiso   1.00
C966   C     0.71882   0.74997   0.56528   0.00000  Uiso   1.00
C967   C     0.95097   0.99856   0.84581   0.00000  Uiso   1.00
C968   C     0.81091   0.99058   0.92902   0.00000  Uiso   1.00
C969   C     0.76841   0.81521   0.94203   0.00000  Uiso   1.00
C970   C     0.85615   0.81552   0.51353   0.00000  Uiso   1.00
C971   C     0.87098   0.76944   0.98691   0.00000  Uiso   1.00
C972   C     0.83244   0.74500   0.93975   0.00000  Uiso   1.00
C973   C     0.78275   0.76902   0.91643   0.00000  Uiso   1.00
C974   C     0.89554   0.83956   0.55961   0.00000  Uiso   1.00
C975   C     0.95863   0.76907   0.55967   0.00000  Uiso   1.00
H976   H     0.82314   0.79167   0.70811   0.00000  Uiso   1.00
H977   H     0.73688   0.79123   0.57447   0.00000  Uiso   1.00
H978   H     0.71033   0.73974   0.51891   0.00000  Uiso   1.00
H979   H     0.75245   0.72499   0.58595   0.00000  Uiso   1.00
H980   H     0.95769   0.70659   0.86276   0.00000  Uiso   1.00
H981   H     0.99087   0.97801   0.86046   0.00000  Uiso   1.00
H982   H     0.91557   0.97873   0.86354   0.00000  Uiso   1.00
H983   H     0.76378   0.99344   0.91186   0.00000  Uiso   1.00
H984   H     0.81881   0.98756   0.97582   0.00000  Uiso   1.00
H985   H     0.82316   0.95387   0.91046   0.00000  Uiso   1.00
H986   H     0.84352   0.87502   0.79187   0.00000  Uiso   1.00
H987   H     0.93406   0.71146   0.99091   0.00000  Uiso   1.00
H988   H     0.88817   0.87621   0.57933   0.00000  Uiso   1.00
H989   H     0.99549   0.90055   0.92699   0.00000  Uiso   1.00
H990   H     0.80050   0.88999   0.56659   0.00000  Uiso   1.00
H991   H     0.71135   0.92649   0.52475   0.00000  Uiso   1.00
H992   H     0.75469   0.75047   0.87871   0.00000  Uiso   1.00
H993   H     0.72749   0.66938   0.73622   0.00000  Uiso   1.00
N994   N     0.81160   0.81890   0.73542   0.00000  Uiso   1.00
N995   N     0.85507   0.84777   0.76457   0.00000  Uiso   1.00
O996   O     0.96435   0.91296   0.75357   0.00000  Uiso   1.00
O997   O     0.93420   0.99559   0.78623   0.00000  Uiso   1.00
O998   O     0.84530   0.69962   0.91383   0.00000  Uiso   1.00
O999   O     0.72408   0.90371   0.74423   0.00000  Uiso   1.00
O1000  O     0.98157   0.84024   0.83380   0.00000  Uiso   1.00
O1001  O     0.74130   0.83099   0.82446   0.00000  Uiso   1.00
O1002  O     0.94258   0.76296   0.75576   0.00000  Uiso   1.00
O1003  O     0.70231   0.75371   0.74642   0.00000  Uiso   1.00
O1004  O     0.92537   0.83567   0.67554   0.00000  Uiso   1.00
O1005  O     0.68510   0.82642   0.66620   0.00000  Uiso   1.00
O1006  O     0.66854   0.74073   0.58824   0.00000  Uiso   1.00
Zn1007 Zn    0.93786   0.83951   0.75623   0.00000  Uiso   1.00
Zn1008 Zn    0.72881   0.82716   0.74376   0.00000  Uiso   1.00
loop_
_geom_bond_atom_site_label_1
_geom_bond_atom_site_label_2
_geom_bond_distance
_geom_bond_site_symmetry_2
_ccdc_geom_bond_type
C1     O47     1.293   .     A
C1     C3      1.404   .     S
C1     O156    1.273   1_455 S
C2     C4      1.447   .     S
C2     C17     1.400   .     A
C2     C10     1.401   .     A
C3     C285    1.350   1_455 S
C3     H209    1.088   .     S
C4     O49     1.299   .     A
C4     O160    1.286   1_455 S
C5     C6      1.405   .     S
C5     C395    1.350   1_545 S
C5     O381    1.389   1_545 S
C6     O50     1.289   .     A
C6     O107    1.275   .     S
C7     O52     1.297   .     A
C7     C9      1.444   .     S
C7     O109    1.287   .     S
C8     C23     1.398   .     A
C8     C523    1.405   1_554 S
C8     H539    1.084   1_554 S
C9     C22     1.381   .     A
C9     C23     1.407   .     A
C10    C515    1.387   .     S
C10    H149    1.083   1_455 S
C11    H39     1.083   .     S
C11    C13     1.392   .     A
C11    C514    1.387   1_554 S
C12    C17     1.404   .     A
C12    C517    1.421   .     S
C12    C522    1.411   .     S
C13    H38     1.078   .     S
C13    C516    1.421   1_554 S
C14    H26     1.114   .     S
C14    O54     1.408   .     S
C14    H25     1.110   .     S
C14    H27     1.109   .     S
C15    H29     1.114   .     S
C15    H30     1.108   .     S
C15    O45     1.411   .     S
C15    H196    1.113   .     S
C16    H33     1.110   .     S
C16    H32     1.114   .     S
C16    H31     1.112   .     S
C16    O214    1.411   .     S
C17    C21     1.410   .     A
C18    C22     1.390   .     A
C18    C516    1.411   1_554 S
C18    C523    1.423   1_554 S
C19    C20     1.401   .     A
C19    C512    1.405   .     S
C19    C522    1.423   .     S
C20    C21     1.392   .     A
C20    O46     1.383   .     S
C21    H40     1.083   .     S
C22    H36     1.080   .     S
C23    O110    1.382   .     S
H24    N42     1.029   .     S
H28    C351    1.113   1_545 S
H34    N43     1.029   .     S
H35    C512    1.084   .     S
H37    C66     1.083   .     S
H41    C339    1.088   1_545 S
N42    N43     1.286   .     D
N42    Zn56    2.020   .     S
N43    Zn55    2.020   .     S
O44    Zn55    1.952   .     S
O44    C57     1.273   .     S
O45    C173    1.389   .     S
O46    C352    1.411   1_545 S
O47    Zn56    1.979   .     S
O48    Zn55    1.948   .     S
O48    C60     1.286   .     S
O49    Zn56    1.908   .     S
O50    Zn55    1.979   .     S
O51    Zn56    1.952   .     S
O51    C118    1.275   1_455 S
O52    Zn55    1.908   .     S
O53    Zn56    1.948   .     S
O53    C119    1.287   1_455 S
O54    C135    1.382   1_455 S
C57    O103    1.293   .     A
C57    C59     1.404   .     S
C58    C60     1.447   .     S
C58    C73     1.400   .     A
C58    C66     1.401   .     A
C59    C173    1.350   .     S
C59    H265    1.088   .     S
C60    O105    1.299   .     A
C61    C62     1.405   .     S
C61    C451    1.350   1_545 S
C61    O437    1.389   1_545 S
C62    O106    1.289   .     A
C62    O163    1.275   .     S
C63    O108    1.297   .     A
C63    C65     1.444   .     S
C63    O165    1.287   .     S
C64    C79     1.398   .     A
C64    C579    1.405   1_554 S
C64    H595    1.084   1_554 S
C65    C78     1.381   .     A
C65    C79     1.407   .     A
C66    C571    1.387   .     S
C67    H95     1.083   .     S
C67    C69     1.392   .     A
C67    C570    1.387   1_554 S
C68    C73     1.404   .     A
C68    C573    1.421   .     S
C68    C578    1.411   .     S
C69    H94     1.078   .     S
C69    C572    1.421   1_554 S
C70    H82     1.114   .     S
C70    O110    1.408   .     S
C70    H81     1.110   .     S
C70    H83     1.109   .     S
C71    H85     1.114   .     S
C71    H86     1.108   .     S
C71    O101    1.411   .     S
C71    H252    1.113   .     S
C72    H89     1.110   .     S
C72    H88     1.114   .     S
C72    H87     1.112   .     S
C72    O270    1.411   .     S
C73    C77     1.410   .     A
C74    C78     1.390   .     A
C74    C572    1.411   1_554 S
C74    C579    1.423   1_554 S
C75    C76     1.401   .     A
C75    C568    1.405   .     S
C75    C578    1.423   .     S
C76    C77     1.392   .     A
C76    O102    1.383   .     S
C77    H96     1.083   .     S
C78    H92     1.080   .     S
C79    O166    1.382   .     S
H80    N98     1.029   .     S
H84    C407    1.113   1_545 S
H90    N99     1.029   .     S
H91    C568    1.084   .     S
H93    C122    1.083   .     S
H97    C395    1.088   1_545 S
N98    N99     1.286   .     D
N98    Zn112   2.020   .     S
N99    Zn111   2.020   .     S
O100   Zn111   1.952   .     S
O100   C113    1.273   .     S
O101   C229    1.389   .     S
O102   C408    1.411   1_545 S
O103   Zn112   1.979   .     S
O104   Zn111   1.948   .     S
O104   C116    1.286   .     S
O105   Zn112   1.908   .     S
O106   Zn111   1.979   .     S
O107   Zn112   1.952   .     S
O108   Zn111   1.908   .     S
O109   Zn112   1.948   .     S
C113   O159    1.293   .     A
C113   C115    1.404   .     S
C114   C116    1.447   .     S
C114   C129    1.400   .     A
C114   C122    1.401   .     A
C115   C229    1.350   .     S
C115   H321    1.088   .     S
C116   O161    1.299   .     A
C117   C118    1.405   .     S
C117   C339    1.350   1_645 S
C117   O493    1.389   1_545 S
C118   O162    1.289   .     A
C118   O51     1.275   1_655 S
C119   O164    1.297   .     A
C119   C121    1.444   .     S
C119   O53     1.287   1_655 S
C120   C135    1.398   .     A
C120   C635    1.405   1_554 S
C120   H651    1.084   1_554 S
C121   C134    1.381   .     A
C121   C135    1.407   .     A
C122   C627    1.387   .     S
C123   H151    1.083   .     S
C123   C125    1.392   .     A
C123   C626    1.387   1_554 S
C124   C129    1.404   .     A
C124   C629    1.421   .     S
C124   C634    1.411   .     S
C125   H150    1.078   .     S
C125   C628    1.421   1_554 S
C126   H138    1.114   .     S
C126   O166    1.408   .     S
C126   H137    1.110   .     S
C126   H139    1.109   .     S
C127   H141    1.114   .     S
C127   H142    1.108   .     S
C127   O157    1.411   .     S
C127   H308    1.113   .     S
C128   H145    1.110   .     S
C128   H144    1.114   .     S
C128   H143    1.112   .     S
C128   O326    1.411   .     S
C129   C133    1.410   .     A
C130   C134    1.390   .     A
C130   C628    1.411   1_554 S
C130   C635    1.423   1_554 S
C131   C132    1.401   .     A
C131   C624    1.405   .     S
C131   C634    1.423   .     S
C132   C133    1.392   .     A
C132   O158    1.383   .     S
C133   H152    1.083   .     S
C134   H148    1.080   .     S
C135   O54     1.382   1_655 S
H136   N154    1.029   .     S
H140   C463    1.113   1_545 S
H146   N155    1.029   .     S
H147   C624    1.084   .     S
H149   C10     1.083   1_655 S
H153   C451    1.088   1_545 S
N154   N155    1.286   .     D
N154   Zn168   2.020   .     S
N155   Zn167   2.020   .     S
O156   Zn167   1.952   .     S
O156   C1      1.273   1_655 S
O157   C285    1.389   .     S
O158   C464    1.411   1_545 S
O159   Zn168   1.979   .     S
O160   Zn167   1.948   .     S
O160   C4      1.286   1_655 S
O161   Zn168   1.908   .     S
O162   Zn167   1.979   .     S
O163   Zn168   1.952   .     S
O164   Zn167   1.908   .     S
O165   Zn168   1.948   .     S
C169   O215    1.293   .     A
C169   C171    1.404   .     S
C169   O324    1.273   1_455 S
C170   C172    1.447   .     S
C170   C185    1.400   .     A
C170   C178    1.401   .     A
C171   C453    1.350   1_455 S
C171   H377    1.088   .     S
C172   O217    1.299   .     A
C172   O328    1.286   1_455 S
C173   C174    1.405   .     S
C174   O218    1.289   .     A
C174   O275    1.275   .     S
C175   O220    1.297   .     A
C175   C177    1.444   .     S
C175   O277    1.287   .     S
C176   C191    1.398   .     A
C176   C691    1.405   1_554 S
C176   H707    1.084   1_554 S
C177   C190    1.381   .     A
C177   C191    1.407   .     A
C178   C683    1.387   .     S
C178   H317    1.083   1_455 S
C179   H207    1.083   .     S
C179   C181    1.392   .     A
C179   C682    1.387   1_554 S
C180   C185    1.404   .     A
C180   C685    1.421   .     S
C180   C690    1.411   .     S
C181   H206    1.078   .     S
C181   C684    1.421   1_554 S
C182   H194    1.114   .     S
C182   O222    1.408   .     S
C182   H193    1.110   .     S
C182   H195    1.109   .     S
C183   H197    1.114   .     S
C183   H198    1.108   .     S
C183   O213    1.411   .     S
C183   H364    1.113   .     S
C184   H201    1.110   .     S
C184   H200    1.114   .     S
C184   H199    1.112   .     S
C184   O382    1.411   .     S
C185   C189    1.410   .     A
C186   C190    1.390   .     A
C186   C684    1.411   1_554 S
C186   C691    1.423   1_554 S
C187   C188    1.401   .     A
C187   C680    1.405   .     S
C187   C690    1.423   .     S
C188   C189    1.392   .     A
C188   O214    1.383   .     S
C189   H208    1.083   .     S
C190   H204    1.080   .     S
C191   O278    1.382   .     S
H192   N210    1.029   .     S
H202   N211    1.029   .     S
H203   C680    1.084   .     S
H205   C234    1.083   .     S
N210   N211    1.286   .     D
N210   Zn224   2.020   .     S
N211   Zn223   2.020   .     S
O212   Zn223   1.952   .     S
O212   C225    1.273   .     S
O213   C341    1.389   .     S
O215   Zn224   1.979   .     S
O216   Zn223   1.948   .     S
O216   C228    1.286   .     S
O217   Zn224   1.908   .     S
O218   Zn223   1.979   .     S
O219   Zn224   1.952   .     S
O219   C286    1.275   1_455 S
O220   Zn223   1.908   .     S
O221   Zn224   1.948   .     S
O221   C287    1.287   1_455 S
O222   C303    1.382   1_455 S
C225   O271    1.293   .     A
C225   C227    1.404   .     S
C226   C228    1.447   .     S
C226   C241    1.400   .     A
C226   C234    1.401   .     A
C227   C341    1.350   .     S
C227   H433    1.088   .     S
C228   O273    1.299   .     A
C229   C230    1.405   .     S
C230   O274    1.289   .     A
C230   O331    1.275   .     S
C231   O276    1.297   .     A
C231   C233    1.444   .     S
C231   O333    1.287   .     S
C232   C247    1.398   .     A
C232   C747    1.405   1_554 S
C232   H763    1.084   1_554 S
C233   C246    1.381   .     A
C233   C247    1.407   .     A
C234   C739    1.387   .     S
C235   H263    1.083   .     S
C235   C237    1.392   .     A
C235   C738    1.387   1_554 S
C236   C241    1.404   .     A
C236   C741    1.421   .     S
C236   C746    1.411   .     S
C237   H262    1.078   .     S
C237   C740    1.421   1_554 S
C238   H250    1.114   .     S
C238   O278    1.408   .     S
C238   H249    1.110   .     S
C238   H251    1.109   .     S
C239   H253    1.114   .     S
C239   H254    1.108   .     S
C239   O269    1.411   .     S
C239   H420    1.113   .     S
C240   H257    1.110   .     S
C240   H256    1.114   .     S
C240   H255    1.112   .     S
C240   O438    1.411   .     S
C241   C245    1.410   .     A
C242   C246    1.390   .     A
C242   C740    1.411   1_554 S
C242   C747    1.423   1_554 S
C243   C244    1.401   .     A
C243   C736    1.405   .     S
C243   C746    1.423   .     S
C244   C245    1.392   .     A
C244   O270    1.383   .     S
C245   H264    1.083   .     S
C246   H260    1.080   .     S
C247   O334    1.382   .     S
H248   N266    1.029   .     S
H258   N267    1.029   .     S
H259   C736    1.084   .     S
H261   C290    1.083   .     S
N266   N267    1.286   .     D
N266   Zn280   2.020   .     S
N267   Zn279   2.020   .     S
O268   Zn279   1.952   .     S
O268   C281    1.273   .     S
O269   C397    1.389   .     S
O271   Zn280   1.979   .     S
O272   Zn279   1.948   .     S
O272   C284    1.286   .     S
O273   Zn280   1.908   .     S
O274   Zn279   1.979   .     S
O275   Zn280   1.952   .     S
O276   Zn279   1.908   .     S
O277   Zn280   1.948   .     S
C281   O327    1.293   .     A
C281   C283    1.404   .     S
C282   C284    1.447   .     S
C282   C297    1.400   .     A
C282   C290    1.401   .     A
C283   C397    1.350   .     S
C283   H489    1.088   .     S
C284   O329    1.299   .     A
C285   C286    1.405   .     S
C285   C3      1.350   1_655 S
C286   O330    1.289   .     A
C286   O219    1.275   1_655 S
C287   O332    1.297   .     A
C287   C289    1.444   .     S
C287   O221    1.287   1_655 S
C288   C303    1.398   .     A
C288   C803    1.405   1_554 S
C288   H819    1.084   1_554 S
C289   C302    1.381   .     A
C289   C303    1.407   .     A
C290   C795    1.387   .     S
C291   H319    1.083   .     S
C291   C293    1.392   .     A
C291   C794    1.387   1_554 S
C292   C297    1.404   .     A
C292   C797    1.421   .     S
C292   C802    1.411   .     S
C293   H318    1.078   .     S
C293   C796    1.421   1_554 S
C294   H306    1.114   .     S
C294   O334    1.408   .     S
C294   H305    1.110   .     S
C294   H307    1.109   .     S
C295   H309    1.114   .     S
C295   H310    1.108   .     S
C295   O325    1.411   .     S
C295   H476    1.113   .     S
C296   H313    1.110   .     S
C296   H312    1.114   .     S
C296   H311    1.112   .     S
C296   O494    1.411   .     S
C297   C301    1.410   .     A
C298   C302    1.390   .     A
C298   C796    1.411   1_554 S
C298   C803    1.423   1_554 S
C299   C300    1.401   .     A
C299   C792    1.405   .     S
C299   C802    1.423   .     S
C300   C301    1.392   .     A
C300   O326    1.383   .     S
C301   H320    1.083   .     S
C302   H316    1.080   .     S
C303   O222    1.382   1_655 S
H304   N322    1.029   .     S
H314   N323    1.029   .     S
H315   C792    1.084   .     S
H317   C178    1.083   1_655 S
N322   N323    1.286   .     D
N322   Zn336   2.020   .     S
N323   Zn335   2.020   .     S
O324   Zn335   1.952   .     S
O324   C169    1.273   1_655 S
O325   C453    1.389   .     S
O327   Zn336   1.979   .     S
O328   Zn335   1.948   .     S
O328   C172    1.286   1_655 S
O329   Zn336   1.908   .     S
O330   Zn335   1.979   .     S
O331   Zn336   1.952   .     S
O332   Zn335   1.908   .     S
O333   Zn336   1.948   .     S
C337   O383    1.293   .     A
C337   C339    1.404   .     S
C337   O492    1.273   1_455 S
C338   C340    1.447   .     S
C338   C353    1.400   .     A
C338   C346    1.401   .     A
C339   C117    1.350   1_465 S
C339   H41     1.088   1_565 S
C340   O385    1.299   .     A
C340   O496    1.286   1_455 S
C341   C342    1.405   .     S
C342   O386    1.289   .     A
C342   O443    1.275   .     S
C343   O388    1.297   .     A
C343   C345    1.444   .     S
C343   O445    1.287   .     S
C344   C359    1.398   .     A
C344   C859    1.405   1_554 S
C344   H875    1.084   1_554 S
C345   C358    1.381   .     A
C345   C359    1.407   .     A
C346   C851    1.387   .     S
C346   H485    1.083   1_455 S
C347   H375    1.083   .     S
C347   C349    1.392   .     A
C347   C850    1.387   1_554 S
C348   C353    1.404   .     A
C348   C853    1.421   .     S
C348   C858    1.411   .     S
C349   H374    1.078   .     S
C349   C852    1.421   1_554 S
C350   H362    1.114   .     S
C350   O390    1.408   .     S
C350   H361    1.110   .     S
C350   H363    1.109   .     S
C351   H365    1.114   .     S
C351   H366    1.108   .     S
C351   O381    1.411   .     S
C351   H28     1.113   1_565 S
C352   H369    1.110   .     S
C352   H368    1.114   .     S
C352   H367    1.112   .     S
C352   O46     1.411   1_565 S
C353   C357    1.410   .     A
C354   C358    1.390   .     A
C354   C852    1.411   1_554 S
C354   C859    1.423   1_554 S
C355   C356    1.401   .     A
C355   C848    1.405   .     S
C355   C858    1.423   .     S
C356   C357    1.392   .     A
C356   O382    1.383   .     S
C357   H376    1.083   .     S
C358   H372    1.080   .     S
C359   O446    1.382   .     S
H360   N378    1.029   .     S
H370   N379    1.029   .     S
H371   C848    1.084   .     S
H373   C402    1.083   .     S
N378   N379    1.286   .     D
N378   Zn392   2.020   .     S
N379   Zn391   2.020   .     S
O380   Zn391   1.952   .     S
O380   C393    1.273   .     S
O381   C5      1.389   1_565 S
O383   Zn392   1.979   .     S
O384   Zn391   1.948   .     S
O384   C396    1.286   .     S
O385   Zn392   1.908   .     S
O386   Zn391   1.979   .     S
O387   Zn392   1.952   .     S
O387   C454    1.275   1_455 S
O388   Zn391   1.908   .     S
O389   Zn392   1.948   .     S
O389   C455    1.287   1_455 S
O390   C471    1.382   1_455 S
C393   O439    1.293   .     A
C393   C395    1.404   .     S
C394   C396    1.447   .     S
C394   C409    1.400   .     A
C394   C402    1.401   .     A
C395   C5      1.350   1_565 S
C395   H97     1.088   1_565 S
C396   O441    1.299   .     A
C397   C398    1.405   .     S
C398   O442    1.289   .     A
C398   O499    1.275   .     S
C399   O444    1.297   .     A
C399   C401    1.444   .     S
C399   O501    1.287   .     S
C400   C415    1.398   .     A
C400   C915    1.405   1_554 S
C400   H931    1.084   1_554 S
C401   C414    1.381   .     A
C401   C415    1.407   .     A
C402   C907    1.387   .     S
C403   H431    1.083   .     S
C403   C405    1.392   .     A
C403   C906    1.387   1_554 S
C404   C409    1.404   .     A
C404   C909    1.421   .     S
C404   C914    1.411   .     S
C405   H430    1.078   .     S
C405   C908    1.421   1_554 S
C406   H418    1.114   .     S
C406   O446    1.408   .     S
C406   H417    1.110   .     S
C406   H419    1.109   .     S
C407   H421    1.114   .     S
C407   H422    1.108   .     S
C407   O437    1.411   .     S
C407   H84     1.113   1_565 S
C408   H425    1.110   .     S
C408   H424    1.114   .     S
C408   H423    1.112   .     S
C408   O102    1.411   1_565 S
C409   C413    1.410   .     A
C410   C414    1.390   .     A
C410   C908    1.411   1_554 S
C410   C915    1.423   1_554 S
C411   C412    1.401   .     A
C411   C904    1.405   .     S
C411   C914    1.423   .     S
C412   C413    1.392   .     A
C412   O438    1.383   .     S
C413   H432    1.083   .     S
C414   H428    1.080   .     S
C415   O502    1.382   .     S
H416   N434    1.029   .     S
H426   N435    1.029   .     S
H427   C904    1.084   .     S
H429   C458    1.083   .     S
N434   N435    1.286   .     D
N434   Zn448   2.020   .     S
N435   Zn447   2.020   .     S
O436   Zn447   1.952   .     S
O436   C449    1.273   .     S
O437   C61     1.389   1_565 S
O439   Zn448   1.979   .     S
O440   Zn447   1.948   .     S
O440   C452    1.286   .     S
O441   Zn448   1.908   .     S
O442   Zn447   1.979   .     S
O443   Zn448   1.952   .     S
O444   Zn447   1.908   .     S
O445   Zn448   1.948   .     S
C449   O495    1.293   .     A
C449   C451    1.404   .     S
C450   C452    1.447   .     S
C450   C465    1.400   .     A
C450   C458    1.401   .     A
C451   C61     1.350   1_565 S
C451   H153    1.088   1_565 S
C452   O497    1.299   .     A
C453   C454    1.405   .     S
C453   C171    1.350   1_655 S
C454   O498    1.289   .     A
C454   O387    1.275   1_655 S
C455   O500    1.297   .     A
C455   C457    1.444   .     S
C455   O389    1.287   1_655 S
C456   C471    1.398   .     A
C456   C971    1.405   1_554 S
C456   H987    1.084   1_554 S
C457   C470    1.381   .     A
C457   C471    1.407   .     A
C458   C963    1.387   .     S
C459   H487    1.083   .     S
C459   C461    1.392   .     A
C459   C962    1.387   1_554 S
C460   C465    1.404   .     A
C460   C965    1.421   .     S
C460   C970    1.411   .     S
C461   H486    1.078   .     S
C461   C964    1.421   1_554 S
C462   H474    1.114   .     S
C462   O502    1.408   .     S
C462   H473    1.110   .     S
C462   H475    1.109   .     S
C463   H477    1.114   .     S
C463   H478    1.108   .     S
C463   O493    1.411   .     S
C463   H140    1.113   1_565 S
C464   H481    1.110   .     S
C464   H480    1.114   .     S
C464   H479    1.112   .     S
C464   O158    1.411   1_565 S
C465   C469    1.410   .     A
C466   C470    1.390   .     A
C466   C964    1.411   1_554 S
C466   C971    1.423   1_554 S
C467   C468    1.401   .     A
C467   C960    1.405   .     S
C467   C970    1.423   .     S
C468   C469    1.392   .     A
C468   O494    1.383   .     S
C469   H488    1.083   .     S
C470   H484    1.080   .     S
C471   O390    1.382   1_655 S
H472   N490    1.029   .     S
H482   N491    1.029   .     S
H483   C960    1.084   .     S
H485   C346    1.083   1_655 S
N490   N491    1.286   .     D
N490   Zn504   2.020   .     S
N491   Zn503   2.020   .     S
O492   Zn503   1.952   .     S
O492   C337    1.273   1_655 S
O493   C117    1.389   1_565 S
O495   Zn504   1.979   .     S
O496   Zn503   1.948   .     S
O496   C340    1.286   1_655 S
O497   Zn504   1.908   .     S
O498   Zn503   1.979   .     S
O499   Zn504   1.952   .     S
O500   Zn503   1.908   .     S
O501   Zn504   1.948   .     S
C505   O551    1.293   .     A
C505   C507    1.404   .     S
C505   O660    1.273   1_455 S
C506   C508    1.447   .     S
C506   C521    1.400   .     A
C506   C514    1.401   .     A
C507   C789    1.350   1_455 S
C507   H713    1.088   .     S
C508   O553    1.299   .     A
C508   O664    1.286   1_455 S
C509   C510    1.405   .     S
C509   C899    1.350   1_545 S
C509   O885    1.389   1_545 S
C510   O554    1.289   .     A
C510   O611    1.275   .     S
C511   O556    1.297   .     A
C511   C513    1.444   .     S
C511   O613    1.287   .     S
C512   C527    1.398   .     A
C513   C526    1.381   .     A
C513   C527    1.407   .     A
C514   C11     1.387   1_556 S
C514   H653    1.083   1_455 S
C515   H543    1.083   .     S
C515   C517    1.392   .     A
C516   C521    1.404   .     A
C516   C13     1.421   1_556 S
C516   C18     1.411   1_556 S
C517   H542    1.078   .     S
C518   H530    1.114   .     S
C518   O558    1.408   .     S
C518   H529    1.110   .     S
C518   H531    1.109   .     S
C519   H533    1.114   .     S
C519   H534    1.108   .     S
C519   O549    1.411   .     S
C519   H700    1.113   .     S
C520   H537    1.110   .     S
C520   H536    1.114   .     S
C520   H535    1.112   .     S
C520   O718    1.411   .     S
C521   C525    1.410   .     A
C522   C526    1.390   .     A
C523   C524    1.401   .     A
C523   C8      1.405   1_556 S
C523   C18     1.423   1_556 S
C524   C525    1.392   .     A
C524   O550    1.383   .     S
C525   H544    1.083   .     S
C526   H540    1.080   .     S
C527   O614    1.382   .     S
H528   N546    1.029   .     S
H532   C855    1.113   1_545 S
H538   N547    1.029   .     S
H539   C8      1.084   1_556 S
H541   C570    1.083   .     S
H545   C843    1.088   1_545 S
N546   N547    1.286   .     D
N546   Zn560   2.020   .     S
N547   Zn559   2.020   .     S
O548   Zn559   1.952   .     S
O548   C561    1.273   .     S
O549   C677    1.389   .     S
O550   C856    1.411   1_545 S
O551   Zn560   1.979   .     S
O552   Zn559   1.948   .     S
O552   C564    1.286   .     S
O553   Zn560   1.908   .     S
O554   Zn559   1.979   .     S
O555   Zn560   1.952   .     S
O555   C622    1.275   1_455 S
O556   Zn559   1.908   .     S
O557   Zn560   1.948   .     S
O557   C623    1.287   1_455 S
O558   C639    1.382   1_455 S
C561   O607    1.293   .     A
C561   C563    1.404   .     S
C562   C564    1.447   .     S
C562   C577    1.400   .     A
C562   C570    1.401   .     A
C563   C677    1.350   .     S
C563   H769    1.088   .     S
C564   O609    1.299   .     A
C565   C566    1.405   .     S
C565   C955    1.350   1_545 S
C565   O941    1.389   1_545 S
C566   O610    1.289   .     A
C566   O667    1.275   .     S
C567   O612    1.297   .     A
C567   C569    1.444   .     S
C567   O669    1.287   .     S
C568   C583    1.398   .     A
C569   C582    1.381   .     A
C569   C583    1.407   .     A
C570   C67     1.387   1_556 S
C571   H599    1.083   .     S
C571   C573    1.392   .     A
C572   C577    1.404   .     A
C572   C69     1.421   1_556 S
C572   C74     1.411   1_556 S
C573   H598    1.078   .     S
C574   H586    1.114   .     S
C574   O614    1.408   .     S
C574   H585    1.110   .     S
C574   H587    1.109   .     S
C575   H589    1.114   .     S
C575   H590    1.108   .     S
C575   O605    1.411   .     S
C575   H756    1.113   .     S
C576   H593    1.110   .     S
C576   H592    1.114   .     S
C576   H591    1.112   .     S
C576   O774    1.411   .     S
C577   C581    1.410   .     A
C578   C582    1.390   .     A
C579   C580    1.401   .     A
C579   C64     1.405   1_556 S
C579   C74     1.423   1_556 S
C580   C581    1.392   .     A
C580   O606    1.383   .     S
C581   H600    1.083   .     S
C582   H596    1.080   .     S
C583   O670    1.382   .     S
H584   N602    1.029   .     S
H588   C911    1.113   1_545 S
H594   N603    1.029   .     S
H595   C64     1.084   1_556 S
H597   C626    1.083   .     S
H601   C899    1.088   1_545 S
N602   N603    1.286   .     D
N602   Zn616   2.020   .     S
N603   Zn615   2.020   .     S
O604   Zn615   1.952   .     S
O604   C617    1.273   .     S
O605   C733    1.389   .     S
O606   C912    1.411   1_545 S
O607   Zn616   1.979   .     S
O608   Zn615   1.948   .     S
O608   C620    1.286   .     S
O609   Zn616   1.908   .     S
O610   Zn615   1.979   .     S
O611   Zn616   1.952   .     S
O612   Zn615   1.908   .     S
O613   Zn616   1.948   .     S
C617   O663    1.293   .     A
C617   C619    1.404   .     S
C618   C620    1.447   .     S
C618   C633    1.400   .     A
C618   C626    1.401   .     A
C619   C733    1.350   .     S
C619   H825    1.088   .     S
C620   O665    1.299   .     A
C621   C622    1.405   .     S
C621   C843    1.350   1_645 S
C621   O997    1.389   1_545 S
C622   O666    1.289   .     A
C622   O555    1.275   1_655 S
C623   O668    1.297   .     A
C623   C625    1.444   .     S
C623   O557    1.287   1_655 S
C624   C639    1.398   .     A
C625   C638    1.381   .     A
C625   C639    1.407   .     A
C626   C123    1.387   1_556 S
C627   H655    1.083   .     S
C627   C629    1.392   .     A
C628   C633    1.404   .     A
C628   C125    1.421   1_556 S
C628   C130    1.411   1_556 S
C629   H654    1.078   .     S
C630   H642    1.114   .     S
C630   O670    1.408   .     S
C630   H641    1.110   .     S
C630   H643    1.109   .     S
C631   H645    1.114   .     S
C631   H646    1.108   .     S
C631   O661    1.411   .     S
C631   H812    1.113   .     S
C632   H649    1.110   .     S
C632   H648    1.114   .     S
C632   H647    1.112   .     S
C632   O830    1.411   .     S
C633   C637    1.410   .     A
C634   C638    1.390   .     A
C635   C636    1.401   .     A
C635   C120    1.405   1_556 S
C635   C130    1.423   1_556 S
C636   C637    1.392   .     A
C636   O662    1.383   .     S
C637   H656    1.083   .     S
C638   H652    1.080   .     S
C639   O558    1.382   1_655 S
H640   N658    1.029   .     S
H644   C967    1.113   1_545 S
H650   N659    1.029   .     S
H651   C120    1.084   1_556 S
H653   C514    1.083   1_655 S
H657   C955    1.088   1_545 S
N658   N659    1.286   .     D
N658   Zn672   2.020   .     S
N659   Zn671   2.020   .     S
O660   Zn671   1.952   .     S
O660   C505    1.273   1_655 S
O661   C789    1.389   .     S
O662   C968    1.411   1_545 S
O663   Zn672   1.979   .     S
O664   Zn671   1.948   .     S
O664   C508    1.286   1_655 S
O665   Zn672   1.908   .     S
O666   Zn671   1.979   .     S
O667   Zn672   1.952   .     S
O668   Zn671   1.908   .     S
O669   Zn672   1.948   .     S
C673   O719    1.293   .     A
C673   C675    1.404   .     S
C673   O828    1.273   1_455 S
C674   C676    1.447   .     S
C674   C689    1.400   .     A
C674   C682    1.401   .     A
C675   C957    1.350   1_455 S
C675   H881    1.088   .     S
C676   O721    1.299   .     A
C676   O832    1.286   1_455 S
C677   C678    1.405   .     S
C678   O722    1.289   .     A
C678   O779    1.275   .     S
C679   O724    1.297   .     A
C679   C681    1.444   .     S
C679   O781    1.287   .     S
C680   C695    1.398   .     A
C681   C694    1.381   .     A
C681   C695    1.407   .     A
C682   C179    1.387   1_556 S
C682   H821    1.083   1_455 S
C683   H711    1.083   .     S
C683   C685    1.392   .     A
C684   C689    1.404   .     A
C684   C181    1.421   1_556 S
C684   C186    1.411   1_556 S
C685   H710    1.078   .     S
C686   H698    1.114   .     S
C686   O726    1.408   .     S
C686   H697    1.110   .     S
C686   H699    1.109   .     S
C687   H701    1.114   .     S
C687   H702    1.108   .     S
C687   O717    1.411   .     S
C687   H868    1.113   .     S
C688   H705    1.110   .     S
C688   H704    1.114   .     S
C688   H703    1.112   .     S
C688   O886    1.411   .     S
C689   C693    1.410   .     A
C690   C694    1.390   .     A
C691   C692    1.401   .     A
C691   C176    1.405   1_556 S
C691   C186    1.423   1_556 S
C692   C693    1.392   .     A
C692   O718    1.383   .     S
C693   H712    1.083   .     S
C694   H708    1.080   .     S
C695   O782    1.382   .     S
H696   N714    1.029   .     S
H706   N715    1.029   .     S
H707   C176    1.084   1_556 S
H709   C738    1.083   .     S
N714   N715    1.286   .     D
N714   Zn728   2.020   .     S
N715   Zn727   2.020   .     S
O716   Zn727   1.952   .     S
O716   C729    1.273   .     S
O717   C845    1.389   .     S
O719   Zn728   1.979   .     S
O720   Zn727   1.948   .     S
O720   C732    1.286   .     S
O721   Zn728   1.908   .     S
O722   Zn727   1.979   .     S
O723   Zn728   1.952   .     S
O723   C790    1.275   1_455 S
O724   Zn727   1.908   .     S
O725   Zn728   1.948   .     S
O725   C791    1.287   1_455 S
O726   C807    1.382   1_455 S
C729   O775    1.293   .     A
C729   C731    1.404   .     S
C730   C732    1.447   .     S
C730   C745    1.400   .     A
C730   C738    1.401   .     A
C731   C845    1.350   .     S
C731   H937    1.088   .     S
C732   O777    1.299   .     A
C733   C734    1.405   .     S
C734   O778    1.289   .     A
C734   O835    1.275   .     S
C735   O780    1.297   .     A
C735   C737    1.444   .     S
C735   O837    1.287   .     S
C736   C751    1.398   .     A
C737   C750    1.381   .     A
C737   C751    1.407   .     A
C738   C235    1.387   1_556 S
C739   H767    1.083   .     S
C739   C741    1.392   .     A
C740   C745    1.404   .     A
C740   C237    1.421   1_556 S
C740   C242    1.411   1_556 S
C741   H766    1.078   .     S
C742   H754    1.114   .     S
C742   O782    1.408   .     S
C742   H753    1.110   .     S
C742   H755    1.109   .     S
C743   H757    1.114   .     S
C743   H758    1.108   .     S
C743   O773    1.411   .     S
C743   H924    1.113   .     S
C744   H761    1.110   .     S
C744   H760    1.114   .     S
C744   H759    1.112   .     S
C744   O942    1.411   .     S
C745   C749    1.410   .     A
C746   C750    1.390   .     A
C747   C748    1.401   .     A
C747   C232    1.405   1_556 S
C747   C242    1.423   1_556 S
C748   C749    1.392   .     A
C748   O774    1.383   .     S
C749   H768    1.083   .     S
C750   H764    1.080   .     S
C751   O838    1.382   .     S
H752   N770    1.029   .     S
H762   N771    1.029   .     S
H763   C232    1.084   1_556 S
H765   C794    1.083   .     S
N770   N771    1.286   .     D
N770   Zn784   2.020   .     S
N771   Zn783   2.020   .     S
O772   Zn783   1.952   .     S
O772   C785    1.273   .     S
O773   C901    1.389   .     S
O775   Zn784   1.979   .     S
O776   Zn783   1.948   .     S
O776   C788    1.286   .     S
O777   Zn784   1.908   .     S
O778   Zn783   1.979   .     S
O779   Zn784   1.952   .     S
O780   Zn783   1.908   .     S
O781   Zn784   1.948   .     S
C785   O831    1.293   .     A
C785   C787    1.404   .     S
C786   C788    1.447   .     S
C786   C801    1.400   .     A
C786   C794    1.401   .     A
C787   C901    1.350   .     S
C787   H993    1.088   .     S
C788   O833    1.299   .     A
C789   C790    1.405   .     S
C789   C507    1.350   1_655 S
C790   O834    1.289   .     A
C790   O723    1.275   1_655 S
C791   O836    1.297   .     A
C791   C793    1.444   .     S
C791   O725    1.287   1_655 S
C792   C807    1.398   .     A
C793   C806    1.381   .     A
C793   C807    1.407   .     A
C794   C291    1.387   1_556 S
C795   H823    1.083   .     S
C795   C797    1.392   .     A
C796   C801    1.404   .     A
C796   C293    1.421   1_556 S
C796   C298    1.411   1_556 S
C797   H822    1.078   .     S
C798   H810    1.114   .     S
C798   O838    1.408   .     S
C798   H809    1.110   .     S
C798   H811    1.109   .     S
C799   H813    1.114   .     S
C799   H814    1.108   .     S
C799   O829    1.411   .     S
C799   H980    1.113   .     S
C800   H817    1.110   .     S
C800   H816    1.114   .     S
C800   H815    1.112   .     S
C800   O998    1.411   .     S
C801   C805    1.410   .     A
C802   C806    1.390   .     A
C803   C804    1.401   .     A
C803   C288    1.405   1_556 S
C803   C298    1.423   1_556 S
C804   C805    1.392   .     A
C804   O830    1.383   .     S
C805   H824    1.083   .     S
C806   H820    1.080   .     S
C807   O726    1.382   1_655 S
H808   N826    1.029   .     S
H818   N827    1.029   .     S
H819   C288    1.084   1_556 S
H821   C682    1.083   1_655 S
N826   N827    1.286   .     D
N826   Zn840   2.020   .     S
N827   Zn839   2.020   .     S
O828   Zn839   1.952   .     S
O828   C673    1.273   1_655 S
O829   C957    1.389   .     S
O831   Zn840   1.979   .     S
O832   Zn839   1.948   .     S
O832   C676    1.286   1_655 S
O833   Zn840   1.908   .     S
O834   Zn839   1.979   .     S
O835   Zn840   1.952   .     S
O836   Zn839   1.908   .     S
O837   Zn840   1.948   .     S
C841   O887    1.293   .     A
C841   C843    1.404   .     S
C841   O996    1.273   1_455 S
C842   C844    1.447   .     S
C842   C857    1.400   .     A
C842   C850    1.401   .     A
C843   C621    1.350   1_465 S
C843   H545    1.088   1_565 S
C844   O889    1.299   .     A
C844   O1000   1.286   1_455 S
C845   C846    1.405   .     S
C846   O890    1.289   .     A
C846   O947    1.275   .     S
C847   O892    1.297   .     A
C847   C849    1.444   .     S
C847   O949    1.287   .     S
C848   C863    1.398   .     A
C849   C862    1.381   .     A
C849   C863    1.407   .     A
C850   C347    1.387   1_556 S
C850   H989    1.083   1_455 S
C851   H879    1.083   .     S
C851   C853    1.392   .     A
C852   C857    1.404   .     A
C852   C349    1.421   1_556 S
C852   C354    1.411   1_556 S
C853   H878    1.078   .     S
C854   H866    1.114   .     S
C854   O894    1.408   .     S
C854   H865    1.110   .     S
C854   H867    1.109   .     S
C855   H869    1.114   .     S
C855   H870    1.108   .     S
C855   O885    1.411   .     S
C855   H532    1.113   1_565 S
C856   H873    1.110   .     S
C856   H872    1.114   .     S
C856   H871    1.112   .     S
C856   O550    1.411   1_565 S
C857   C861    1.410   .     A
C858   C862    1.390   .     A
C859   C860    1.401   .     A
C859   C344    1.405   1_556 S
C859   C354    1.423   1_556 S
C860   C861    1.392   .     A
C860   O886    1.383   .     S
C861   H880    1.083   .     S
C862   H876    1.080   .     S
C863   O950    1.382   .     S
H864   N882    1.029   .     S
H874   N883    1.029   .     S
H875   C344    1.084   1_556 S
H877   C906    1.083   .     S
N882   N883    1.286   .     D
N882   Zn896   2.020   .     S
N883   Zn895   2.020   .     S
O884   Zn895   1.952   .     S
O884   C897    1.273   .     S
O885   C509    1.389   1_565 S
O887   Zn896   1.979   .     S
O888   Zn895   1.948   .     S
O888   C900    1.286   .     S
O889   Zn896   1.908   .     S
O890   Zn895   1.979   .     S
O891   Zn896   1.952   .     S
O891   C958    1.275   1_455 S
O892   Zn895   1.908   .     S
O893   Zn896   1.948   .     S
O893   C959    1.287   1_455 S
O894   C975    1.382   1_455 S
C897   O943    1.293   .     A
C897   C899    1.404   .     S
C898   C900    1.447   .     S
C898   C913    1.400   .     A
C898   C906    1.401   .     A
C899   C509    1.350   1_565 S
C899   H601    1.088   1_565 S
C900   O945    1.299   .     A
C901   C902    1.405   .     S
C902   O946    1.289   .     A
C902   O1003   1.275   .     S
C903   O948    1.297   .     A
C903   C905    1.444   .     S
C903   O1005   1.287   .     S
C904   C919    1.398   .     A
C905   C918    1.381   .     A
C905   C919    1.407   .     A
C906   C403    1.387   1_556 S
C907   H935    1.083   .     S
C907   C909    1.392   .     A
C908   C913    1.404   .     A
C908   C405    1.421   1_556 S
C908   C410    1.411   1_556 S
C909   H934    1.078   .     S
C910   H922    1.114   .     S
C910   O950    1.408   .     S
C910   H921    1.110   .     S
C910   H923    1.109   .     S
C911   H925    1.114   .     S
C911   H926    1.108   .     S
C911   O941    1.411   .     S
C911   H588    1.113   1_565 S
C912   H929    1.110   .     S
C912   H928    1.114   .     S
C912   H927    1.112   .     S
C912   O606    1.411   1_565 S
C913   C917    1.410   .     A
C914   C918    1.390   .     A
C915   C916    1.401   .     A
C915   C400    1.405   1_556 S
C915   C410    1.423   1_556 S
C916   C917    1.392   .     A
C916   O942    1.383   .     S
C917   H936    1.083   .     S
C918   H932    1.080   .     S
C919   O1006   1.382   .     S
H920   N938    1.029   .     S
H930   N939    1.029   .     S
H931   C400    1.084   1_556 S
H933   C962    1.083   .     S
N938   N939    1.286   .     D
N938   Zn952   2.020   .     S
N939   Zn951   2.020   .     S
O940   Zn951   1.952   .     S
O940   C953    1.273   .     S
O941   C565    1.389   1_565 S
O943   Zn952   1.979   .     S
O944   Zn951   1.948   .     S
O944   C956    1.286   .     S
O945   Zn952   1.908   .     S
O946   Zn951   1.979   .     S
O947   Zn952   1.952   .     S
O948   Zn951   1.908   .     S
O949   Zn952   1.948   .     S
C953   O999    1.293   .     A
C953   C955    1.404   .     S
C954   C956    1.447   .     S
C954   C969    1.400   .     A
C954   C962    1.401   .     A
C955   C565    1.350   1_565 S
C955   H657    1.088   1_565 S
C956   O1001   1.299   .     A
C957   C958    1.405   .     S
C957   C675    1.350   1_655 S
C958   O1002   1.289   .     A
C958   O891    1.275   1_655 S
C959   O1004   1.297   .     A
C959   C961    1.444   .     S
C959   O893    1.287   1_655 S
C960   C975    1.398   .     A
C961   C974    1.381   .     A
C961   C975    1.407   .     A
C962   C459    1.387   1_556 S
C963   H991    1.083   .     S
C963   C965    1.392   .     A
C964   C969    1.404   .     A
C964   C461    1.421   1_556 S
C964   C466    1.411   1_556 S
C965   H990    1.078   .     S
C966   H978    1.114   .     S
C966   O1006   1.408   .     S
C966   H977    1.110   .     S
C966   H979    1.109   .     S
C967   H981    1.114   .     S
C967   H982    1.108   .     S
C967   O997    1.411   .     S
C967   H644    1.113   1_565 S
C968   H985    1.110   .     S
C968   H984    1.114   .     S
C968   H983    1.112   .     S
C968   O662    1.411   1_565 S
C969   C973    1.410   .     A
C970   C974    1.390   .     A
C971   C972    1.401   .     A
C971   C456    1.405   1_556 S
C971   C466    1.423   1_556 S
C972   C973    1.392   .     A
C972   O998    1.383   .     S
C973   H992    1.083   .     S
C974   H988    1.080   .     S
C975   O894    1.382   1_655 S
H976   N994    1.029   .     S
H986   N995    1.029   .     S
H987   C456    1.084   1_556 S
H989   C850    1.083   1_655 S
N994   N995    1.286   .     D
N994   Zn1008  2.020   .     S
N995   Zn1007  2.020   .     S
O996   Zn1007  1.952   .     S
O996   C841    1.273   1_655 S
O997   C621    1.389   1_565 S
O999   Zn1008  1.979   .     S
O1000  Zn1007  1.948   .     S
O1000  C844    1.286   1_655 S
O1001  Zn1008  1.908   .     S
O1002  Zn1007  1.979   .     S
O1003  Zn1008  1.952   .     S
O1004  Zn1007  1.908   .     S
O1005  Zn1008  1.948   .     S
