data_str_m2_o2_o10_pcu_sym.245
_audit_creation_date              2020-01-03
_audit_creation_method            'Materials Studio'
_symmetry_space_group_name_H-M    'P1'
_symmetry_Int_Tables_number       1
_symmetry_cell_setting            triclinic
loop_
_symmetry_equiv_pos_as_xyz
  x,y,z
_cell_length_a                    26.1670
_cell_length_b                    30.1866
_cell_length_c                    27.7558
_cell_angle_alpha                 89.5073
_cell_angle_beta                  97.8208
_cell_angle_gamma                 90.3190
loop_
_atom_site_label
_atom_site_type_symbol
_atom_site_fract_x
_atom_site_fract_y
_atom_site_fract_z
_atom_site_U_iso_or_equiv
_atom_site_adp_type
_atom_site_occupancy
C1     C     0.16561   0.16505   0.25007   0.00000  Uiso   1.00
C2     C     0.16538   0.33508   0.24959   0.00000  Uiso   1.00
C3     C     0.21487   0.25439   0.06031   0.00000  Uiso   1.00
C4     C     0.14755   0.21170   0.44351   0.00000  Uiso   1.00
C5     C     0.21209   0.25594   0.11084   0.00000  Uiso   1.00
C6     C     0.14654   0.21441   0.39242   0.00000  Uiso   1.00
C7     C     0.12217   0.24414   0.09810   0.00000  Uiso   1.00
C8     C     0.18666   0.28473   0.39827   0.00000  Uiso   1.00
C9     C     0.12237   0.24390   0.04742   0.00000  Uiso   1.00
C10    C     0.18681   0.28458   0.44896   0.00000  Uiso   1.00
C11    C     0.16879   0.24848   0.02744   0.00000  Uiso   1.00
C12    C     0.16783   0.24784   0.47276   0.00000  Uiso   1.00
C13    C     0.06793   0.25021   0.23758   0.00000  Uiso   1.00
C14    C     0.26542   0.25002   0.26242   0.00000  Uiso   1.00
C15    C     0.01269   0.25031   0.23071   0.00000  Uiso   1.00
C16    C     0.32069   0.25003   0.26928   0.00000  Uiso   1.00
C17    C     0.12356   0.04709   0.27205   0.00000  Uiso   1.00
C18    C     0.13632   0.45400   0.20967   0.00000  Uiso   1.00
C19    C     0.12327   0.09399   0.27092   0.00000  Uiso   1.00
C20    C     0.13537   0.40720   0.20920   0.00000  Uiso   1.00
C21    C     0.16264   0.11683   0.25031   0.00000  Uiso   1.00
C22    C     0.16318   0.38356   0.24868   0.00000  Uiso   1.00
C23    C     0.20100   0.09357   0.23098   0.00000  Uiso   1.00
C24    C     0.19062   0.40641   0.28770   0.00000  Uiso   1.00
C25    C     0.20158   0.04774   0.23258   0.00000  Uiso   1.00
C26    C     0.19098   0.45228   0.28819   0.00000  Uiso   1.00
C27    C     0.16337   0.02446   0.25285   0.00000  Uiso   1.00
C28    C     0.16359   0.47607   0.24989   0.00000  Uiso   1.00
Cu29   Cu    0.16667   0.24999   0.29822   0.00000  Uiso   1.00
Cu30   Cu    0.16667   0.25000   0.20179   0.00000  Uiso   1.00
H31    H     0.32619   0.25051   0.19368   0.00000  Uiso   1.00
H32    H     0.00727   0.24977   0.30631   0.00000  Uiso   1.00
H33    H     0.23113   0.11107   0.21529   0.00000  Uiso   1.00
H34    H     0.21230   0.38865   0.31781   0.00000  Uiso   1.00
H35    H     0.23157   0.03018   0.21731   0.00000  Uiso   1.00
H36    H     0.21220   0.46940   0.31883   0.00000  Uiso   1.00
H37    H     0.24719   0.26095   0.13534   0.00000  Uiso   1.00
H38    H     0.13072   0.18720   0.36999   0.00000  Uiso   1.00
H39    H     0.08593   0.23955   0.11202   0.00000  Uiso   1.00
H40    H     0.20267   0.31291   0.38115   0.00000  Uiso   1.00
H41    H     0.08622   0.23969   0.02377   0.00000  Uiso   1.00
H42    H     0.20228   0.31300   0.46971   0.00000  Uiso   1.00
N43    N     0.16667   0.25001   0.12935   0.00000  Uiso   1.00
N44    N     0.16667   0.24999   0.37066   0.00000  Uiso   1.00
O45    O     0.16667   0.18572   0.29072   0.00000  Uiso   1.00
O46    O     0.16666   0.31428   0.20929   0.00000  Uiso   1.00
O47    O     0.16667   0.18573   0.20928   0.00000  Uiso   1.00
O48    O     0.16666   0.31427   0.29072   0.00000  Uiso   1.00
O49    O     0.09161   0.25000   0.28132   0.00000  Uiso   1.00
O50    O     0.24172   0.25000   0.21868   0.00000  Uiso   1.00
O51    O     0.09161   0.25000   0.19989   0.00000  Uiso   1.00
O52    O     0.24172   0.25000   0.30012   0.00000  Uiso   1.00
C53    C     0.08118   0.02156   0.29037   0.00000  Uiso   1.00
O54    O     0.03619   0.03156   0.27717   0.00000  Uiso   1.00
O55    O     0.09274   0.48579   0.32223   0.00000  Uiso   1.00
H56    H     0.06070   0.47088   0.33167   0.00000  Uiso   1.00
C57    C     0.10791   0.48000   0.16921   0.00000  Uiso   1.00
O58    O     0.06842   0.49943   0.17516   0.00000  Uiso   1.00
O59    O     0.12691   0.48267   0.12460   0.00000  Uiso   1.00
H60    H     0.10440   0.00152   0.09990   0.00000  Uiso   1.00
C61    C     0.08180   0.11891   0.29045   0.00000  Uiso   1.00
O62    O     0.05966   0.14913   0.26668   0.00000  Uiso   1.00
O63    O     0.06770   0.10745   0.33574   0.00000  Uiso   1.00
H64    H     0.03860   0.12644   0.34463   0.00000  Uiso   1.00
C65    C     0.10213   0.38331   0.16993   0.00000  Uiso   1.00
O66    O     0.10590   0.39105   0.12725   0.00000  Uiso   1.00
O67    O     0.06662   0.35173   0.18205   0.00000  Uiso   1.00
H68    H     0.04657   0.33735   0.15237   0.00000  Uiso   1.00
C69    C     0.26668   0.25731   0.04409   0.00000  Uiso   1.00
O70    O     0.27506   0.23926   0.00669   0.00000  Uiso   1.00
O71    O     0.30666   0.27973   0.07267   0.00000  Uiso   1.00
H72    H     0.00679   0.27941   0.05807   0.00000  Uiso   1.00
C73    C     0.12924   0.17008   0.46461   0.00000  Uiso   1.00
O74    O     0.14757   0.15774   0.00536   0.00000  Uiso   1.00
O75    O     0.09182   0.14413   0.43711   0.00000  Uiso   1.00
H76    H     0.08280   0.11638   0.45504   0.00000  Uiso   1.00
C77    C     0.49894   0.16505   0.25007   0.00000  Uiso   1.00
C78    C     0.49871   0.33508   0.24959   0.00000  Uiso   1.00
C79    C     0.54820   0.25439   0.06031   0.00000  Uiso   1.00
C80    C     0.48088   0.21170   0.44351   0.00000  Uiso   1.00
C81    C     0.54543   0.25594   0.11084   0.00000  Uiso   1.00
C82    C     0.47987   0.21441   0.39242   0.00000  Uiso   1.00
C83    C     0.45550   0.24414   0.09810   0.00000  Uiso   1.00
C84    C     0.51999   0.28473   0.39827   0.00000  Uiso   1.00
C85    C     0.45570   0.24390   0.04742   0.00000  Uiso   1.00
C86    C     0.52014   0.28458   0.44896   0.00000  Uiso   1.00
C87    C     0.50212   0.24848   0.02744   0.00000  Uiso   1.00
C88    C     0.50116   0.24784   0.47276   0.00000  Uiso   1.00
C89    C     0.40126   0.25021   0.23758   0.00000  Uiso   1.00
C90    C     0.59876   0.25002   0.26242   0.00000  Uiso   1.00
C91    C     0.34603   0.25031   0.23071   0.00000  Uiso   1.00
C92    C     0.65402   0.25003   0.26928   0.00000  Uiso   1.00
C93    C     0.45689   0.04709   0.27205   0.00000  Uiso   1.00
C94    C     0.46966   0.45400   0.20967   0.00000  Uiso   1.00
C95    C     0.45661   0.09399   0.27092   0.00000  Uiso   1.00
C96    C     0.46870   0.40720   0.20920   0.00000  Uiso   1.00
C97    C     0.49597   0.11683   0.25031   0.00000  Uiso   1.00
C98    C     0.49652   0.38356   0.24868   0.00000  Uiso   1.00
C99    C     0.53433   0.09357   0.23098   0.00000  Uiso   1.00
C100   C     0.52395   0.40641   0.28770   0.00000  Uiso   1.00
C101   C     0.53492   0.04774   0.23258   0.00000  Uiso   1.00
C102   C     0.52431   0.45228   0.28819   0.00000  Uiso   1.00
C103   C     0.49670   0.02446   0.25285   0.00000  Uiso   1.00
C104   C     0.49692   0.47607   0.24989   0.00000  Uiso   1.00
Cu105  Cu    0.50000   0.24999   0.29822   0.00000  Uiso   1.00
Cu106  Cu    0.50000   0.25000   0.20179   0.00000  Uiso   1.00
H107   H     0.65953   0.25051   0.19368   0.00000  Uiso   1.00
H108   H     0.34061   0.24977   0.30631   0.00000  Uiso   1.00
H109   H     0.56446   0.11107   0.21529   0.00000  Uiso   1.00
H110   H     0.54563   0.38865   0.31781   0.00000  Uiso   1.00
H111   H     0.56490   0.03018   0.21731   0.00000  Uiso   1.00
H112   H     0.54554   0.46940   0.31883   0.00000  Uiso   1.00
H113   H     0.58053   0.26095   0.13534   0.00000  Uiso   1.00
H114   H     0.46405   0.18720   0.36999   0.00000  Uiso   1.00
H115   H     0.41926   0.23955   0.11202   0.00000  Uiso   1.00
H116   H     0.53601   0.31291   0.38115   0.00000  Uiso   1.00
H117   H     0.41955   0.23969   0.02377   0.00000  Uiso   1.00
H118   H     0.53561   0.31300   0.46971   0.00000  Uiso   1.00
N119   N     0.50000   0.25001   0.12935   0.00000  Uiso   1.00
N120   N     0.50000   0.24999   0.37066   0.00000  Uiso   1.00
O121   O     0.50000   0.18572   0.29072   0.00000  Uiso   1.00
O122   O     0.50000   0.31428   0.20929   0.00000  Uiso   1.00
O123   O     0.50000   0.18573   0.20928   0.00000  Uiso   1.00
O124   O     0.50000   0.31427   0.29072   0.00000  Uiso   1.00
O125   O     0.42495   0.25000   0.28132   0.00000  Uiso   1.00
O126   O     0.57505   0.25000   0.21868   0.00000  Uiso   1.00
O127   O     0.42495   0.25000   0.19989   0.00000  Uiso   1.00
O128   O     0.57505   0.25000   0.30012   0.00000  Uiso   1.00
C129   C     0.41452   0.02156   0.29037   0.00000  Uiso   1.00
O130   O     0.36952   0.03156   0.27717   0.00000  Uiso   1.00
O131   O     0.42607   0.48579   0.32223   0.00000  Uiso   1.00
H132   H     0.39403   0.47088   0.33167   0.00000  Uiso   1.00
C133   C     0.44125   0.48000   0.16921   0.00000  Uiso   1.00
O134   O     0.40175   0.49943   0.17516   0.00000  Uiso   1.00
O135   O     0.46024   0.48267   0.12460   0.00000  Uiso   1.00
H136   H     0.43773   0.00152   0.09990   0.00000  Uiso   1.00
C137   C     0.41513   0.11891   0.29045   0.00000  Uiso   1.00
O138   O     0.39299   0.14913   0.26668   0.00000  Uiso   1.00
O139   O     0.40103   0.10745   0.33574   0.00000  Uiso   1.00
H140   H     0.37193   0.12644   0.34463   0.00000  Uiso   1.00
C141   C     0.43546   0.38331   0.16993   0.00000  Uiso   1.00
O142   O     0.43923   0.39105   0.12725   0.00000  Uiso   1.00
O143   O     0.39995   0.35173   0.18205   0.00000  Uiso   1.00
H144   H     0.37990   0.33735   0.15237   0.00000  Uiso   1.00
C145   C     0.60002   0.25731   0.04409   0.00000  Uiso   1.00
O146   O     0.60840   0.23926   0.00669   0.00000  Uiso   1.00
O147   O     0.64000   0.27973   0.07267   0.00000  Uiso   1.00
H148   H     0.34013   0.27941   0.05807   0.00000  Uiso   1.00
C149   C     0.46257   0.17008   0.46461   0.00000  Uiso   1.00
O150   O     0.48090   0.15774   0.00536   0.00000  Uiso   1.00
O151   O     0.42515   0.14413   0.43711   0.00000  Uiso   1.00
H152   H     0.41613   0.11638   0.45504   0.00000  Uiso   1.00
C153   C     0.83227   0.16505   0.25007   0.00000  Uiso   1.00
C154   C     0.83205   0.33508   0.24959   0.00000  Uiso   1.00
C155   C     0.88153   0.25439   0.06031   0.00000  Uiso   1.00
C156   C     0.81421   0.21170   0.44351   0.00000  Uiso   1.00
C157   C     0.87876   0.25594   0.11084   0.00000  Uiso   1.00
C158   C     0.81321   0.21441   0.39242   0.00000  Uiso   1.00
C159   C     0.78884   0.24414   0.09810   0.00000  Uiso   1.00
C160   C     0.85332   0.28473   0.39827   0.00000  Uiso   1.00
C161   C     0.78904   0.24390   0.04742   0.00000  Uiso   1.00
C162   C     0.85347   0.28458   0.44896   0.00000  Uiso   1.00
C163   C     0.83545   0.24848   0.02744   0.00000  Uiso   1.00
C164   C     0.83449   0.24784   0.47276   0.00000  Uiso   1.00
C165   C     0.73459   0.25021   0.23758   0.00000  Uiso   1.00
C166   C     0.93209   0.25002   0.26242   0.00000  Uiso   1.00
C167   C     0.67936   0.25031   0.23071   0.00000  Uiso   1.00
C168   C     0.98735   0.25003   0.26928   0.00000  Uiso   1.00
C169   C     0.79023   0.04709   0.27205   0.00000  Uiso   1.00
C170   C     0.80299   0.45400   0.20967   0.00000  Uiso   1.00
C171   C     0.78994   0.09399   0.27092   0.00000  Uiso   1.00
C172   C     0.80203   0.40720   0.20920   0.00000  Uiso   1.00
C173   C     0.82931   0.11683   0.25031   0.00000  Uiso   1.00
C174   C     0.82985   0.38356   0.24868   0.00000  Uiso   1.00
C175   C     0.86767   0.09357   0.23098   0.00000  Uiso   1.00
C176   C     0.85728   0.40641   0.28770   0.00000  Uiso   1.00
C177   C     0.86825   0.04774   0.23258   0.00000  Uiso   1.00
C178   C     0.85764   0.45228   0.28819   0.00000  Uiso   1.00
C179   C     0.83004   0.02446   0.25285   0.00000  Uiso   1.00
C180   C     0.83026   0.47607   0.24989   0.00000  Uiso   1.00
Cu181  Cu    0.83333   0.24999   0.29822   0.00000  Uiso   1.00
Cu182  Cu    0.83333   0.25000   0.20179   0.00000  Uiso   1.00
H183   H     0.99286   0.25051   0.19368   0.00000  Uiso   1.00
H184   H     0.67394   0.24977   0.30631   0.00000  Uiso   1.00
H185   H     0.89779   0.11107   0.21529   0.00000  Uiso   1.00
H186   H     0.87896   0.38865   0.31781   0.00000  Uiso   1.00
H187   H     0.89823   0.03018   0.21731   0.00000  Uiso   1.00
H188   H     0.87887   0.46940   0.31883   0.00000  Uiso   1.00
H189   H     0.91386   0.26095   0.13534   0.00000  Uiso   1.00
H190   H     0.79739   0.18720   0.36999   0.00000  Uiso   1.00
H191   H     0.75260   0.23955   0.11202   0.00000  Uiso   1.00
H192   H     0.86934   0.31291   0.38115   0.00000  Uiso   1.00
H193   H     0.75289   0.23969   0.02377   0.00000  Uiso   1.00
H194   H     0.86895   0.31300   0.46971   0.00000  Uiso   1.00
N195   N     0.83333   0.25001   0.12935   0.00000  Uiso   1.00
N196   N     0.83333   0.24999   0.37066   0.00000  Uiso   1.00
O197   O     0.83334   0.18572   0.29072   0.00000  Uiso   1.00
O198   O     0.83333   0.31428   0.20929   0.00000  Uiso   1.00
O199   O     0.83334   0.18573   0.20928   0.00000  Uiso   1.00
O200   O     0.83333   0.31427   0.29072   0.00000  Uiso   1.00
O201   O     0.75828   0.25000   0.28132   0.00000  Uiso   1.00
O202   O     0.90839   0.25000   0.21868   0.00000  Uiso   1.00
O203   O     0.75828   0.25000   0.19989   0.00000  Uiso   1.00
O204   O     0.90839   0.25000   0.30012   0.00000  Uiso   1.00
C205   C     0.74785   0.02156   0.29037   0.00000  Uiso   1.00
O206   O     0.70286   0.03156   0.27717   0.00000  Uiso   1.00
O207   O     0.75941   0.48579   0.32223   0.00000  Uiso   1.00
H208   H     0.72737   0.47088   0.33167   0.00000  Uiso   1.00
C209   C     0.77458   0.48000   0.16921   0.00000  Uiso   1.00
O210   O     0.73509   0.49943   0.17516   0.00000  Uiso   1.00
O211   O     0.79357   0.48267   0.12460   0.00000  Uiso   1.00
H212   H     0.77107   0.00152   0.09990   0.00000  Uiso   1.00
C213   C     0.74846   0.11891   0.29045   0.00000  Uiso   1.00
O214   O     0.72632   0.14913   0.26668   0.00000  Uiso   1.00
O215   O     0.73437   0.10745   0.33574   0.00000  Uiso   1.00
H216   H     0.70527   0.12644   0.34463   0.00000  Uiso   1.00
C217   C     0.76879   0.38331   0.16993   0.00000  Uiso   1.00
O218   O     0.77256   0.39105   0.12725   0.00000  Uiso   1.00
O219   O     0.73328   0.35173   0.18205   0.00000  Uiso   1.00
H220   H     0.71323   0.33735   0.15237   0.00000  Uiso   1.00
C221   C     0.93335   0.25731   0.04409   0.00000  Uiso   1.00
O222   O     0.94173   0.23926   0.00669   0.00000  Uiso   1.00
O223   O     0.97333   0.27973   0.07267   0.00000  Uiso   1.00
H224   H     0.67346   0.27941   0.05807   0.00000  Uiso   1.00
C225   C     0.79591   0.17008   0.46461   0.00000  Uiso   1.00
O226   O     0.81424   0.15774   0.00536   0.00000  Uiso   1.00
O227   O     0.75848   0.14413   0.43711   0.00000  Uiso   1.00
H228   H     0.74947   0.11638   0.45504   0.00000  Uiso   1.00
C229   C     0.16561   0.66505   0.25007   0.00000  Uiso   1.00
C230   C     0.16538   0.83508   0.24959   0.00000  Uiso   1.00
C231   C     0.21487   0.75439   0.06031   0.00000  Uiso   1.00
C232   C     0.14755   0.71170   0.44351   0.00000  Uiso   1.00
C233   C     0.21209   0.75594   0.11084   0.00000  Uiso   1.00
C234   C     0.14654   0.71441   0.39242   0.00000  Uiso   1.00
C235   C     0.12217   0.74414   0.09810   0.00000  Uiso   1.00
C236   C     0.18666   0.78473   0.39827   0.00000  Uiso   1.00
C237   C     0.12237   0.74390   0.04742   0.00000  Uiso   1.00
C238   C     0.18681   0.78458   0.44896   0.00000  Uiso   1.00
C239   C     0.16879   0.74848   0.02744   0.00000  Uiso   1.00
C240   C     0.16783   0.74784   0.47276   0.00000  Uiso   1.00
C241   C     0.06793   0.75021   0.23758   0.00000  Uiso   1.00
C242   C     0.26542   0.75002   0.26242   0.00000  Uiso   1.00
C243   C     0.01269   0.75031   0.23071   0.00000  Uiso   1.00
C244   C     0.32069   0.75003   0.26928   0.00000  Uiso   1.00
C245   C     0.12356   0.54709   0.27205   0.00000  Uiso   1.00
C246   C     0.13632   0.95400   0.20967   0.00000  Uiso   1.00
C247   C     0.12327   0.59399   0.27092   0.00000  Uiso   1.00
C248   C     0.13537   0.90720   0.20920   0.00000  Uiso   1.00
C249   C     0.16264   0.61683   0.25031   0.00000  Uiso   1.00
C250   C     0.16318   0.88356   0.24868   0.00000  Uiso   1.00
C251   C     0.20100   0.59357   0.23098   0.00000  Uiso   1.00
C252   C     0.19062   0.90641   0.28770   0.00000  Uiso   1.00
C253   C     0.20158   0.54774   0.23258   0.00000  Uiso   1.00
C254   C     0.19098   0.95228   0.28819   0.00000  Uiso   1.00
C255   C     0.16337   0.52446   0.25285   0.00000  Uiso   1.00
C256   C     0.16359   0.97607   0.24989   0.00000  Uiso   1.00
Cu257  Cu    0.16667   0.74999   0.29822   0.00000  Uiso   1.00
Cu258  Cu    0.16667   0.75000   0.20179   0.00000  Uiso   1.00
H259   H     0.32619   0.75051   0.19368   0.00000  Uiso   1.00
H260   H     0.00727   0.74977   0.30631   0.00000  Uiso   1.00
H261   H     0.23113   0.61107   0.21529   0.00000  Uiso   1.00
H262   H     0.21230   0.88865   0.31781   0.00000  Uiso   1.00
H263   H     0.23157   0.53018   0.21731   0.00000  Uiso   1.00
H264   H     0.21220   0.96940   0.31883   0.00000  Uiso   1.00
H265   H     0.24719   0.76095   0.13534   0.00000  Uiso   1.00
H266   H     0.13072   0.68720   0.36999   0.00000  Uiso   1.00
H267   H     0.08593   0.73955   0.11202   0.00000  Uiso   1.00
H268   H     0.20267   0.81291   0.38115   0.00000  Uiso   1.00
H269   H     0.08622   0.73969   0.02377   0.00000  Uiso   1.00
H270   H     0.20228   0.81300   0.46971   0.00000  Uiso   1.00
N271   N     0.16667   0.75001   0.12935   0.00000  Uiso   1.00
N272   N     0.16667   0.74999   0.37066   0.00000  Uiso   1.00
O273   O     0.16667   0.68572   0.29072   0.00000  Uiso   1.00
O274   O     0.16666   0.81428   0.20929   0.00000  Uiso   1.00
O275   O     0.16667   0.68573   0.20928   0.00000  Uiso   1.00
O276   O     0.16666   0.81427   0.29072   0.00000  Uiso   1.00
O277   O     0.09161   0.75000   0.28132   0.00000  Uiso   1.00
O278   O     0.24172   0.75000   0.21868   0.00000  Uiso   1.00
O279   O     0.09161   0.75000   0.19989   0.00000  Uiso   1.00
O280   O     0.24172   0.75000   0.30012   0.00000  Uiso   1.00
C281   C     0.08118   0.52156   0.29037   0.00000  Uiso   1.00
O282   O     0.03619   0.53156   0.27717   0.00000  Uiso   1.00
O283   O     0.09274   0.98579   0.32223   0.00000  Uiso   1.00
H284   H     0.06070   0.97088   0.33167   0.00000  Uiso   1.00
C285   C     0.10791   0.98000   0.16921   0.00000  Uiso   1.00
O286   O     0.06842   0.99943   0.17516   0.00000  Uiso   1.00
O287   O     0.12691   0.98267   0.12460   0.00000  Uiso   1.00
H288   H     0.10440   0.50152   0.09990   0.00000  Uiso   1.00
C289   C     0.08180   0.61891   0.29045   0.00000  Uiso   1.00
O290   O     0.05966   0.64913   0.26668   0.00000  Uiso   1.00
O291   O     0.06770   0.60745   0.33574   0.00000  Uiso   1.00
H292   H     0.03860   0.62644   0.34463   0.00000  Uiso   1.00
C293   C     0.10213   0.88331   0.16993   0.00000  Uiso   1.00
O294   O     0.10590   0.89105   0.12725   0.00000  Uiso   1.00
O295   O     0.06662   0.85173   0.18205   0.00000  Uiso   1.00
H296   H     0.04657   0.83735   0.15237   0.00000  Uiso   1.00
C297   C     0.26668   0.75731   0.04409   0.00000  Uiso   1.00
O298   O     0.27506   0.73926   0.00669   0.00000  Uiso   1.00
O299   O     0.30666   0.77973   0.07267   0.00000  Uiso   1.00
H300   H     0.00679   0.77941   0.05807   0.00000  Uiso   1.00
C301   C     0.12924   0.67008   0.46461   0.00000  Uiso   1.00
O302   O     0.14757   0.65774   0.00536   0.00000  Uiso   1.00
O303   O     0.09182   0.64413   0.43711   0.00000  Uiso   1.00
H304   H     0.08280   0.61638   0.45504   0.00000  Uiso   1.00
C305   C     0.49894   0.66505   0.25007   0.00000  Uiso   1.00
C306   C     0.49871   0.83508   0.24959   0.00000  Uiso   1.00
C307   C     0.54820   0.75439   0.06031   0.00000  Uiso   1.00
C308   C     0.48088   0.71170   0.44351   0.00000  Uiso   1.00
C309   C     0.54543   0.75594   0.11084   0.00000  Uiso   1.00
C310   C     0.47987   0.71441   0.39242   0.00000  Uiso   1.00
C311   C     0.45550   0.74414   0.09810   0.00000  Uiso   1.00
C312   C     0.51999   0.78473   0.39827   0.00000  Uiso   1.00
C313   C     0.45570   0.74390   0.04742   0.00000  Uiso   1.00
C314   C     0.52014   0.78458   0.44896   0.00000  Uiso   1.00
C315   C     0.50212   0.74848   0.02744   0.00000  Uiso   1.00
C316   C     0.50116   0.74784   0.47276   0.00000  Uiso   1.00
C317   C     0.40126   0.75021   0.23758   0.00000  Uiso   1.00
C318   C     0.59876   0.75002   0.26242   0.00000  Uiso   1.00
C319   C     0.34603   0.75031   0.23071   0.00000  Uiso   1.00
C320   C     0.65402   0.75003   0.26928   0.00000  Uiso   1.00
C321   C     0.45689   0.54709   0.27205   0.00000  Uiso   1.00
C322   C     0.46966   0.95400   0.20967   0.00000  Uiso   1.00
C323   C     0.45661   0.59399   0.27092   0.00000  Uiso   1.00
C324   C     0.46870   0.90720   0.20920   0.00000  Uiso   1.00
C325   C     0.49597   0.61683   0.25031   0.00000  Uiso   1.00
C326   C     0.49652   0.88356   0.24868   0.00000  Uiso   1.00
C327   C     0.53433   0.59357   0.23098   0.00000  Uiso   1.00
C328   C     0.52395   0.90641   0.28770   0.00000  Uiso   1.00
C329   C     0.53492   0.54774   0.23258   0.00000  Uiso   1.00
C330   C     0.52431   0.95228   0.28819   0.00000  Uiso   1.00
C331   C     0.49670   0.52446   0.25285   0.00000  Uiso   1.00
C332   C     0.49692   0.97607   0.24989   0.00000  Uiso   1.00
Cu333  Cu    0.50000   0.74999   0.29822   0.00000  Uiso   1.00
Cu334  Cu    0.50000   0.75000   0.20179   0.00000  Uiso   1.00
H335   H     0.65953   0.75051   0.19368   0.00000  Uiso   1.00
H336   H     0.34061   0.74977   0.30631   0.00000  Uiso   1.00
H337   H     0.56446   0.61107   0.21529   0.00000  Uiso   1.00
H338   H     0.54563   0.88865   0.31781   0.00000  Uiso   1.00
H339   H     0.56490   0.53018   0.21731   0.00000  Uiso   1.00
H340   H     0.54554   0.96940   0.31883   0.00000  Uiso   1.00
H341   H     0.58053   0.76095   0.13534   0.00000  Uiso   1.00
H342   H     0.46405   0.68720   0.36999   0.00000  Uiso   1.00
H343   H     0.41926   0.73955   0.11202   0.00000  Uiso   1.00
H344   H     0.53601   0.81291   0.38115   0.00000  Uiso   1.00
H345   H     0.41955   0.73969   0.02377   0.00000  Uiso   1.00
H346   H     0.53561   0.81300   0.46971   0.00000  Uiso   1.00
N347   N     0.50000   0.75001   0.12935   0.00000  Uiso   1.00
N348   N     0.50000   0.74999   0.37066   0.00000  Uiso   1.00
O349   O     0.50000   0.68572   0.29072   0.00000  Uiso   1.00
O350   O     0.50000   0.81428   0.20929   0.00000  Uiso   1.00
O351   O     0.50000   0.68573   0.20928   0.00000  Uiso   1.00
O352   O     0.50000   0.81427   0.29072   0.00000  Uiso   1.00
O353   O     0.42495   0.75000   0.28132   0.00000  Uiso   1.00
O354   O     0.57505   0.75000   0.21868   0.00000  Uiso   1.00
O355   O     0.42495   0.75000   0.19989   0.00000  Uiso   1.00
O356   O     0.57505   0.75000   0.30012   0.00000  Uiso   1.00
C357   C     0.41452   0.52156   0.29037   0.00000  Uiso   1.00
O358   O     0.36952   0.53156   0.27717   0.00000  Uiso   1.00
O359   O     0.42607   0.98579   0.32223   0.00000  Uiso   1.00
H360   H     0.39403   0.97088   0.33167   0.00000  Uiso   1.00
C361   C     0.44125   0.98000   0.16921   0.00000  Uiso   1.00
O362   O     0.40175   0.99943   0.17516   0.00000  Uiso   1.00
O363   O     0.46024   0.98267   0.12460   0.00000  Uiso   1.00
H364   H     0.43773   0.50152   0.09990   0.00000  Uiso   1.00
C365   C     0.41513   0.61891   0.29045   0.00000  Uiso   1.00
O366   O     0.39299   0.64913   0.26668   0.00000  Uiso   1.00
O367   O     0.40103   0.60745   0.33574   0.00000  Uiso   1.00
H368   H     0.37193   0.62644   0.34463   0.00000  Uiso   1.00
C369   C     0.43546   0.88331   0.16993   0.00000  Uiso   1.00
O370   O     0.43923   0.89105   0.12725   0.00000  Uiso   1.00
O371   O     0.39995   0.85173   0.18205   0.00000  Uiso   1.00
H372   H     0.37990   0.83735   0.15237   0.00000  Uiso   1.00
C373   C     0.60002   0.75731   0.04409   0.00000  Uiso   1.00
O374   O     0.60840   0.73926   0.00669   0.00000  Uiso   1.00
O375   O     0.64000   0.77973   0.07267   0.00000  Uiso   1.00
H376   H     0.34013   0.77941   0.05807   0.00000  Uiso   1.00
C377   C     0.46257   0.67008   0.46461   0.00000  Uiso   1.00
O378   O     0.48090   0.65774   0.00536   0.00000  Uiso   1.00
O379   O     0.42515   0.64413   0.43711   0.00000  Uiso   1.00
H380   H     0.41613   0.61638   0.45504   0.00000  Uiso   1.00
C381   C     0.83227   0.66505   0.25007   0.00000  Uiso   1.00
C382   C     0.83205   0.83508   0.24959   0.00000  Uiso   1.00
C383   C     0.88153   0.75439   0.06031   0.00000  Uiso   1.00
C384   C     0.81421   0.71170   0.44351   0.00000  Uiso   1.00
C385   C     0.87876   0.75594   0.11084   0.00000  Uiso   1.00
C386   C     0.81321   0.71441   0.39242   0.00000  Uiso   1.00
C387   C     0.78884   0.74414   0.09810   0.00000  Uiso   1.00
C388   C     0.85332   0.78473   0.39827   0.00000  Uiso   1.00
C389   C     0.78904   0.74390   0.04742   0.00000  Uiso   1.00
C390   C     0.85347   0.78458   0.44896   0.00000  Uiso   1.00
C391   C     0.83545   0.74848   0.02744   0.00000  Uiso   1.00
C392   C     0.83449   0.74784   0.47276   0.00000  Uiso   1.00
C393   C     0.73459   0.75021   0.23758   0.00000  Uiso   1.00
C394   C     0.93209   0.75002   0.26242   0.00000  Uiso   1.00
C395   C     0.67936   0.75031   0.23071   0.00000  Uiso   1.00
C396   C     0.98735   0.75003   0.26928   0.00000  Uiso   1.00
C397   C     0.79023   0.54709   0.27205   0.00000  Uiso   1.00
C398   C     0.80299   0.95400   0.20967   0.00000  Uiso   1.00
C399   C     0.78994   0.59399   0.27092   0.00000  Uiso   1.00
C400   C     0.80203   0.90720   0.20920   0.00000  Uiso   1.00
C401   C     0.82931   0.61683   0.25031   0.00000  Uiso   1.00
C402   C     0.82985   0.88356   0.24868   0.00000  Uiso   1.00
C403   C     0.86767   0.59357   0.23098   0.00000  Uiso   1.00
C404   C     0.85728   0.90641   0.28770   0.00000  Uiso   1.00
C405   C     0.86825   0.54774   0.23258   0.00000  Uiso   1.00
C406   C     0.85764   0.95228   0.28819   0.00000  Uiso   1.00
C407   C     0.83004   0.52446   0.25285   0.00000  Uiso   1.00
C408   C     0.83026   0.97607   0.24989   0.00000  Uiso   1.00
Cu409  Cu    0.83333   0.74999   0.29822   0.00000  Uiso   1.00
Cu410  Cu    0.83333   0.75000   0.20179   0.00000  Uiso   1.00
H411   H     0.99286   0.75051   0.19368   0.00000  Uiso   1.00
H412   H     0.67394   0.74977   0.30631   0.00000  Uiso   1.00
H413   H     0.89779   0.61107   0.21529   0.00000  Uiso   1.00
H414   H     0.87896   0.88865   0.31781   0.00000  Uiso   1.00
H415   H     0.89823   0.53018   0.21731   0.00000  Uiso   1.00
H416   H     0.87887   0.96940   0.31883   0.00000  Uiso   1.00
H417   H     0.91386   0.76095   0.13534   0.00000  Uiso   1.00
H418   H     0.79739   0.68720   0.36999   0.00000  Uiso   1.00
H419   H     0.75260   0.73955   0.11202   0.00000  Uiso   1.00
H420   H     0.86934   0.81291   0.38115   0.00000  Uiso   1.00
H421   H     0.75289   0.73969   0.02377   0.00000  Uiso   1.00
H422   H     0.86895   0.81300   0.46971   0.00000  Uiso   1.00
N423   N     0.83333   0.75001   0.12935   0.00000  Uiso   1.00
N424   N     0.83333   0.74999   0.37066   0.00000  Uiso   1.00
O425   O     0.83334   0.68572   0.29072   0.00000  Uiso   1.00
O426   O     0.83333   0.81428   0.20929   0.00000  Uiso   1.00
O427   O     0.83334   0.68573   0.20928   0.00000  Uiso   1.00
O428   O     0.83333   0.81427   0.29072   0.00000  Uiso   1.00
O429   O     0.75828   0.75000   0.28132   0.00000  Uiso   1.00
O430   O     0.90839   0.75000   0.21868   0.00000  Uiso   1.00
O431   O     0.75828   0.75000   0.19989   0.00000  Uiso   1.00
O432   O     0.90839   0.75000   0.30012   0.00000  Uiso   1.00
C433   C     0.74785   0.52156   0.29037   0.00000  Uiso   1.00
O434   O     0.70286   0.53156   0.27717   0.00000  Uiso   1.00
O435   O     0.75941   0.98579   0.32223   0.00000  Uiso   1.00
H436   H     0.72737   0.97088   0.33167   0.00000  Uiso   1.00
C437   C     0.77458   0.98000   0.16921   0.00000  Uiso   1.00
O438   O     0.73509   0.99943   0.17516   0.00000  Uiso   1.00
O439   O     0.79357   0.98267   0.12460   0.00000  Uiso   1.00
H440   H     0.77107   0.50152   0.09990   0.00000  Uiso   1.00
C441   C     0.74846   0.61891   0.29045   0.00000  Uiso   1.00
O442   O     0.72632   0.64913   0.26668   0.00000  Uiso   1.00
O443   O     0.73437   0.60745   0.33574   0.00000  Uiso   1.00
H444   H     0.70527   0.62644   0.34463   0.00000  Uiso   1.00
C445   C     0.76879   0.88331   0.16993   0.00000  Uiso   1.00
O446   O     0.77256   0.89105   0.12725   0.00000  Uiso   1.00
O447   O     0.73328   0.85173   0.18205   0.00000  Uiso   1.00
H448   H     0.71323   0.83735   0.15237   0.00000  Uiso   1.00
C449   C     0.93335   0.75731   0.04409   0.00000  Uiso   1.00
O450   O     0.94173   0.73926   0.00669   0.00000  Uiso   1.00
O451   O     0.97333   0.77973   0.07267   0.00000  Uiso   1.00
H452   H     0.67346   0.77941   0.05807   0.00000  Uiso   1.00
C453   C     0.79591   0.67008   0.46461   0.00000  Uiso   1.00
O454   O     0.81424   0.65774   0.00536   0.00000  Uiso   1.00
O455   O     0.75848   0.64413   0.43711   0.00000  Uiso   1.00
H456   H     0.74947   0.61638   0.45504   0.00000  Uiso   1.00
C457   C     0.16561   0.16505   0.75007   0.00000  Uiso   1.00
C458   C     0.16538   0.33508   0.74959   0.00000  Uiso   1.00
C459   C     0.21487   0.25439   0.56031   0.00000  Uiso   1.00
C460   C     0.14755   0.21170   0.94351   0.00000  Uiso   1.00
C461   C     0.21209   0.25594   0.61084   0.00000  Uiso   1.00
C462   C     0.14654   0.21441   0.89242   0.00000  Uiso   1.00
C463   C     0.12217   0.24414   0.59810   0.00000  Uiso   1.00
C464   C     0.18666   0.28473   0.89827   0.00000  Uiso   1.00
C465   C     0.12237   0.24390   0.54742   0.00000  Uiso   1.00
C466   C     0.18681   0.28458   0.94896   0.00000  Uiso   1.00
C467   C     0.16879   0.24848   0.52744   0.00000  Uiso   1.00
C468   C     0.16783   0.24784   0.97276   0.00000  Uiso   1.00
C469   C     0.06793   0.25021   0.73758   0.00000  Uiso   1.00
C470   C     0.26542   0.25002   0.76242   0.00000  Uiso   1.00
C471   C     0.01269   0.25031   0.73071   0.00000  Uiso   1.00
C472   C     0.32069   0.25003   0.76928   0.00000  Uiso   1.00
C473   C     0.12356   0.04709   0.77205   0.00000  Uiso   1.00
C474   C     0.13632   0.45400   0.70967   0.00000  Uiso   1.00
C475   C     0.12327   0.09399   0.77092   0.00000  Uiso   1.00
C476   C     0.13537   0.40720   0.70920   0.00000  Uiso   1.00
C477   C     0.16264   0.11683   0.75031   0.00000  Uiso   1.00
C478   C     0.16318   0.38356   0.74868   0.00000  Uiso   1.00
C479   C     0.20100   0.09357   0.73098   0.00000  Uiso   1.00
C480   C     0.19062   0.40641   0.78770   0.00000  Uiso   1.00
C481   C     0.20158   0.04774   0.73258   0.00000  Uiso   1.00
C482   C     0.19098   0.45228   0.78819   0.00000  Uiso   1.00
C483   C     0.16337   0.02446   0.75285   0.00000  Uiso   1.00
C484   C     0.16359   0.47607   0.74989   0.00000  Uiso   1.00
Cu485  Cu    0.16667   0.24999   0.79822   0.00000  Uiso   1.00
Cu486  Cu    0.16667   0.25000   0.70179   0.00000  Uiso   1.00
H487   H     0.32619   0.25051   0.69368   0.00000  Uiso   1.00
H488   H     0.00727   0.24977   0.80631   0.00000  Uiso   1.00
H489   H     0.23113   0.11107   0.71529   0.00000  Uiso   1.00
H490   H     0.21230   0.38865   0.81781   0.00000  Uiso   1.00
H491   H     0.23157   0.03018   0.71731   0.00000  Uiso   1.00
H492   H     0.21220   0.46940   0.81883   0.00000  Uiso   1.00
H493   H     0.24719   0.26095   0.63534   0.00000  Uiso   1.00
H494   H     0.13072   0.18720   0.86999   0.00000  Uiso   1.00
H495   H     0.08593   0.23955   0.61202   0.00000  Uiso   1.00
H496   H     0.20267   0.31291   0.88115   0.00000  Uiso   1.00
H497   H     0.08622   0.23969   0.52377   0.00000  Uiso   1.00
H498   H     0.20228   0.31300   0.96971   0.00000  Uiso   1.00
N499   N     0.16667   0.25001   0.62935   0.00000  Uiso   1.00
N500   N     0.16667   0.24999   0.87066   0.00000  Uiso   1.00
O501   O     0.16667   0.18572   0.79072   0.00000  Uiso   1.00
O502   O     0.16666   0.31428   0.70929   0.00000  Uiso   1.00
O503   O     0.16667   0.18573   0.70928   0.00000  Uiso   1.00
O504   O     0.16666   0.31427   0.79072   0.00000  Uiso   1.00
O505   O     0.09161   0.25000   0.78132   0.00000  Uiso   1.00
O506   O     0.24172   0.25000   0.71868   0.00000  Uiso   1.00
O507   O     0.09161   0.25000   0.69989   0.00000  Uiso   1.00
O508   O     0.24172   0.25000   0.80012   0.00000  Uiso   1.00
C509   C     0.08118   0.02156   0.79037   0.00000  Uiso   1.00
O510   O     0.03619   0.03156   0.77717   0.00000  Uiso   1.00
O511   O     0.09274   0.48579   0.82223   0.00000  Uiso   1.00
H512   H     0.06070   0.47088   0.83167   0.00000  Uiso   1.00
C513   C     0.10791   0.48000   0.66921   0.00000  Uiso   1.00
O514   O     0.06842   0.49943   0.67516   0.00000  Uiso   1.00
O515   O     0.12691   0.48267   0.62460   0.00000  Uiso   1.00
H516   H     0.10440   0.00152   0.59990   0.00000  Uiso   1.00
C517   C     0.08180   0.11891   0.79045   0.00000  Uiso   1.00
O518   O     0.05966   0.14913   0.76668   0.00000  Uiso   1.00
O519   O     0.06770   0.10745   0.83574   0.00000  Uiso   1.00
H520   H     0.03860   0.12644   0.84463   0.00000  Uiso   1.00
C521   C     0.10213   0.38331   0.66993   0.00000  Uiso   1.00
O522   O     0.10590   0.39105   0.62725   0.00000  Uiso   1.00
O523   O     0.06662   0.35173   0.68205   0.00000  Uiso   1.00
H524   H     0.04657   0.33735   0.65237   0.00000  Uiso   1.00
C525   C     0.26668   0.25731   0.54409   0.00000  Uiso   1.00
O526   O     0.27506   0.23926   0.50669   0.00000  Uiso   1.00
O527   O     0.30666   0.27973   0.57267   0.00000  Uiso   1.00
H528   H     0.00679   0.27941   0.55807   0.00000  Uiso   1.00
C529   C     0.12924   0.17008   0.96461   0.00000  Uiso   1.00
O530   O     0.14757   0.15774   0.50536   0.00000  Uiso   1.00
O531   O     0.09182   0.14413   0.93711   0.00000  Uiso   1.00
H532   H     0.08280   0.11638   0.95504   0.00000  Uiso   1.00
C533   C     0.49894   0.16505   0.75007   0.00000  Uiso   1.00
C534   C     0.49871   0.33508   0.74959   0.00000  Uiso   1.00
C535   C     0.54820   0.25439   0.56031   0.00000  Uiso   1.00
C536   C     0.48088   0.21170   0.94351   0.00000  Uiso   1.00
C537   C     0.54543   0.25594   0.61084   0.00000  Uiso   1.00
C538   C     0.47987   0.21441   0.89242   0.00000  Uiso   1.00
C539   C     0.45550   0.24414   0.59810   0.00000  Uiso   1.00
C540   C     0.51999   0.28473   0.89827   0.00000  Uiso   1.00
C541   C     0.45570   0.24390   0.54742   0.00000  Uiso   1.00
C542   C     0.52014   0.28458   0.94896   0.00000  Uiso   1.00
C543   C     0.50212   0.24848   0.52744   0.00000  Uiso   1.00
C544   C     0.50116   0.24784   0.97276   0.00000  Uiso   1.00
C545   C     0.40126   0.25021   0.73758   0.00000  Uiso   1.00
C546   C     0.59876   0.25002   0.76242   0.00000  Uiso   1.00
C547   C     0.34603   0.25031   0.73071   0.00000  Uiso   1.00
C548   C     0.65402   0.25003   0.76928   0.00000  Uiso   1.00
C549   C     0.45689   0.04709   0.77205   0.00000  Uiso   1.00
C550   C     0.46966   0.45400   0.70967   0.00000  Uiso   1.00
C551   C     0.45661   0.09399   0.77092   0.00000  Uiso   1.00
C552   C     0.46870   0.40720   0.70920   0.00000  Uiso   1.00
C553   C     0.49597   0.11683   0.75031   0.00000  Uiso   1.00
C554   C     0.49652   0.38356   0.74868   0.00000  Uiso   1.00
C555   C     0.53433   0.09357   0.73098   0.00000  Uiso   1.00
C556   C     0.52395   0.40641   0.78770   0.00000  Uiso   1.00
C557   C     0.53492   0.04774   0.73258   0.00000  Uiso   1.00
C558   C     0.52431   0.45228   0.78819   0.00000  Uiso   1.00
C559   C     0.49670   0.02446   0.75285   0.00000  Uiso   1.00
C560   C     0.49692   0.47607   0.74989   0.00000  Uiso   1.00
Cu561  Cu    0.50000   0.24999   0.79822   0.00000  Uiso   1.00
Cu562  Cu    0.50000   0.25000   0.70179   0.00000  Uiso   1.00
H563   H     0.65953   0.25051   0.69368   0.00000  Uiso   1.00
H564   H     0.34061   0.24977   0.80631   0.00000  Uiso   1.00
H565   H     0.56446   0.11107   0.71529   0.00000  Uiso   1.00
H566   H     0.54563   0.38865   0.81781   0.00000  Uiso   1.00
H567   H     0.56490   0.03018   0.71731   0.00000  Uiso   1.00
H568   H     0.54554   0.46940   0.81883   0.00000  Uiso   1.00
H569   H     0.58053   0.26095   0.63534   0.00000  Uiso   1.00
H570   H     0.46405   0.18720   0.86999   0.00000  Uiso   1.00
H571   H     0.41926   0.23955   0.61202   0.00000  Uiso   1.00
H572   H     0.53601   0.31291   0.88115   0.00000  Uiso   1.00
H573   H     0.41955   0.23969   0.52377   0.00000  Uiso   1.00
H574   H     0.53561   0.31300   0.96971   0.00000  Uiso   1.00
N575   N     0.50000   0.25001   0.62935   0.00000  Uiso   1.00
N576   N     0.50000   0.24999   0.87066   0.00000  Uiso   1.00
O577   O     0.50000   0.18572   0.79072   0.00000  Uiso   1.00
O578   O     0.50000   0.31428   0.70929   0.00000  Uiso   1.00
O579   O     0.50000   0.18573   0.70928   0.00000  Uiso   1.00
O580   O     0.50000   0.31427   0.79072   0.00000  Uiso   1.00
O581   O     0.42495   0.25000   0.78132   0.00000  Uiso   1.00
O582   O     0.57505   0.25000   0.71868   0.00000  Uiso   1.00
O583   O     0.42495   0.25000   0.69989   0.00000  Uiso   1.00
O584   O     0.57505   0.25000   0.80012   0.00000  Uiso   1.00
C585   C     0.41452   0.02156   0.79037   0.00000  Uiso   1.00
O586   O     0.36952   0.03156   0.77717   0.00000  Uiso   1.00
O587   O     0.42607   0.48579   0.82223   0.00000  Uiso   1.00
H588   H     0.39403   0.47088   0.83167   0.00000  Uiso   1.00
C589   C     0.44125   0.48000   0.66921   0.00000  Uiso   1.00
O590   O     0.40175   0.49943   0.67516   0.00000  Uiso   1.00
O591   O     0.46024   0.48267   0.62460   0.00000  Uiso   1.00
H592   H     0.43773   0.00152   0.59990   0.00000  Uiso   1.00
C593   C     0.41513   0.11891   0.79045   0.00000  Uiso   1.00
O594   O     0.39299   0.14913   0.76668   0.00000  Uiso   1.00
O595   O     0.40103   0.10745   0.83574   0.00000  Uiso   1.00
H596   H     0.37193   0.12644   0.84463   0.00000  Uiso   1.00
C597   C     0.43546   0.38331   0.66993   0.00000  Uiso   1.00
O598   O     0.43923   0.39105   0.62725   0.00000  Uiso   1.00
O599   O     0.39995   0.35173   0.68205   0.00000  Uiso   1.00
H600   H     0.37990   0.33735   0.65237   0.00000  Uiso   1.00
C601   C     0.60002   0.25731   0.54409   0.00000  Uiso   1.00
O602   O     0.60840   0.23926   0.50669   0.00000  Uiso   1.00
O603   O     0.64000   0.27973   0.57267   0.00000  Uiso   1.00
H604   H     0.34013   0.27941   0.55807   0.00000  Uiso   1.00
C605   C     0.46257   0.17008   0.96461   0.00000  Uiso   1.00
O606   O     0.48090   0.15774   0.50536   0.00000  Uiso   1.00
O607   O     0.42515   0.14413   0.93711   0.00000  Uiso   1.00
H608   H     0.41613   0.11638   0.95504   0.00000  Uiso   1.00
C609   C     0.83227   0.16505   0.75007   0.00000  Uiso   1.00
C610   C     0.83205   0.33508   0.74959   0.00000  Uiso   1.00
C611   C     0.88153   0.25439   0.56031   0.00000  Uiso   1.00
C612   C     0.81421   0.21170   0.94351   0.00000  Uiso   1.00
C613   C     0.87876   0.25594   0.61084   0.00000  Uiso   1.00
C614   C     0.81321   0.21441   0.89242   0.00000  Uiso   1.00
C615   C     0.78884   0.24414   0.59810   0.00000  Uiso   1.00
C616   C     0.85332   0.28473   0.89827   0.00000  Uiso   1.00
C617   C     0.78904   0.24390   0.54742   0.00000  Uiso   1.00
C618   C     0.85347   0.28458   0.94896   0.00000  Uiso   1.00
C619   C     0.83545   0.24848   0.52744   0.00000  Uiso   1.00
C620   C     0.83449   0.24784   0.97276   0.00000  Uiso   1.00
C621   C     0.73459   0.25021   0.73758   0.00000  Uiso   1.00
C622   C     0.93209   0.25002   0.76242   0.00000  Uiso   1.00
C623   C     0.67936   0.25031   0.73071   0.00000  Uiso   1.00
C624   C     0.98735   0.25003   0.76928   0.00000  Uiso   1.00
C625   C     0.79023   0.04709   0.77205   0.00000  Uiso   1.00
C626   C     0.80299   0.45400   0.70967   0.00000  Uiso   1.00
C627   C     0.78994   0.09399   0.77092   0.00000  Uiso   1.00
C628   C     0.80203   0.40720   0.70920   0.00000  Uiso   1.00
C629   C     0.82931   0.11683   0.75031   0.00000  Uiso   1.00
C630   C     0.82985   0.38356   0.74868   0.00000  Uiso   1.00
C631   C     0.86767   0.09357   0.73098   0.00000  Uiso   1.00
C632   C     0.85728   0.40641   0.78770   0.00000  Uiso   1.00
C633   C     0.86825   0.04774   0.73258   0.00000  Uiso   1.00
C634   C     0.85764   0.45228   0.78819   0.00000  Uiso   1.00
C635   C     0.83004   0.02446   0.75285   0.00000  Uiso   1.00
C636   C     0.83026   0.47607   0.74989   0.00000  Uiso   1.00
Cu637  Cu    0.83333   0.24999   0.79822   0.00000  Uiso   1.00
Cu638  Cu    0.83333   0.25000   0.70179   0.00000  Uiso   1.00
H639   H     0.99286   0.25051   0.69368   0.00000  Uiso   1.00
H640   H     0.67394   0.24977   0.80631   0.00000  Uiso   1.00
H641   H     0.89779   0.11107   0.71529   0.00000  Uiso   1.00
H642   H     0.87896   0.38865   0.81781   0.00000  Uiso   1.00
H643   H     0.89823   0.03018   0.71731   0.00000  Uiso   1.00
H644   H     0.87887   0.46940   0.81883   0.00000  Uiso   1.00
H645   H     0.91386   0.26095   0.63534   0.00000  Uiso   1.00
H646   H     0.79739   0.18720   0.86999   0.00000  Uiso   1.00
H647   H     0.75260   0.23955   0.61202   0.00000  Uiso   1.00
H648   H     0.86934   0.31291   0.88115   0.00000  Uiso   1.00
H649   H     0.75289   0.23969   0.52377   0.00000  Uiso   1.00
H650   H     0.86895   0.31300   0.96971   0.00000  Uiso   1.00
N651   N     0.83333   0.25001   0.62935   0.00000  Uiso   1.00
N652   N     0.83333   0.24999   0.87066   0.00000  Uiso   1.00
O653   O     0.83334   0.18572   0.79072   0.00000  Uiso   1.00
O654   O     0.83333   0.31428   0.70929   0.00000  Uiso   1.00
O655   O     0.83334   0.18573   0.70928   0.00000  Uiso   1.00
O656   O     0.83333   0.31427   0.79072   0.00000  Uiso   1.00
O657   O     0.75828   0.25000   0.78132   0.00000  Uiso   1.00
O658   O     0.90839   0.25000   0.71868   0.00000  Uiso   1.00
O659   O     0.75828   0.25000   0.69989   0.00000  Uiso   1.00
O660   O     0.90839   0.25000   0.80012   0.00000  Uiso   1.00
C661   C     0.74785   0.02156   0.79037   0.00000  Uiso   1.00
O662   O     0.70286   0.03156   0.77717   0.00000  Uiso   1.00
O663   O     0.75941   0.48579   0.82223   0.00000  Uiso   1.00
H664   H     0.72737   0.47088   0.83167   0.00000  Uiso   1.00
C665   C     0.77458   0.48000   0.66921   0.00000  Uiso   1.00
O666   O     0.73509   0.49943   0.67516   0.00000  Uiso   1.00
O667   O     0.79357   0.48267   0.62460   0.00000  Uiso   1.00
H668   H     0.77107   0.00152   0.59990   0.00000  Uiso   1.00
C669   C     0.74846   0.11891   0.79045   0.00000  Uiso   1.00
O670   O     0.72632   0.14913   0.76668   0.00000  Uiso   1.00
O671   O     0.73437   0.10745   0.83574   0.00000  Uiso   1.00
H672   H     0.70527   0.12644   0.84463   0.00000  Uiso   1.00
C673   C     0.76879   0.38331   0.66993   0.00000  Uiso   1.00
O674   O     0.77256   0.39105   0.62725   0.00000  Uiso   1.00
O675   O     0.73328   0.35173   0.68205   0.00000  Uiso   1.00
H676   H     0.71323   0.33735   0.65237   0.00000  Uiso   1.00
C677   C     0.93335   0.25731   0.54409   0.00000  Uiso   1.00
O678   O     0.94173   0.23926   0.50669   0.00000  Uiso   1.00
O679   O     0.97333   0.27973   0.57267   0.00000  Uiso   1.00
H680   H     0.67346   0.27941   0.55807   0.00000  Uiso   1.00
C681   C     0.79591   0.17008   0.96461   0.00000  Uiso   1.00
O682   O     0.81424   0.15774   0.50536   0.00000  Uiso   1.00
O683   O     0.75848   0.14413   0.93711   0.00000  Uiso   1.00
H684   H     0.74947   0.11638   0.95504   0.00000  Uiso   1.00
C685   C     0.16561   0.66505   0.75007   0.00000  Uiso   1.00
C686   C     0.16538   0.83508   0.74959   0.00000  Uiso   1.00
C687   C     0.21487   0.75439   0.56031   0.00000  Uiso   1.00
C688   C     0.14755   0.71170   0.94351   0.00000  Uiso   1.00
C689   C     0.21209   0.75594   0.61084   0.00000  Uiso   1.00
C690   C     0.14654   0.71441   0.89242   0.00000  Uiso   1.00
C691   C     0.12217   0.74414   0.59810   0.00000  Uiso   1.00
C692   C     0.18666   0.78473   0.89827   0.00000  Uiso   1.00
C693   C     0.12237   0.74390   0.54742   0.00000  Uiso   1.00
C694   C     0.18681   0.78458   0.94896   0.00000  Uiso   1.00
C695   C     0.16879   0.74848   0.52744   0.00000  Uiso   1.00
C696   C     0.16783   0.74784   0.97276   0.00000  Uiso   1.00
C697   C     0.06793   0.75021   0.73758   0.00000  Uiso   1.00
C698   C     0.26542   0.75002   0.76242   0.00000  Uiso   1.00
C699   C     0.01269   0.75031   0.73071   0.00000  Uiso   1.00
C700   C     0.32069   0.75003   0.76928   0.00000  Uiso   1.00
C701   C     0.12356   0.54709   0.77205   0.00000  Uiso   1.00
C702   C     0.13632   0.95400   0.70967   0.00000  Uiso   1.00
C703   C     0.12327   0.59399   0.77092   0.00000  Uiso   1.00
C704   C     0.13537   0.90720   0.70920   0.00000  Uiso   1.00
C705   C     0.16264   0.61683   0.75031   0.00000  Uiso   1.00
C706   C     0.16318   0.88356   0.74868   0.00000  Uiso   1.00
C707   C     0.20100   0.59357   0.73098   0.00000  Uiso   1.00
C708   C     0.19062   0.90641   0.78770   0.00000  Uiso   1.00
C709   C     0.20158   0.54774   0.73258   0.00000  Uiso   1.00
C710   C     0.19098   0.95228   0.78819   0.00000  Uiso   1.00
C711   C     0.16337   0.52446   0.75285   0.00000  Uiso   1.00
C712   C     0.16359   0.97607   0.74989   0.00000  Uiso   1.00
Cu713  Cu    0.16667   0.74999   0.79822   0.00000  Uiso   1.00
Cu714  Cu    0.16667   0.75000   0.70179   0.00000  Uiso   1.00
H715   H     0.32619   0.75051   0.69368   0.00000  Uiso   1.00
H716   H     0.00727   0.74977   0.80631   0.00000  Uiso   1.00
H717   H     0.23113   0.61107   0.71529   0.00000  Uiso   1.00
H718   H     0.21230   0.88865   0.81781   0.00000  Uiso   1.00
H719   H     0.23157   0.53018   0.71731   0.00000  Uiso   1.00
H720   H     0.21220   0.96940   0.81883   0.00000  Uiso   1.00
H721   H     0.24719   0.76095   0.63534   0.00000  Uiso   1.00
H722   H     0.13072   0.68720   0.86999   0.00000  Uiso   1.00
H723   H     0.08593   0.73955   0.61202   0.00000  Uiso   1.00
H724   H     0.20267   0.81291   0.88115   0.00000  Uiso   1.00
H725   H     0.08622   0.73969   0.52377   0.00000  Uiso   1.00
H726   H     0.20228   0.81300   0.96971   0.00000  Uiso   1.00
N727   N     0.16667   0.75001   0.62935   0.00000  Uiso   1.00
N728   N     0.16667   0.74999   0.87066   0.00000  Uiso   1.00
O729   O     0.16667   0.68572   0.79072   0.00000  Uiso   1.00
O730   O     0.16666   0.81428   0.70929   0.00000  Uiso   1.00
O731   O     0.16667   0.68573   0.70928   0.00000  Uiso   1.00
O732   O     0.16666   0.81427   0.79072   0.00000  Uiso   1.00
O733   O     0.09161   0.75000   0.78132   0.00000  Uiso   1.00
O734   O     0.24172   0.75000   0.71868   0.00000  Uiso   1.00
O735   O     0.09161   0.75000   0.69989   0.00000  Uiso   1.00
O736   O     0.24172   0.75000   0.80012   0.00000  Uiso   1.00
C737   C     0.08118   0.52156   0.79037   0.00000  Uiso   1.00
O738   O     0.03619   0.53156   0.77717   0.00000  Uiso   1.00
O739   O     0.09274   0.98579   0.82223   0.00000  Uiso   1.00
H740   H     0.06070   0.97088   0.83167   0.00000  Uiso   1.00
C741   C     0.10791   0.98000   0.66921   0.00000  Uiso   1.00
O742   O     0.06842   0.99943   0.67516   0.00000  Uiso   1.00
O743   O     0.12691   0.98267   0.62460   0.00000  Uiso   1.00
H744   H     0.10440   0.50152   0.59990   0.00000  Uiso   1.00
C745   C     0.08180   0.61891   0.79045   0.00000  Uiso   1.00
O746   O     0.05966   0.64913   0.76668   0.00000  Uiso   1.00
O747   O     0.06770   0.60745   0.83574   0.00000  Uiso   1.00
H748   H     0.03860   0.62644   0.84463   0.00000  Uiso   1.00
C749   C     0.10213   0.88331   0.66993   0.00000  Uiso   1.00
O750   O     0.10590   0.89105   0.62725   0.00000  Uiso   1.00
O751   O     0.06662   0.85173   0.68205   0.00000  Uiso   1.00
H752   H     0.04657   0.83735   0.65237   0.00000  Uiso   1.00
C753   C     0.26668   0.75731   0.54409   0.00000  Uiso   1.00
O754   O     0.27506   0.73926   0.50669   0.00000  Uiso   1.00
O755   O     0.30666   0.77973   0.57267   0.00000  Uiso   1.00
H756   H     0.00679   0.77941   0.55807   0.00000  Uiso   1.00
C757   C     0.12924   0.67008   0.96461   0.00000  Uiso   1.00
O758   O     0.14757   0.65774   0.50536   0.00000  Uiso   1.00
O759   O     0.09182   0.64413   0.93711   0.00000  Uiso   1.00
H760   H     0.08280   0.61638   0.95504   0.00000  Uiso   1.00
C761   C     0.49894   0.66505   0.75007   0.00000  Uiso   1.00
C762   C     0.49871   0.83508   0.74959   0.00000  Uiso   1.00
C763   C     0.54820   0.75439   0.56031   0.00000  Uiso   1.00
C764   C     0.48088   0.71170   0.94351   0.00000  Uiso   1.00
C765   C     0.54543   0.75594   0.61084   0.00000  Uiso   1.00
C766   C     0.47987   0.71441   0.89242   0.00000  Uiso   1.00
C767   C     0.45550   0.74414   0.59810   0.00000  Uiso   1.00
C768   C     0.51999   0.78473   0.89827   0.00000  Uiso   1.00
C769   C     0.45570   0.74390   0.54742   0.00000  Uiso   1.00
C770   C     0.52014   0.78458   0.94896   0.00000  Uiso   1.00
C771   C     0.50212   0.74848   0.52744   0.00000  Uiso   1.00
C772   C     0.50116   0.74784   0.97276   0.00000  Uiso   1.00
C773   C     0.40126   0.75021   0.73758   0.00000  Uiso   1.00
C774   C     0.59876   0.75002   0.76242   0.00000  Uiso   1.00
C775   C     0.34603   0.75031   0.73071   0.00000  Uiso   1.00
C776   C     0.65402   0.75003   0.76928   0.00000  Uiso   1.00
C777   C     0.45689   0.54709   0.77205   0.00000  Uiso   1.00
C778   C     0.46966   0.95400   0.70967   0.00000  Uiso   1.00
C779   C     0.45661   0.59399   0.77092   0.00000  Uiso   1.00
C780   C     0.46870   0.90720   0.70920   0.00000  Uiso   1.00
C781   C     0.49597   0.61683   0.75031   0.00000  Uiso   1.00
C782   C     0.49652   0.88356   0.74868   0.00000  Uiso   1.00
C783   C     0.53433   0.59357   0.73098   0.00000  Uiso   1.00
C784   C     0.52395   0.90641   0.78770   0.00000  Uiso   1.00
C785   C     0.53492   0.54774   0.73258   0.00000  Uiso   1.00
C786   C     0.52431   0.95228   0.78819   0.00000  Uiso   1.00
C787   C     0.49670   0.52446   0.75285   0.00000  Uiso   1.00
C788   C     0.49692   0.97607   0.74989   0.00000  Uiso   1.00
Cu789  Cu    0.50000   0.74999   0.79822   0.00000  Uiso   1.00
Cu790  Cu    0.50000   0.75000   0.70179   0.00000  Uiso   1.00
H791   H     0.65953   0.75051   0.69368   0.00000  Uiso   1.00
H792   H     0.34061   0.74977   0.80631   0.00000  Uiso   1.00
H793   H     0.56446   0.61107   0.71529   0.00000  Uiso   1.00
H794   H     0.54563   0.88865   0.81781   0.00000  Uiso   1.00
H795   H     0.56490   0.53018   0.71731   0.00000  Uiso   1.00
H796   H     0.54554   0.96940   0.81883   0.00000  Uiso   1.00
H797   H     0.58053   0.76095   0.63534   0.00000  Uiso   1.00
H798   H     0.46405   0.68720   0.86999   0.00000  Uiso   1.00
H799   H     0.41926   0.73955   0.61202   0.00000  Uiso   1.00
H800   H     0.53601   0.81291   0.88115   0.00000  Uiso   1.00
H801   H     0.41955   0.73969   0.52377   0.00000  Uiso   1.00
H802   H     0.53561   0.81300   0.96971   0.00000  Uiso   1.00
N803   N     0.50000   0.75001   0.62935   0.00000  Uiso   1.00
N804   N     0.50000   0.74999   0.87066   0.00000  Uiso   1.00
O805   O     0.50000   0.68572   0.79072   0.00000  Uiso   1.00
O806   O     0.50000   0.81428   0.70929   0.00000  Uiso   1.00
O807   O     0.50000   0.68573   0.70928   0.00000  Uiso   1.00
O808   O     0.50000   0.81427   0.79072   0.00000  Uiso   1.00
O809   O     0.42495   0.75000   0.78132   0.00000  Uiso   1.00
O810   O     0.57505   0.75000   0.71868   0.00000  Uiso   1.00
O811   O     0.42495   0.75000   0.69989   0.00000  Uiso   1.00
O812   O     0.57505   0.75000   0.80012   0.00000  Uiso   1.00
C813   C     0.41452   0.52156   0.79037   0.00000  Uiso   1.00
O814   O     0.36952   0.53156   0.77717   0.00000  Uiso   1.00
O815   O     0.42607   0.98579   0.82223   0.00000  Uiso   1.00
H816   H     0.39403   0.97088   0.83167   0.00000  Uiso   1.00
C817   C     0.44125   0.98000   0.66921   0.00000  Uiso   1.00
O818   O     0.40175   0.99943   0.67516   0.00000  Uiso   1.00
O819   O     0.46024   0.98267   0.62460   0.00000  Uiso   1.00
H820   H     0.43773   0.50152   0.59990   0.00000  Uiso   1.00
C821   C     0.41513   0.61891   0.79045   0.00000  Uiso   1.00
O822   O     0.39299   0.64913   0.76668   0.00000  Uiso   1.00
O823   O     0.40103   0.60745   0.83574   0.00000  Uiso   1.00
H824   H     0.37193   0.62644   0.84463   0.00000  Uiso   1.00
C825   C     0.43546   0.88331   0.66993   0.00000  Uiso   1.00
O826   O     0.43923   0.89105   0.62725   0.00000  Uiso   1.00
O827   O     0.39995   0.85173   0.68205   0.00000  Uiso   1.00
H828   H     0.37990   0.83735   0.65237   0.00000  Uiso   1.00
C829   C     0.60002   0.75731   0.54409   0.00000  Uiso   1.00
O830   O     0.60840   0.73926   0.50669   0.00000  Uiso   1.00
O831   O     0.64000   0.77973   0.57267   0.00000  Uiso   1.00
H832   H     0.34013   0.77941   0.55807   0.00000  Uiso   1.00
C833   C     0.46257   0.67008   0.96461   0.00000  Uiso   1.00
O834   O     0.48090   0.65774   0.50536   0.00000  Uiso   1.00
O835   O     0.42515   0.64413   0.93711   0.00000  Uiso   1.00
H836   H     0.41613   0.61638   0.95504   0.00000  Uiso   1.00
C837   C     0.83227   0.66505   0.75007   0.00000  Uiso   1.00
C838   C     0.83205   0.83508   0.74959   0.00000  Uiso   1.00
C839   C     0.88153   0.75439   0.56031   0.00000  Uiso   1.00
C840   C     0.81421   0.71170   0.94351   0.00000  Uiso   1.00
C841   C     0.87876   0.75594   0.61084   0.00000  Uiso   1.00
C842   C     0.81321   0.71441   0.89242   0.00000  Uiso   1.00
C843   C     0.78884   0.74414   0.59810   0.00000  Uiso   1.00
C844   C     0.85332   0.78473   0.89827   0.00000  Uiso   1.00
C845   C     0.78904   0.74390   0.54742   0.00000  Uiso   1.00
C846   C     0.85347   0.78458   0.94896   0.00000  Uiso   1.00
C847   C     0.83545   0.74848   0.52744   0.00000  Uiso   1.00
C848   C     0.83449   0.74784   0.97276   0.00000  Uiso   1.00
C849   C     0.73459   0.75021   0.73758   0.00000  Uiso   1.00
C850   C     0.93209   0.75002   0.76242   0.00000  Uiso   1.00
C851   C     0.67936   0.75031   0.73071   0.00000  Uiso   1.00
C852   C     0.98735   0.75003   0.76928   0.00000  Uiso   1.00
C853   C     0.79023   0.54709   0.77205   0.00000  Uiso   1.00
C854   C     0.80299   0.95400   0.70967   0.00000  Uiso   1.00
C855   C     0.78994   0.59399   0.77092   0.00000  Uiso   1.00
C856   C     0.80203   0.90720   0.70920   0.00000  Uiso   1.00
C857   C     0.82931   0.61683   0.75031   0.00000  Uiso   1.00
C858   C     0.82985   0.88356   0.74868   0.00000  Uiso   1.00
C859   C     0.86767   0.59357   0.73098   0.00000  Uiso   1.00
C860   C     0.85728   0.90641   0.78770   0.00000  Uiso   1.00
C861   C     0.86825   0.54774   0.73258   0.00000  Uiso   1.00
C862   C     0.85764   0.95228   0.78819   0.00000  Uiso   1.00
C863   C     0.83004   0.52446   0.75285   0.00000  Uiso   1.00
C864   C     0.83026   0.97607   0.74989   0.00000  Uiso   1.00
Cu865  Cu    0.83333   0.74999   0.79822   0.00000  Uiso   1.00
Cu866  Cu    0.83333   0.75000   0.70179   0.00000  Uiso   1.00
H867   H     0.99286   0.75051   0.69368   0.00000  Uiso   1.00
H868   H     0.67394   0.74977   0.80631   0.00000  Uiso   1.00
H869   H     0.89779   0.61107   0.71529   0.00000  Uiso   1.00
H870   H     0.87896   0.88865   0.81781   0.00000  Uiso   1.00
H871   H     0.89823   0.53018   0.71731   0.00000  Uiso   1.00
H872   H     0.87887   0.96940   0.81883   0.00000  Uiso   1.00
H873   H     0.91386   0.76095   0.63534   0.00000  Uiso   1.00
H874   H     0.79739   0.68720   0.86999   0.00000  Uiso   1.00
H875   H     0.75260   0.73955   0.61202   0.00000  Uiso   1.00
H876   H     0.86934   0.81291   0.88115   0.00000  Uiso   1.00
H877   H     0.75289   0.73969   0.52377   0.00000  Uiso   1.00
H878   H     0.86895   0.81300   0.96971   0.00000  Uiso   1.00
N879   N     0.83333   0.75001   0.62935   0.00000  Uiso   1.00
N880   N     0.83333   0.74999   0.87066   0.00000  Uiso   1.00
O881   O     0.83334   0.68572   0.79072   0.00000  Uiso   1.00
O882   O     0.83333   0.81428   0.70929   0.00000  Uiso   1.00
O883   O     0.83334   0.68573   0.70928   0.00000  Uiso   1.00
O884   O     0.83333   0.81427   0.79072   0.00000  Uiso   1.00
O885   O     0.75828   0.75000   0.78132   0.00000  Uiso   1.00
O886   O     0.90839   0.75000   0.71868   0.00000  Uiso   1.00
O887   O     0.75828   0.75000   0.69989   0.00000  Uiso   1.00
O888   O     0.90839   0.75000   0.80012   0.00000  Uiso   1.00
C889   C     0.74785   0.52156   0.79037   0.00000  Uiso   1.00
O890   O     0.70286   0.53156   0.77717   0.00000  Uiso   1.00
O891   O     0.75941   0.98579   0.82223   0.00000  Uiso   1.00
H892   H     0.72737   0.97088   0.83167   0.00000  Uiso   1.00
C893   C     0.77458   0.98000   0.66921   0.00000  Uiso   1.00
O894   O     0.73509   0.99943   0.67516   0.00000  Uiso   1.00
O895   O     0.79357   0.98267   0.62460   0.00000  Uiso   1.00
H896   H     0.77107   0.50152   0.59990   0.00000  Uiso   1.00
C897   C     0.74846   0.61891   0.79045   0.00000  Uiso   1.00
O898   O     0.72632   0.64913   0.76668   0.00000  Uiso   1.00
O899   O     0.73437   0.60745   0.83574   0.00000  Uiso   1.00
H900   H     0.70527   0.62644   0.84463   0.00000  Uiso   1.00
C901   C     0.76879   0.88331   0.66993   0.00000  Uiso   1.00
O902   O     0.77256   0.89105   0.62725   0.00000  Uiso   1.00
O903   O     0.73328   0.85173   0.68205   0.00000  Uiso   1.00
H904   H     0.71323   0.83735   0.65237   0.00000  Uiso   1.00
C905   C     0.93335   0.75731   0.54409   0.00000  Uiso   1.00
O906   O     0.94173   0.73926   0.50669   0.00000  Uiso   1.00
O907   O     0.97333   0.77973   0.57267   0.00000  Uiso   1.00
H908   H     0.67346   0.77941   0.55807   0.00000  Uiso   1.00
C909   C     0.79591   0.67008   0.96461   0.00000  Uiso   1.00
O910   O     0.81424   0.65774   0.50536   0.00000  Uiso   1.00
O911   O     0.75848   0.64413   0.93711   0.00000  Uiso   1.00
H912   H     0.74947   0.61638   0.95504   0.00000  Uiso   1.00
loop_
_geom_bond_atom_site_label_1
_geom_bond_atom_site_label_2
_geom_bond_distance
_geom_bond_site_symmetry_2
_ccdc_geom_bond_type
C1     C21     1.457   .     S
C1     O47     1.292   .     A
C1     O45     1.291   .     A
C2     O46     1.292   .     A
C2     C22     1.465   .     S
C2     O48     1.295   .     A
C3     C69     1.488   .     S
C3     C5      1.415   .     A
C3     C11     1.421   .     A
C4     C12     1.422   .     A
C4     C6      1.417   .     A
C4     C73     1.486   .     S
C5     H37     1.077   .     S
C5     N43     1.368   .     A
C6     H38     1.081   .     S
C6     N44     1.366   .     A
C7     N43     1.366   .     A
C7     C9      1.407   .     A
C7     H39     1.079   .     S
C8     N44     1.364   .     A
C8     C10     1.406   .     A
C8     H40     1.081   .     S
C9     C11     1.408   .     A
C9     H41     1.083   .     S
C10    H42     1.083   .     S
C10    C12     1.408   .     A
C11    C468    1.515   1_554 S
C12    C467    1.515   .     S
C13    O51     1.287   .     A
C13    O49     1.286   .     A
C13    C15     1.432   .     S
C14    O52     1.287   .     A
C14    C16     1.433   .     S
C14    O50     1.286   .     A
C15    C168    1.334   1_455 S
C15    H183    1.086   1_455 S
C16    C91     1.334   .     S
C16    H108    1.087   .     S
C17    C27     1.415   .     A
C17    C53     1.490   .     S
C17    C19     1.416   .     A
C18    C28     1.411   .     A
C18    C57     1.481   .     S
C18    C20     1.413   .     A
C19    C21     1.418   .     A
C19    C61     1.488   .     S
C20    C65     1.488   .     S
C20    C22     1.420   .     A
C21    C23     1.396   .     A
C22    C24     1.400   .     A
C23    H33     1.084   .     S
C23    C25     1.384   .     A
C24    C26     1.385   .     A
C24    H34     1.084   .     S
C25    H35     1.084   .     S
C25    C27     1.396   .     A
C26    H36     1.084   .     S
C26    C28     1.395   .     A
C27    C256    1.464   1_545 S
C28    C255    1.464   .     S
Cu29   O49     1.956   .     S
Cu29   O48     1.950   .     S
Cu29   O45     1.953   .     S
Cu29   Cu30    2.676   .     S
Cu29   N44     2.011   .     S
Cu29   O52     1.957   .     S
Cu30   O51     1.957   .     S
Cu30   O50     1.956   .     S
Cu30   O47     1.950   .     S
Cu30   N43     2.011   .     S
Cu30   O46     1.953   .     S
H31    C91     1.086   .     S
H32    C168    1.087   1_455 S
C53    O54     1.223   .     D
C53    O283    1.398   1_545 S
O55    H56     1.014   .     S
O55    C281    1.398   .     S
C57    O59     1.397   .     S
C57    O58     1.222   .     D
O59    H288    1.014   .     S
H60    O287    1.014   1_545 S
C61    O63     1.398   .     S
C61    O62     1.222   .     D
O63    H64     1.014   .     S
C65    O67     1.398   .     S
C65    O66     1.222   .     D
O67    H68     1.014   .     S
C69    O71     1.399   .     S
C69    O70     1.223   .     D
O71    H148    1.014   .     S
H72    O223    1.014   1_455 S
C73    O75     1.398   .     S
C73    O530    1.223   .     S
O74    C529    1.223   1_554 S
O75    H76     1.014   .     S
C77    C97     1.457   .     S
C77    O123    1.292   .     A
C77    O121    1.291   .     A
C78    O122    1.292   .     A
C78    C98     1.465   .     S
C78    O124    1.295   .     A
C79    C145    1.488   .     S
C79    C81     1.415   .     A
C79    C87     1.421   .     A
C80    C88     1.422   .     A
C80    C82     1.417   .     A
C80    C149    1.486   .     S
C81    H113    1.077   .     S
C81    N119    1.368   .     A
C82    H114    1.081   .     S
C82    N120    1.366   .     A
C83    N119    1.366   .     A
C83    C85     1.407   .     A
C83    H115    1.079   .     S
C84    N120    1.364   .     A
C84    C86     1.406   .     A
C84    H116    1.081   .     S
C85    C87     1.408   .     A
C85    H117    1.083   .     S
C86    H118    1.083   .     S
C86    C88     1.408   .     A
C87    C544    1.515   1_554 S
C88    C543    1.515   .     S
C89    O127    1.287   .     A
C89    O125    1.286   .     A
C89    C91     1.432   .     S
C90    O128    1.287   .     A
C90    C92     1.433   .     S
C90    O126    1.286   .     A
C92    C167    1.334   .     S
C92    H184    1.087   .     S
C93    C103    1.415   .     A
C93    C129    1.490   .     S
C93    C95     1.416   .     A
C94    C104    1.411   .     A
C94    C133    1.481   .     S
C94    C96     1.413   .     A
C95    C97     1.418   .     A
C95    C137    1.488   .     S
C96    C141    1.488   .     S
C96    C98     1.420   .     A
C97    C99     1.396   .     A
C98    C100    1.400   .     A
C99    H109    1.084   .     S
C99    C101    1.384   .     A
C100   C102    1.385   .     A
C100   H110    1.084   .     S
C101   H111    1.084   .     S
C101   C103    1.396   .     A
C102   H112    1.084   .     S
C102   C104    1.395   .     A
C103   C332    1.464   1_545 S
C104   C331    1.464   .     S
Cu105  O125    1.956   .     S
Cu105  O124    1.950   .     S
Cu105  O121    1.953   .     S
Cu105  Cu106   2.676   .     S
Cu105  N120    2.011   .     S
Cu105  O128    1.957   .     S
Cu106  O127    1.957   .     S
Cu106  O126    1.956   .     S
Cu106  O123    1.950   .     S
Cu106  N119    2.011   .     S
Cu106  O122    1.953   .     S
H107   C167    1.086   .     S
C129   O130    1.223   .     D
C129   O359    1.398   1_545 S
O131   H132    1.014   .     S
O131   C357    1.398   .     S
C133   O135    1.397   .     S
C133   O134    1.222   .     D
O135   H364    1.014   .     S
H136   O363    1.014   1_545 S
C137   O139    1.398   .     S
C137   O138    1.222   .     D
O139   H140    1.014   .     S
C141   O143    1.398   .     S
C141   O142    1.222   .     D
O143   H144    1.014   .     S
C145   O147    1.399   .     S
C145   O146    1.223   .     D
O147   H224    1.014   .     S
C149   O151    1.398   .     S
C149   O606    1.223   .     S
O150   C605    1.223   1_554 S
O151   H152    1.014   .     S
C153   C173    1.457   .     S
C153   O199    1.292   .     A
C153   O197    1.291   .     A
C154   O198    1.292   .     A
C154   C174    1.465   .     S
C154   O200    1.295   .     A
C155   C221    1.488   .     S
C155   C157    1.415   .     A
C155   C163    1.421   .     A
C156   C164    1.422   .     A
C156   C158    1.417   .     A
C156   C225    1.486   .     S
C157   H189    1.077   .     S
C157   N195    1.368   .     A
C158   H190    1.081   .     S
C158   N196    1.366   .     A
C159   N195    1.366   .     A
C159   C161    1.407   .     A
C159   H191    1.079   .     S
C160   N196    1.364   .     A
C160   C162    1.406   .     A
C160   H192    1.081   .     S
C161   C163    1.408   .     A
C161   H193    1.083   .     S
C162   H194    1.083   .     S
C162   C164    1.408   .     A
C163   C620    1.515   1_554 S
C164   C619    1.515   .     S
C165   O203    1.287   .     A
C165   O201    1.286   .     A
C165   C167    1.432   .     S
C166   O204    1.287   .     A
C166   C168    1.433   .     S
C166   O202    1.286   .     A
C168   C15     1.334   1_655 S
C168   H32     1.087   1_655 S
C169   C179    1.415   .     A
C169   C205    1.490   .     S
C169   C171    1.416   .     A
C170   C180    1.411   .     A
C170   C209    1.481   .     S
C170   C172    1.413   .     A
C171   C173    1.418   .     A
C171   C213    1.488   .     S
C172   C217    1.488   .     S
C172   C174    1.420   .     A
C173   C175    1.396   .     A
C174   C176    1.400   .     A
C175   H185    1.084   .     S
C175   C177    1.384   .     A
C176   C178    1.385   .     A
C176   H186    1.084   .     S
C177   H187    1.084   .     S
C177   C179    1.396   .     A
C178   H188    1.084   .     S
C178   C180    1.395   .     A
C179   C408    1.464   1_545 S
C180   C407    1.464   .     S
Cu181  O201    1.956   .     S
Cu181  O200    1.950   .     S
Cu181  O197    1.953   .     S
Cu181  Cu182   2.676   .     S
Cu181  N196    2.011   .     S
Cu181  O204    1.957   .     S
Cu182  O203    1.957   .     S
Cu182  O202    1.956   .     S
Cu182  O199    1.950   .     S
Cu182  N195    2.011   .     S
Cu182  O198    1.953   .     S
H183   C15     1.086   1_655 S
C205   O206    1.223   .     D
C205   O435    1.398   1_545 S
O207   H208    1.014   .     S
O207   C433    1.398   .     S
C209   O211    1.397   .     S
C209   O210    1.222   .     D
O211   H440    1.014   .     S
H212   O439    1.014   1_545 S
C213   O215    1.398   .     S
C213   O214    1.222   .     D
O215   H216    1.014   .     S
C217   O219    1.398   .     S
C217   O218    1.222   .     D
O219   H220    1.014   .     S
C221   O223    1.399   .     S
C221   O222    1.223   .     D
O223   H72     1.014   1_655 S
C225   O227    1.398   .     S
C225   O682    1.223   .     S
O226   C681    1.223   1_554 S
O227   H228    1.014   .     S
C229   C249    1.457   .     S
C229   O275    1.292   .     A
C229   O273    1.291   .     A
C230   O274    1.292   .     A
C230   C250    1.465   .     S
C230   O276    1.295   .     A
C231   C297    1.488   .     S
C231   C233    1.415   .     A
C231   C239    1.421   .     A
C232   C240    1.422   .     A
C232   C234    1.417   .     A
C232   C301    1.486   .     S
C233   H265    1.077   .     S
C233   N271    1.368   .     A
C234   H266    1.081   .     S
C234   N272    1.366   .     A
C235   N271    1.366   .     A
C235   C237    1.407   .     A
C235   H267    1.079   .     S
C236   N272    1.364   .     A
C236   C238    1.406   .     A
C236   H268    1.081   .     S
C237   C239    1.408   .     A
C237   H269    1.083   .     S
C238   H270    1.083   .     S
C238   C240    1.408   .     A
C239   C696    1.515   1_554 S
C240   C695    1.515   .     S
C241   O279    1.287   .     A
C241   O277    1.286   .     A
C241   C243    1.432   .     S
C242   O280    1.287   .     A
C242   C244    1.433   .     S
C242   O278    1.286   .     A
C243   C396    1.334   1_455 S
C243   H411    1.086   1_455 S
C244   C319    1.334   .     S
C244   H336    1.087   .     S
C245   C255    1.415   .     A
C245   C281    1.490   .     S
C245   C247    1.416   .     A
C246   C256    1.411   .     A
C246   C285    1.481   .     S
C246   C248    1.413   .     A
C247   C249    1.418   .     A
C247   C289    1.488   .     S
C248   C293    1.488   .     S
C248   C250    1.420   .     A
C249   C251    1.396   .     A
C250   C252    1.400   .     A
C251   H261    1.084   .     S
C251   C253    1.384   .     A
C252   C254    1.385   .     A
C252   H262    1.084   .     S
C253   H263    1.084   .     S
C253   C255    1.396   .     A
C254   H264    1.084   .     S
C254   C256    1.395   .     A
C256   C27     1.464   1_565 S
Cu257  O277    1.956   .     S
Cu257  O276    1.950   .     S
Cu257  O273    1.953   .     S
Cu257  Cu258   2.676   .     S
Cu257  N272    2.011   .     S
Cu257  O280    1.957   .     S
Cu258  O279    1.957   .     S
Cu258  O278    1.956   .     S
Cu258  O275    1.950   .     S
Cu258  N271    2.011   .     S
Cu258  O274    1.953   .     S
H259   C319    1.086   .     S
H260   C396    1.087   1_455 S
C281   O282    1.223   .     D
O283   H284    1.014   .     S
O283   C53     1.398   1_565 S
C285   O287    1.397   .     S
C285   O286    1.222   .     D
O287   H60     1.014   1_565 S
C289   O291    1.398   .     S
C289   O290    1.222   .     D
O291   H292    1.014   .     S
C293   O295    1.398   .     S
C293   O294    1.222   .     D
O295   H296    1.014   .     S
C297   O299    1.399   .     S
C297   O298    1.223   .     D
O299   H376    1.014   .     S
H300   O451    1.014   1_455 S
C301   O303    1.398   .     S
C301   O758    1.223   .     S
O302   C757    1.223   1_554 S
O303   H304    1.014   .     S
C305   C325    1.457   .     S
C305   O351    1.292   .     A
C305   O349    1.291   .     A
C306   O350    1.292   .     A
C306   C326    1.465   .     S
C306   O352    1.295   .     A
C307   C373    1.488   .     S
C307   C309    1.415   .     A
C307   C315    1.421   .     A
C308   C316    1.422   .     A
C308   C310    1.417   .     A
C308   C377    1.486   .     S
C309   H341    1.077   .     S
C309   N347    1.368   .     A
C310   H342    1.081   .     S
C310   N348    1.366   .     A
C311   N347    1.366   .     A
C311   C313    1.407   .     A
C311   H343    1.079   .     S
C312   N348    1.364   .     A
C312   C314    1.406   .     A
C312   H344    1.081   .     S
C313   C315    1.408   .     A
C313   H345    1.083   .     S
C314   H346    1.083   .     S
C314   C316    1.408   .     A
C315   C772    1.515   1_554 S
C316   C771    1.515   .     S
C317   O355    1.287   .     A
C317   O353    1.286   .     A
C317   C319    1.432   .     S
C318   O356    1.287   .     A
C318   C320    1.433   .     S
C318   O354    1.286   .     A
C320   C395    1.334   .     S
C320   H412    1.087   .     S
C321   C331    1.415   .     A
C321   C357    1.490   .     S
C321   C323    1.416   .     A
C322   C332    1.411   .     A
C322   C361    1.481   .     S
C322   C324    1.413   .     A
C323   C325    1.418   .     A
C323   C365    1.488   .     S
C324   C369    1.488   .     S
C324   C326    1.420   .     A
C325   C327    1.396   .     A
C326   C328    1.400   .     A
C327   H337    1.084   .     S
C327   C329    1.384   .     A
C328   C330    1.385   .     A
C328   H338    1.084   .     S
C329   H339    1.084   .     S
C329   C331    1.396   .     A
C330   H340    1.084   .     S
C330   C332    1.395   .     A
C332   C103    1.464   1_565 S
Cu333  O353    1.956   .     S
Cu333  O352    1.950   .     S
Cu333  O349    1.953   .     S
Cu333  Cu334   2.676   .     S
Cu333  N348    2.011   .     S
Cu333  O356    1.957   .     S
Cu334  O355    1.957   .     S
Cu334  O354    1.956   .     S
Cu334  O351    1.950   .     S
Cu334  N347    2.011   .     S
Cu334  O350    1.953   .     S
H335   C395    1.086   .     S
C357   O358    1.223   .     D
O359   H360    1.014   .     S
O359   C129    1.398   1_565 S
C361   O363    1.397   .     S
C361   O362    1.222   .     D
O363   H136    1.014   1_565 S
C365   O367    1.398   .     S
C365   O366    1.222   .     D
O367   H368    1.014   .     S
C369   O371    1.398   .     S
C369   O370    1.222   .     D
O371   H372    1.014   .     S
C373   O375    1.399   .     S
C373   O374    1.223   .     D
O375   H452    1.014   .     S
C377   O379    1.398   .     S
C377   O834    1.223   .     S
O378   C833    1.223   1_554 S
O379   H380    1.014   .     S
C381   C401    1.457   .     S
C381   O427    1.292   .     A
C381   O425    1.291   .     A
C382   O426    1.292   .     A
C382   C402    1.465   .     S
C382   O428    1.295   .     A
C383   C449    1.488   .     S
C383   C385    1.415   .     A
C383   C391    1.421   .     A
C384   C392    1.422   .     A
C384   C386    1.417   .     A
C384   C453    1.486   .     S
C385   H417    1.077   .     S
C385   N423    1.368   .     A
C386   H418    1.081   .     S
C386   N424    1.366   .     A
C387   N423    1.366   .     A
C387   C389    1.407   .     A
C387   H419    1.079   .     S
C388   N424    1.364   .     A
C388   C390    1.406   .     A
C388   H420    1.081   .     S
C389   C391    1.408   .     A
C389   H421    1.083   .     S
C390   H422    1.083   .     S
C390   C392    1.408   .     A
C391   C848    1.515   1_554 S
C392   C847    1.515   .     S
C393   O431    1.287   .     A
C393   O429    1.286   .     A
C393   C395    1.432   .     S
C394   O432    1.287   .     A
C394   C396    1.433   .     S
C394   O430    1.286   .     A
C396   C243    1.334   1_655 S
C396   H260    1.087   1_655 S
C397   C407    1.415   .     A
C397   C433    1.490   .     S
C397   C399    1.416   .     A
C398   C408    1.411   .     A
C398   C437    1.481   .     S
C398   C400    1.413   .     A
C399   C401    1.418   .     A
C399   C441    1.488   .     S
C400   C445    1.488   .     S
C400   C402    1.420   .     A
C401   C403    1.396   .     A
C402   C404    1.400   .     A
C403   H413    1.084   .     S
C403   C405    1.384   .     A
C404   C406    1.385   .     A
C404   H414    1.084   .     S
C405   H415    1.084   .     S
C405   C407    1.396   .     A
C406   H416    1.084   .     S
C406   C408    1.395   .     A
C408   C179    1.464   1_565 S
Cu409  O429    1.956   .     S
Cu409  O428    1.950   .     S
Cu409  O425    1.953   .     S
Cu409  Cu410   2.676   .     S
Cu409  N424    2.011   .     S
Cu409  O432    1.957   .     S
Cu410  O431    1.957   .     S
Cu410  O430    1.956   .     S
Cu410  O427    1.950   .     S
Cu410  N423    2.011   .     S
Cu410  O426    1.953   .     S
H411   C243    1.086   1_655 S
C433   O434    1.223   .     D
O435   H436    1.014   .     S
O435   C205    1.398   1_565 S
C437   O439    1.397   .     S
C437   O438    1.222   .     D
O439   H212    1.014   1_565 S
C441   O443    1.398   .     S
C441   O442    1.222   .     D
O443   H444    1.014   .     S
C445   O447    1.398   .     S
C445   O446    1.222   .     D
O447   H448    1.014   .     S
C449   O451    1.399   .     S
C449   O450    1.223   .     D
O451   H300    1.014   1_655 S
C453   O455    1.398   .     S
C453   O910    1.223   .     S
O454   C909    1.223   1_554 S
O455   H456    1.014   .     S
C457   C477    1.457   .     S
C457   O503    1.292   .     A
C457   O501    1.291   .     A
C458   O502    1.292   .     A
C458   C478    1.465   .     S
C458   O504    1.295   .     A
C459   C525    1.488   .     S
C459   C461    1.415   .     A
C459   C467    1.421   .     A
C460   C468    1.422   .     A
C460   C462    1.417   .     A
C460   C529    1.486   .     S
C461   H493    1.077   .     S
C461   N499    1.368   .     A
C462   H494    1.081   .     S
C462   N500    1.366   .     A
C463   N499    1.366   .     A
C463   C465    1.407   .     A
C463   H495    1.079   .     S
C464   N500    1.364   .     A
C464   C466    1.406   .     A
C464   H496    1.081   .     S
C465   C467    1.408   .     A
C465   H497    1.083   .     S
C466   H498    1.083   .     S
C466   C468    1.408   .     A
C468   C11     1.515   1_556 S
C469   O507    1.287   .     A
C469   O505    1.286   .     A
C469   C471    1.432   .     S
C470   O508    1.287   .     A
C470   C472    1.433   .     S
C470   O506    1.286   .     A
C471   C624    1.334   1_455 S
C471   H639    1.086   1_455 S
C472   C547    1.334   .     S
C472   H564    1.087   .     S
C473   C483    1.415   .     A
C473   C509    1.490   .     S
C473   C475    1.416   .     A
C474   C484    1.411   .     A
C474   C513    1.481   .     S
C474   C476    1.413   .     A
C475   C477    1.418   .     A
C475   C517    1.488   .     S
C476   C521    1.488   .     S
C476   C478    1.420   .     A
C477   C479    1.396   .     A
C478   C480    1.400   .     A
C479   H489    1.084   .     S
C479   C481    1.384   .     A
C480   C482    1.385   .     A
C480   H490    1.084   .     S
C481   H491    1.084   .     S
C481   C483    1.396   .     A
C482   H492    1.084   .     S
C482   C484    1.395   .     A
C483   C712    1.464   1_545 S
C484   C711    1.464   .     S
Cu485  O505    1.956   .     S
Cu485  O504    1.950   .     S
Cu485  O501    1.953   .     S
Cu485  Cu486   2.676   .     S
Cu485  N500    2.011   .     S
Cu485  O508    1.957   .     S
Cu486  O507    1.957   .     S
Cu486  O506    1.956   .     S
Cu486  O503    1.950   .     S
Cu486  N499    2.011   .     S
Cu486  O502    1.953   .     S
H487   C547    1.086   .     S
H488   C624    1.087   1_455 S
C509   O510    1.223   .     D
C509   O739    1.398   1_545 S
O511   H512    1.014   .     S
O511   C737    1.398   .     S
C513   O515    1.397   .     S
C513   O514    1.222   .     D
O515   H744    1.014   .     S
H516   O743    1.014   1_545 S
C517   O519    1.398   .     S
C517   O518    1.222   .     D
O519   H520    1.014   .     S
C521   O523    1.398   .     S
C521   O522    1.222   .     D
O523   H524    1.014   .     S
C525   O527    1.399   .     S
C525   O526    1.223   .     D
O527   H604    1.014   .     S
H528   O679    1.014   1_455 S
C529   O531    1.398   .     S
C529   O74     1.223   1_556 S
O531   H532    1.014   .     S
C533   C553    1.457   .     S
C533   O579    1.292   .     A
C533   O577    1.291   .     A
C534   O578    1.292   .     A
C534   C554    1.465   .     S
C534   O580    1.295   .     A
C535   C601    1.488   .     S
C535   C537    1.415   .     A
C535   C543    1.421   .     A
C536   C544    1.422   .     A
C536   C538    1.417   .     A
C536   C605    1.486   .     S
C537   H569    1.077   .     S
C537   N575    1.368   .     A
C538   H570    1.081   .     S
C538   N576    1.366   .     A
C539   N575    1.366   .     A
C539   C541    1.407   .     A
C539   H571    1.079   .     S
C540   N576    1.364   .     A
C540   C542    1.406   .     A
C540   H572    1.081   .     S
C541   C543    1.408   .     A
C541   H573    1.083   .     S
C542   H574    1.083   .     S
C542   C544    1.408   .     A
C544   C87     1.515   1_556 S
C545   O583    1.287   .     A
C545   O581    1.286   .     A
C545   C547    1.432   .     S
C546   O584    1.287   .     A
C546   C548    1.433   .     S
C546   O582    1.286   .     A
C548   C623    1.334   .     S
C548   H640    1.087   .     S
C549   C559    1.415   .     A
C549   C585    1.490   .     S
C549   C551    1.416   .     A
C550   C560    1.411   .     A
C550   C589    1.481   .     S
C550   C552    1.413   .     A
C551   C553    1.418   .     A
C551   C593    1.488   .     S
C552   C597    1.488   .     S
C552   C554    1.420   .     A
C553   C555    1.396   .     A
C554   C556    1.400   .     A
C555   H565    1.084   .     S
C555   C557    1.384   .     A
C556   C558    1.385   .     A
C556   H566    1.084   .     S
C557   H567    1.084   .     S
C557   C559    1.396   .     A
C558   H568    1.084   .     S
C558   C560    1.395   .     A
C559   C788    1.464   1_545 S
C560   C787    1.464   .     S
Cu561  O581    1.956   .     S
Cu561  O580    1.950   .     S
Cu561  O577    1.953   .     S
Cu561  Cu562   2.676   .     S
Cu561  N576    2.011   .     S
Cu561  O584    1.957   .     S
Cu562  O583    1.957   .     S
Cu562  O582    1.956   .     S
Cu562  O579    1.950   .     S
Cu562  N575    2.011   .     S
Cu562  O578    1.953   .     S
H563   C623    1.086   .     S
C585   O586    1.223   .     D
C585   O815    1.398   1_545 S
O587   H588    1.014   .     S
O587   C813    1.398   .     S
C589   O591    1.397   .     S
C589   O590    1.222   .     D
O591   H820    1.014   .     S
H592   O819    1.014   1_545 S
C593   O595    1.398   .     S
C593   O594    1.222   .     D
O595   H596    1.014   .     S
C597   O599    1.398   .     S
C597   O598    1.222   .     D
O599   H600    1.014   .     S
C601   O603    1.399   .     S
C601   O602    1.223   .     D
O603   H680    1.014   .     S
C605   O607    1.398   .     S
C605   O150    1.223   1_556 S
O607   H608    1.014   .     S
C609   C629    1.457   .     S
C609   O655    1.292   .     A
C609   O653    1.291   .     A
C610   O654    1.292   .     A
C610   C630    1.465   .     S
C610   O656    1.295   .     A
C611   C677    1.488   .     S
C611   C613    1.415   .     A
C611   C619    1.421   .     A
C612   C620    1.422   .     A
C612   C614    1.417   .     A
C612   C681    1.486   .     S
C613   H645    1.077   .     S
C613   N651    1.368   .     A
C614   H646    1.081   .     S
C614   N652    1.366   .     A
C615   N651    1.366   .     A
C615   C617    1.407   .     A
C615   H647    1.079   .     S
C616   N652    1.364   .     A
C616   C618    1.406   .     A
C616   H648    1.081   .     S
C617   C619    1.408   .     A
C617   H649    1.083   .     S
C618   H650    1.083   .     S
C618   C620    1.408   .     A
C620   C163    1.515   1_556 S
C621   O659    1.287   .     A
C621   O657    1.286   .     A
C621   C623    1.432   .     S
C622   O660    1.287   .     A
C622   C624    1.433   .     S
C622   O658    1.286   .     A
C624   C471    1.334   1_655 S
C624   H488    1.087   1_655 S
C625   C635    1.415   .     A
C625   C661    1.490   .     S
C625   C627    1.416   .     A
C626   C636    1.411   .     A
C626   C665    1.481   .     S
C626   C628    1.413   .     A
C627   C629    1.418   .     A
C627   C669    1.488   .     S
C628   C673    1.488   .     S
C628   C630    1.420   .     A
C629   C631    1.396   .     A
C630   C632    1.400   .     A
C631   H641    1.084   .     S
C631   C633    1.384   .     A
C632   C634    1.385   .     A
C632   H642    1.084   .     S
C633   H643    1.084   .     S
C633   C635    1.396   .     A
C634   H644    1.084   .     S
C634   C636    1.395   .     A
C635   C864    1.464   1_545 S
C636   C863    1.464   .     S
Cu637  O657    1.956   .     S
Cu637  O656    1.950   .     S
Cu637  O653    1.953   .     S
Cu637  Cu638   2.676   .     S
Cu637  N652    2.011   .     S
Cu637  O660    1.957   .     S
Cu638  O659    1.957   .     S
Cu638  O658    1.956   .     S
Cu638  O655    1.950   .     S
Cu638  N651    2.011   .     S
Cu638  O654    1.953   .     S
H639   C471    1.086   1_655 S
C661   O662    1.223   .     D
C661   O891    1.398   1_545 S
O663   H664    1.014   .     S
O663   C889    1.398   .     S
C665   O667    1.397   .     S
C665   O666    1.222   .     D
O667   H896    1.014   .     S
H668   O895    1.014   1_545 S
C669   O671    1.398   .     S
C669   O670    1.222   .     D
O671   H672    1.014   .     S
C673   O675    1.398   .     S
C673   O674    1.222   .     D
O675   H676    1.014   .     S
C677   O679    1.399   .     S
C677   O678    1.223   .     D
O679   H528    1.014   1_655 S
C681   O683    1.398   .     S
C681   O226    1.223   1_556 S
O683   H684    1.014   .     S
C685   C705    1.457   .     S
C685   O731    1.292   .     A
C685   O729    1.291   .     A
C686   O730    1.292   .     A
C686   C706    1.465   .     S
C686   O732    1.295   .     A
C687   C753    1.488   .     S
C687   C689    1.415   .     A
C687   C695    1.421   .     A
C688   C696    1.422   .     A
C688   C690    1.417   .     A
C688   C757    1.486   .     S
C689   H721    1.077   .     S
C689   N727    1.368   .     A
C690   H722    1.081   .     S
C690   N728    1.366   .     A
C691   N727    1.366   .     A
C691   C693    1.407   .     A
C691   H723    1.079   .     S
C692   N728    1.364   .     A
C692   C694    1.406   .     A
C692   H724    1.081   .     S
C693   C695    1.408   .     A
C693   H725    1.083   .     S
C694   H726    1.083   .     S
C694   C696    1.408   .     A
C696   C239    1.515   1_556 S
C697   O735    1.287   .     A
C697   O733    1.286   .     A
C697   C699    1.432   .     S
C698   O736    1.287   .     A
C698   C700    1.433   .     S
C698   O734    1.286   .     A
C699   C852    1.334   1_455 S
C699   H867    1.086   1_455 S
C700   C775    1.334   .     S
C700   H792    1.087   .     S
C701   C711    1.415   .     A
C701   C737    1.490   .     S
C701   C703    1.416   .     A
C702   C712    1.411   .     A
C702   C741    1.481   .     S
C702   C704    1.413   .     A
C703   C705    1.418   .     A
C703   C745    1.488   .     S
C704   C749    1.488   .     S
C704   C706    1.420   .     A
C705   C707    1.396   .     A
C706   C708    1.400   .     A
C707   H717    1.084   .     S
C707   C709    1.384   .     A
C708   C710    1.385   .     A
C708   H718    1.084   .     S
C709   H719    1.084   .     S
C709   C711    1.396   .     A
C710   H720    1.084   .     S
C710   C712    1.395   .     A
C712   C483    1.464   1_565 S
Cu713  O733    1.956   .     S
Cu713  O732    1.950   .     S
Cu713  O729    1.953   .     S
Cu713  Cu714   2.676   .     S
Cu713  N728    2.011   .     S
Cu713  O736    1.957   .     S
Cu714  O735    1.957   .     S
Cu714  O734    1.956   .     S
Cu714  O731    1.950   .     S
Cu714  N727    2.011   .     S
Cu714  O730    1.953   .     S
H715   C775    1.086   .     S
H716   C852    1.087   1_455 S
C737   O738    1.223   .     D
O739   H740    1.014   .     S
O739   C509    1.398   1_565 S
C741   O743    1.397   .     S
C741   O742    1.222   .     D
O743   H516    1.014   1_565 S
C745   O747    1.398   .     S
C745   O746    1.222   .     D
O747   H748    1.014   .     S
C749   O751    1.398   .     S
C749   O750    1.222   .     D
O751   H752    1.014   .     S
C753   O755    1.399   .     S
C753   O754    1.223   .     D
O755   H832    1.014   .     S
H756   O907    1.014   1_455 S
C757   O759    1.398   .     S
C757   O302    1.223   1_556 S
O759   H760    1.014   .     S
C761   C781    1.457   .     S
C761   O807    1.292   .     A
C761   O805    1.291   .     A
C762   O806    1.292   .     A
C762   C782    1.465   .     S
C762   O808    1.295   .     A
C763   C829    1.488   .     S
C763   C765    1.415   .     A
C763   C771    1.421   .     A
C764   C772    1.422   .     A
C764   C766    1.417   .     A
C764   C833    1.486   .     S
C765   H797    1.077   .     S
C765   N803    1.368   .     A
C766   H798    1.081   .     S
C766   N804    1.366   .     A
C767   N803    1.366   .     A
C767   C769    1.407   .     A
C767   H799    1.079   .     S
C768   N804    1.364   .     A
C768   C770    1.406   .     A
C768   H800    1.081   .     S
C769   C771    1.408   .     A
C769   H801    1.083   .     S
C770   H802    1.083   .     S
C770   C772    1.408   .     A
C772   C315    1.515   1_556 S
C773   O811    1.287   .     A
C773   O809    1.286   .     A
C773   C775    1.432   .     S
C774   O812    1.287   .     A
C774   C776    1.433   .     S
C774   O810    1.286   .     A
C776   C851    1.334   .     S
C776   H868    1.087   .     S
C777   C787    1.415   .     A
C777   C813    1.490   .     S
C777   C779    1.416   .     A
C778   C788    1.411   .     A
C778   C817    1.481   .     S
C778   C780    1.413   .     A
C779   C781    1.418   .     A
C779   C821    1.488   .     S
C780   C825    1.488   .     S
C780   C782    1.420   .     A
C781   C783    1.396   .     A
C782   C784    1.400   .     A
C783   H793    1.084   .     S
C783   C785    1.384   .     A
C784   C786    1.385   .     A
C784   H794    1.084   .     S
C785   H795    1.084   .     S
C785   C787    1.396   .     A
C786   H796    1.084   .     S
C786   C788    1.395   .     A
C788   C559    1.464   1_565 S
Cu789  O809    1.956   .     S
Cu789  O808    1.950   .     S
Cu789  O805    1.953   .     S
Cu789  Cu790   2.676   .     S
Cu789  N804    2.011   .     S
Cu789  O812    1.957   .     S
Cu790  O811    1.957   .     S
Cu790  O810    1.956   .     S
Cu790  O807    1.950   .     S
Cu790  N803    2.011   .     S
Cu790  O806    1.953   .     S
H791   C851    1.086   .     S
C813   O814    1.223   .     D
O815   H816    1.014   .     S
O815   C585    1.398   1_565 S
C817   O819    1.397   .     S
C817   O818    1.222   .     D
O819   H592    1.014   1_565 S
C821   O823    1.398   .     S
C821   O822    1.222   .     D
O823   H824    1.014   .     S
C825   O827    1.398   .     S
C825   O826    1.222   .     D
O827   H828    1.014   .     S
C829   O831    1.399   .     S
C829   O830    1.223   .     D
O831   H908    1.014   .     S
C833   O835    1.398   .     S
C833   O378    1.223   1_556 S
O835   H836    1.014   .     S
C837   C857    1.457   .     S
C837   O883    1.292   .     A
C837   O881    1.291   .     A
C838   O882    1.292   .     A
C838   C858    1.465   .     S
C838   O884    1.295   .     A
C839   C905    1.488   .     S
C839   C841    1.415   .     A
C839   C847    1.421   .     A
C840   C848    1.422   .     A
C840   C842    1.417   .     A
C840   C909    1.486   .     S
C841   H873    1.077   .     S
C841   N879    1.368   .     A
C842   H874    1.081   .     S
C842   N880    1.366   .     A
C843   N879    1.366   .     A
C843   C845    1.407   .     A
C843   H875    1.079   .     S
C844   N880    1.364   .     A
C844   C846    1.406   .     A
C844   H876    1.081   .     S
C845   C847    1.408   .     A
C845   H877    1.083   .     S
C846   H878    1.083   .     S
C846   C848    1.408   .     A
C848   C391    1.515   1_556 S
C849   O887    1.287   .     A
C849   O885    1.286   .     A
C849   C851    1.432   .     S
C850   O888    1.287   .     A
C850   C852    1.433   .     S
C850   O886    1.286   .     A
C852   C699    1.334   1_655 S
C852   H716    1.087   1_655 S
C853   C863    1.415   .     A
C853   C889    1.490   .     S
C853   C855    1.416   .     A
C854   C864    1.411   .     A
C854   C893    1.481   .     S
C854   C856    1.413   .     A
C855   C857    1.418   .     A
C855   C897    1.488   .     S
C856   C901    1.488   .     S
C856   C858    1.420   .     A
C857   C859    1.396   .     A
C858   C860    1.400   .     A
C859   H869    1.084   .     S
C859   C861    1.384   .     A
C860   C862    1.385   .     A
C860   H870    1.084   .     S
C861   H871    1.084   .     S
C861   C863    1.396   .     A
C862   H872    1.084   .     S
C862   C864    1.395   .     A
C864   C635    1.464   1_565 S
Cu865  O885    1.956   .     S
Cu865  O884    1.950   .     S
Cu865  O881    1.953   .     S
Cu865  Cu866   2.676   .     S
Cu865  N880    2.011   .     S
Cu865  O888    1.957   .     S
Cu866  O887    1.957   .     S
Cu866  O886    1.956   .     S
Cu866  O883    1.950   .     S
Cu866  N879    2.011   .     S
Cu866  O882    1.953   .     S
H867   C699    1.086   1_655 S
C889   O890    1.223   .     D
O891   H892    1.014   .     S
O891   C661    1.398   1_565 S
C893   O895    1.397   .     S
C893   O894    1.222   .     D
O895   H668    1.014   1_565 S
C897   O899    1.398   .     S
C897   O898    1.222   .     D
O899   H900    1.014   .     S
C901   O903    1.398   .     S
C901   O902    1.222   .     D
O903   H904    1.014   .     S
C905   O907    1.399   .     S
C905   O906    1.223   .     D
O907   H756    1.014   1_655 S
C909   O911    1.398   .     S
C909   O454    1.223   1_556 S
O911   H912    1.014   .     S
