data_str_m2_o2_o10_pcu_sym.56
_audit_creation_date              2020-01-03
_audit_creation_method            'Materials Studio'
_symmetry_space_group_name_H-M    'P1'
_symmetry_Int_Tables_number       1
_symmetry_cell_setting            triclinic
loop_
_symmetry_equiv_pos_as_xyz
  x,y,z
_cell_length_a                    26.2011
_cell_length_b                    30.1880
_cell_length_c                    27.7402
_cell_angle_alpha                 90.1396
_cell_angle_beta                  97.9350
_cell_angle_gamma                 90.1299
loop_
_atom_site_label
_atom_site_type_symbol
_atom_site_fract_x
_atom_site_fract_y
_atom_site_fract_z
_atom_site_U_iso_or_equiv
_atom_site_adp_type
_atom_site_occupancy
C1     C     0.16681   0.16495   0.24994   0.00000  Uiso   1.00
C2     C     0.20625   0.27083   0.45124   0.00000  Uiso   1.00
C3     C     0.16671   0.24999   0.02734   0.00000  Uiso   1.00
C4     C     0.16669   0.25000   0.47266   0.00000  Uiso   1.00
C5     C     0.06790   0.24998   0.23756   0.00000  Uiso   1.00
C6     C     0.26544   0.25001   0.26245   0.00000  Uiso   1.00
C7     C     0.01263   0.24999   0.23070   0.00000  Uiso   1.00
C8     C     0.32070   0.24998   0.26932   0.00000  Uiso   1.00
C9     C     0.14272   0.04704   0.28198   0.00000  Uiso   1.00
C10    C     0.14353   0.45287   0.21138   0.00000  Uiso   1.00
C11    C     0.14206   0.09303   0.28242   0.00000  Uiso   1.00
C12    C     0.16687   0.33505   0.25010   0.00000  Uiso   1.00
C13    C     0.14291   0.40687   0.21077   0.00000  Uiso   1.00
C14    C     0.16782   0.11672   0.24981   0.00000  Uiso   1.00
C15    C     0.16791   0.38331   0.25048   0.00000  Uiso   1.00
C16    C     0.19497   0.09422   0.21720   0.00000  Uiso   1.00
C17    C     0.19431   0.40596   0.29054   0.00000  Uiso   1.00
C18    C     0.19715   0.04793   0.21736   0.00000  Uiso   1.00
C19    C     0.19643   0.45226   0.29099   0.00000  Uiso   1.00
C20    C     0.17038   0.02429   0.24996   0.00000  Uiso   1.00
C21    C     0.17040   0.47576   0.25102   0.00000  Uiso   1.00
C22    C     0.22899   0.02453   0.18386   0.00000  Uiso   1.00
C23    C     0.19063   0.28416   0.05718   0.00000  Uiso   1.00
C24    C     0.22742   0.47583   0.33328   0.00000  Uiso   1.00
C25    C     0.12711   0.22917   0.44083   0.00000  Uiso   1.00
C26    C     0.19050   0.28336   0.10788   0.00000  Uiso   1.00
C27    C     0.12805   0.22927   0.39023   0.00000  Uiso   1.00
C28    C     0.14291   0.21663   0.10150   0.00000  Uiso   1.00
C29    C     0.20529   0.27072   0.40039   0.00000  Uiso   1.00
C30    C     0.14280   0.21581   0.05076   0.00000  Uiso   1.00
Cu31   Cu    0.16667   0.24999   0.29822   0.00000  Uiso   1.00
Cu32   Cu    0.16667   0.25000   0.20179   0.00000  Uiso   1.00
H33    H     0.32599   0.25002   0.19364   0.00000  Uiso   1.00
H34    H     0.23581   0.28720   0.38477   0.00000  Uiso   1.00
H35    H     0.12459   0.18810   0.03035   0.00000  Uiso   1.00
H36    H     0.23834   0.28671   0.47342   0.00000  Uiso   1.00
H37    H     0.12173   0.02904   0.30673   0.00000  Uiso   1.00
H38    H     0.12312   0.47076   0.18084   0.00000  Uiso   1.00
H39    H     0.25780   0.00290   0.20541   0.00000  Uiso   1.00
H40    H     0.20380   0.00410   0.15704   0.00000  Uiso   1.00
H41    H     0.25009   0.04835   0.16334   0.00000  Uiso   1.00
H42    H     0.25657   0.49763   0.31984   0.00000  Uiso   1.00
H43    H     0.20169   0.49611   0.35298   0.00000  Uiso   1.00
H44    H     0.00734   0.24995   0.30638   0.00000  Uiso   1.00
H45    H     0.24805   0.45213   0.35963   0.00000  Uiso   1.00
H46    H     0.20887   0.31186   0.04166   0.00000  Uiso   1.00
H47    H     0.09503   0.21330   0.45458   0.00000  Uiso   1.00
H48    H     0.12071   0.11010   0.30761   0.00000  Uiso   1.00
H49    H     0.12217   0.38971   0.17970   0.00000  Uiso   1.00
H50    H     0.21532   0.11285   0.19242   0.00000  Uiso   1.00
H51    H     0.21411   0.38744   0.32093   0.00000  Uiso   1.00
H52    H     0.20945   0.30973   0.13002   0.00000  Uiso   1.00
H53    H     0.09751   0.21277   0.36661   0.00000  Uiso   1.00
H54    H     0.12400   0.19024   0.11857   0.00000  Uiso   1.00
N55    N     0.16667   0.25001   0.12935   0.00000  Uiso   1.00
N56    N     0.16667   0.24999   0.37066   0.00000  Uiso   1.00
O57    O     0.16667   0.18572   0.29072   0.00000  Uiso   1.00
O58    O     0.16666   0.31427   0.20929   0.00000  Uiso   1.00
O59    O     0.16667   0.18573   0.20928   0.00000  Uiso   1.00
O60    O     0.16666   0.31427   0.29072   0.00000  Uiso   1.00
O61    O     0.09161   0.24999   0.28132   0.00000  Uiso   1.00
O62    O     0.24172   0.25000   0.21868   0.00000  Uiso   1.00
O63    O     0.09161   0.25000   0.19989   0.00000  Uiso   1.00
O64    O     0.24172   0.25000   0.30012   0.00000  Uiso   1.00
C65    C     0.50014   0.16495   0.24994   0.00000  Uiso   1.00
C66    C     0.53958   0.27083   0.45124   0.00000  Uiso   1.00
C67    C     0.50004   0.24999   0.02734   0.00000  Uiso   1.00
C68    C     0.50003   0.25000   0.47266   0.00000  Uiso   1.00
C69    C     0.40123   0.24998   0.23756   0.00000  Uiso   1.00
C70    C     0.59877   0.25001   0.26245   0.00000  Uiso   1.00
C71    C     0.34597   0.24999   0.23070   0.00000  Uiso   1.00
C72    C     0.65404   0.24998   0.26932   0.00000  Uiso   1.00
C73    C     0.47605   0.04704   0.28198   0.00000  Uiso   1.00
C74    C     0.47687   0.45287   0.21138   0.00000  Uiso   1.00
C75    C     0.47539   0.09303   0.28242   0.00000  Uiso   1.00
C76    C     0.50020   0.33505   0.25010   0.00000  Uiso   1.00
C77    C     0.47624   0.40687   0.21077   0.00000  Uiso   1.00
C78    C     0.50115   0.11672   0.24981   0.00000  Uiso   1.00
C79    C     0.50124   0.38331   0.25048   0.00000  Uiso   1.00
C80    C     0.52830   0.09422   0.21720   0.00000  Uiso   1.00
C81    C     0.52764   0.40596   0.29054   0.00000  Uiso   1.00
C82    C     0.53048   0.04793   0.21736   0.00000  Uiso   1.00
C83    C     0.52976   0.45226   0.29099   0.00000  Uiso   1.00
C84    C     0.50371   0.02429   0.24996   0.00000  Uiso   1.00
C85    C     0.50373   0.47576   0.25102   0.00000  Uiso   1.00
C86    C     0.56233   0.02453   0.18386   0.00000  Uiso   1.00
C87    C     0.52397   0.28416   0.05718   0.00000  Uiso   1.00
C88    C     0.56075   0.47583   0.33328   0.00000  Uiso   1.00
C89    C     0.46045   0.22917   0.44083   0.00000  Uiso   1.00
C90    C     0.52383   0.28336   0.10788   0.00000  Uiso   1.00
C91    C     0.46138   0.22927   0.39023   0.00000  Uiso   1.00
C92    C     0.47624   0.21663   0.10150   0.00000  Uiso   1.00
C93    C     0.53862   0.27072   0.40039   0.00000  Uiso   1.00
C94    C     0.47613   0.21581   0.05076   0.00000  Uiso   1.00
Cu95   Cu    0.50000   0.24999   0.29822   0.00000  Uiso   1.00
Cu96   Cu    0.50000   0.25000   0.20179   0.00000  Uiso   1.00
H97    H     0.65932   0.25002   0.19364   0.00000  Uiso   1.00
H98    H     0.56915   0.28720   0.38477   0.00000  Uiso   1.00
H99    H     0.45792   0.18810   0.03035   0.00000  Uiso   1.00
H100   H     0.57167   0.28671   0.47342   0.00000  Uiso   1.00
H101   H     0.45506   0.02904   0.30673   0.00000  Uiso   1.00
H102   H     0.45645   0.47076   0.18084   0.00000  Uiso   1.00
H103   H     0.59114   0.00290   0.20541   0.00000  Uiso   1.00
H104   H     0.53713   0.00410   0.15704   0.00000  Uiso   1.00
H105   H     0.58343   0.04835   0.16334   0.00000  Uiso   1.00
H106   H     0.58991   0.49763   0.31984   0.00000  Uiso   1.00
H107   H     0.53503   0.49611   0.35298   0.00000  Uiso   1.00
H108   H     0.34068   0.24995   0.30638   0.00000  Uiso   1.00
H109   H     0.58138   0.45213   0.35963   0.00000  Uiso   1.00
H110   H     0.54221   0.31186   0.04166   0.00000  Uiso   1.00
H111   H     0.42836   0.21330   0.45458   0.00000  Uiso   1.00
H112   H     0.45405   0.11010   0.30761   0.00000  Uiso   1.00
H113   H     0.45550   0.38971   0.17970   0.00000  Uiso   1.00
H114   H     0.54866   0.11285   0.19242   0.00000  Uiso   1.00
H115   H     0.54745   0.38744   0.32093   0.00000  Uiso   1.00
H116   H     0.54278   0.30973   0.13002   0.00000  Uiso   1.00
H117   H     0.43084   0.21277   0.36661   0.00000  Uiso   1.00
H118   H     0.45734   0.19024   0.11857   0.00000  Uiso   1.00
N119   N     0.50000   0.25001   0.12935   0.00000  Uiso   1.00
N120   N     0.50000   0.24999   0.37066   0.00000  Uiso   1.00
O121   O     0.50000   0.18572   0.29072   0.00000  Uiso   1.00
O122   O     0.50000   0.31427   0.20929   0.00000  Uiso   1.00
O123   O     0.50000   0.18573   0.20928   0.00000  Uiso   1.00
O124   O     0.50000   0.31427   0.29072   0.00000  Uiso   1.00
O125   O     0.42495   0.24999   0.28132   0.00000  Uiso   1.00
O126   O     0.57505   0.25000   0.21868   0.00000  Uiso   1.00
O127   O     0.42495   0.25000   0.19989   0.00000  Uiso   1.00
O128   O     0.57505   0.25000   0.30012   0.00000  Uiso   1.00
C129   C     0.83347   0.16495   0.24994   0.00000  Uiso   1.00
C130   C     0.87292   0.27083   0.45124   0.00000  Uiso   1.00
C131   C     0.83338   0.24999   0.02734   0.00000  Uiso   1.00
C132   C     0.83336   0.25000   0.47266   0.00000  Uiso   1.00
C133   C     0.73456   0.24998   0.23756   0.00000  Uiso   1.00
C134   C     0.93210   0.25001   0.26245   0.00000  Uiso   1.00
C135   C     0.67930   0.24999   0.23070   0.00000  Uiso   1.00
C136   C     0.98737   0.24998   0.26932   0.00000  Uiso   1.00
C137   C     0.80939   0.04704   0.28198   0.00000  Uiso   1.00
C138   C     0.81020   0.45287   0.21138   0.00000  Uiso   1.00
C139   C     0.80872   0.09303   0.28242   0.00000  Uiso   1.00
C140   C     0.83354   0.33505   0.25010   0.00000  Uiso   1.00
C141   C     0.80957   0.40687   0.21077   0.00000  Uiso   1.00
C142   C     0.83448   0.11672   0.24981   0.00000  Uiso   1.00
C143   C     0.83457   0.38331   0.25048   0.00000  Uiso   1.00
C144   C     0.86163   0.09422   0.21720   0.00000  Uiso   1.00
C145   C     0.86097   0.40596   0.29054   0.00000  Uiso   1.00
C146   C     0.86382   0.04793   0.21736   0.00000  Uiso   1.00
C147   C     0.86310   0.45226   0.29099   0.00000  Uiso   1.00
C148   C     0.83704   0.02429   0.24996   0.00000  Uiso   1.00
C149   C     0.83706   0.47576   0.25102   0.00000  Uiso   1.00
C150   C     0.89566   0.02453   0.18386   0.00000  Uiso   1.00
C151   C     0.85730   0.28416   0.05718   0.00000  Uiso   1.00
C152   C     0.89409   0.47583   0.33328   0.00000  Uiso   1.00
C153   C     0.79378   0.22917   0.44083   0.00000  Uiso   1.00
C154   C     0.85716   0.28336   0.10788   0.00000  Uiso   1.00
C155   C     0.79471   0.22927   0.39023   0.00000  Uiso   1.00
C156   C     0.80957   0.21663   0.10150   0.00000  Uiso   1.00
C157   C     0.87196   0.27072   0.40039   0.00000  Uiso   1.00
C158   C     0.80947   0.21581   0.05076   0.00000  Uiso   1.00
Cu159  Cu    0.83333   0.24999   0.29822   0.00000  Uiso   1.00
Cu160  Cu    0.83333   0.25000   0.20179   0.00000  Uiso   1.00
H161   H     0.99265   0.25002   0.19364   0.00000  Uiso   1.00
H162   H     0.90248   0.28720   0.38477   0.00000  Uiso   1.00
H163   H     0.79126   0.18810   0.03035   0.00000  Uiso   1.00
H164   H     0.90501   0.28671   0.47342   0.00000  Uiso   1.00
H165   H     0.78840   0.02904   0.30673   0.00000  Uiso   1.00
H166   H     0.78979   0.47076   0.18084   0.00000  Uiso   1.00
H167   H     0.92447   0.00290   0.20541   0.00000  Uiso   1.00
H168   H     0.87047   0.00410   0.15704   0.00000  Uiso   1.00
H169   H     0.91676   0.04835   0.16334   0.00000  Uiso   1.00
H170   H     0.92324   0.49763   0.31984   0.00000  Uiso   1.00
H171   H     0.86836   0.49611   0.35298   0.00000  Uiso   1.00
H172   H     0.67401   0.24995   0.30638   0.00000  Uiso   1.00
H173   H     0.91472   0.45213   0.35963   0.00000  Uiso   1.00
H174   H     0.87554   0.31186   0.04166   0.00000  Uiso   1.00
H175   H     0.76170   0.21330   0.45458   0.00000  Uiso   1.00
H176   H     0.78738   0.11010   0.30761   0.00000  Uiso   1.00
H177   H     0.78883   0.38971   0.17970   0.00000  Uiso   1.00
H178   H     0.88199   0.11285   0.19242   0.00000  Uiso   1.00
H179   H     0.88078   0.38744   0.32093   0.00000  Uiso   1.00
H180   H     0.87611   0.30973   0.13002   0.00000  Uiso   1.00
H181   H     0.76418   0.21277   0.36661   0.00000  Uiso   1.00
H182   H     0.79067   0.19024   0.11857   0.00000  Uiso   1.00
N183   N     0.83333   0.25001   0.12935   0.00000  Uiso   1.00
N184   N     0.83333   0.24999   0.37066   0.00000  Uiso   1.00
O185   O     0.83334   0.18572   0.29072   0.00000  Uiso   1.00
O186   O     0.83333   0.31427   0.20929   0.00000  Uiso   1.00
O187   O     0.83334   0.18573   0.20928   0.00000  Uiso   1.00
O188   O     0.83333   0.31427   0.29072   0.00000  Uiso   1.00
O189   O     0.75828   0.24999   0.28132   0.00000  Uiso   1.00
O190   O     0.90839   0.25000   0.21868   0.00000  Uiso   1.00
O191   O     0.75828   0.25000   0.19989   0.00000  Uiso   1.00
O192   O     0.90839   0.25000   0.30012   0.00000  Uiso   1.00
C193   C     0.16681   0.66495   0.24994   0.00000  Uiso   1.00
C194   C     0.20625   0.77083   0.45124   0.00000  Uiso   1.00
C195   C     0.16671   0.74999   0.02734   0.00000  Uiso   1.00
C196   C     0.16669   0.75000   0.47266   0.00000  Uiso   1.00
C197   C     0.06790   0.74998   0.23756   0.00000  Uiso   1.00
C198   C     0.26544   0.75001   0.26245   0.00000  Uiso   1.00
C199   C     0.01263   0.74999   0.23070   0.00000  Uiso   1.00
C200   C     0.32070   0.74998   0.26932   0.00000  Uiso   1.00
C201   C     0.14272   0.54704   0.28198   0.00000  Uiso   1.00
C202   C     0.14353   0.95287   0.21138   0.00000  Uiso   1.00
C203   C     0.14206   0.59303   0.28242   0.00000  Uiso   1.00
C204   C     0.16687   0.83505   0.25010   0.00000  Uiso   1.00
C205   C     0.14291   0.90687   0.21077   0.00000  Uiso   1.00
C206   C     0.16782   0.61672   0.24981   0.00000  Uiso   1.00
C207   C     0.16791   0.88331   0.25048   0.00000  Uiso   1.00
C208   C     0.19497   0.59422   0.21720   0.00000  Uiso   1.00
C209   C     0.19431   0.90596   0.29054   0.00000  Uiso   1.00
C210   C     0.19715   0.54793   0.21736   0.00000  Uiso   1.00
C211   C     0.19643   0.95226   0.29099   0.00000  Uiso   1.00
C212   C     0.17038   0.52429   0.24996   0.00000  Uiso   1.00
C213   C     0.17040   0.97576   0.25102   0.00000  Uiso   1.00
C214   C     0.22899   0.52453   0.18386   0.00000  Uiso   1.00
C215   C     0.19063   0.78416   0.05718   0.00000  Uiso   1.00
C216   C     0.22742   0.97583   0.33328   0.00000  Uiso   1.00
C217   C     0.12711   0.72917   0.44083   0.00000  Uiso   1.00
C218   C     0.19050   0.78336   0.10788   0.00000  Uiso   1.00
C219   C     0.12805   0.72927   0.39023   0.00000  Uiso   1.00
C220   C     0.14291   0.71663   0.10150   0.00000  Uiso   1.00
C221   C     0.20529   0.77072   0.40039   0.00000  Uiso   1.00
C222   C     0.14280   0.71581   0.05076   0.00000  Uiso   1.00
Cu223  Cu    0.16667   0.74999   0.29822   0.00000  Uiso   1.00
Cu224  Cu    0.16667   0.75000   0.20179   0.00000  Uiso   1.00
H225   H     0.32599   0.75002   0.19364   0.00000  Uiso   1.00
H226   H     0.23581   0.78720   0.38477   0.00000  Uiso   1.00
H227   H     0.12459   0.68810   0.03035   0.00000  Uiso   1.00
H228   H     0.23834   0.78671   0.47342   0.00000  Uiso   1.00
H229   H     0.12173   0.52904   0.30673   0.00000  Uiso   1.00
H230   H     0.12312   0.97076   0.18084   0.00000  Uiso   1.00
H231   H     0.25780   0.50290   0.20541   0.00000  Uiso   1.00
H232   H     0.20380   0.50410   0.15704   0.00000  Uiso   1.00
H233   H     0.25009   0.54835   0.16334   0.00000  Uiso   1.00
H234   H     0.25657   0.99763   0.31984   0.00000  Uiso   1.00
H235   H     0.20169   0.99611   0.35298   0.00000  Uiso   1.00
H236   H     0.00734   0.74995   0.30638   0.00000  Uiso   1.00
H237   H     0.24805   0.95213   0.35963   0.00000  Uiso   1.00
H238   H     0.20887   0.81186   0.04166   0.00000  Uiso   1.00
H239   H     0.09503   0.71330   0.45458   0.00000  Uiso   1.00
H240   H     0.12071   0.61010   0.30761   0.00000  Uiso   1.00
H241   H     0.12217   0.88971   0.17970   0.00000  Uiso   1.00
H242   H     0.21532   0.61285   0.19242   0.00000  Uiso   1.00
H243   H     0.21411   0.88744   0.32093   0.00000  Uiso   1.00
H244   H     0.20945   0.80973   0.13002   0.00000  Uiso   1.00
H245   H     0.09751   0.71277   0.36661   0.00000  Uiso   1.00
H246   H     0.12400   0.69024   0.11857   0.00000  Uiso   1.00
N247   N     0.16667   0.75001   0.12935   0.00000  Uiso   1.00
N248   N     0.16667   0.74999   0.37066   0.00000  Uiso   1.00
O249   O     0.16667   0.68572   0.29072   0.00000  Uiso   1.00
O250   O     0.16666   0.81427   0.20929   0.00000  Uiso   1.00
O251   O     0.16667   0.68573   0.20928   0.00000  Uiso   1.00
O252   O     0.16666   0.81427   0.29072   0.00000  Uiso   1.00
O253   O     0.09161   0.74999   0.28132   0.00000  Uiso   1.00
O254   O     0.24172   0.75000   0.21868   0.00000  Uiso   1.00
O255   O     0.09161   0.75000   0.19989   0.00000  Uiso   1.00
O256   O     0.24172   0.75000   0.30012   0.00000  Uiso   1.00
C257   C     0.50014   0.66495   0.24994   0.00000  Uiso   1.00
C258   C     0.53958   0.77083   0.45124   0.00000  Uiso   1.00
C259   C     0.50004   0.74999   0.02734   0.00000  Uiso   1.00
C260   C     0.50003   0.75000   0.47266   0.00000  Uiso   1.00
C261   C     0.40123   0.74998   0.23756   0.00000  Uiso   1.00
C262   C     0.59877   0.75001   0.26245   0.00000  Uiso   1.00
C263   C     0.34597   0.74999   0.23070   0.00000  Uiso   1.00
C264   C     0.65404   0.74998   0.26932   0.00000  Uiso   1.00
C265   C     0.47605   0.54704   0.28198   0.00000  Uiso   1.00
C266   C     0.47687   0.95287   0.21138   0.00000  Uiso   1.00
C267   C     0.47539   0.59303   0.28242   0.00000  Uiso   1.00
C268   C     0.50020   0.83505   0.25010   0.00000  Uiso   1.00
C269   C     0.47624   0.90687   0.21077   0.00000  Uiso   1.00
C270   C     0.50115   0.61672   0.24981   0.00000  Uiso   1.00
C271   C     0.50124   0.88331   0.25048   0.00000  Uiso   1.00
C272   C     0.52830   0.59422   0.21720   0.00000  Uiso   1.00
C273   C     0.52764   0.90596   0.29054   0.00000  Uiso   1.00
C274   C     0.53048   0.54793   0.21736   0.00000  Uiso   1.00
C275   C     0.52976   0.95226   0.29099   0.00000  Uiso   1.00
C276   C     0.50371   0.52429   0.24996   0.00000  Uiso   1.00
C277   C     0.50373   0.97576   0.25102   0.00000  Uiso   1.00
C278   C     0.56233   0.52453   0.18386   0.00000  Uiso   1.00
C279   C     0.52397   0.78416   0.05718   0.00000  Uiso   1.00
C280   C     0.56075   0.97583   0.33328   0.00000  Uiso   1.00
C281   C     0.46045   0.72917   0.44083   0.00000  Uiso   1.00
C282   C     0.52383   0.78336   0.10788   0.00000  Uiso   1.00
C283   C     0.46138   0.72927   0.39023   0.00000  Uiso   1.00
C284   C     0.47624   0.71663   0.10150   0.00000  Uiso   1.00
C285   C     0.53862   0.77072   0.40039   0.00000  Uiso   1.00
C286   C     0.47613   0.71581   0.05076   0.00000  Uiso   1.00
Cu287  Cu    0.50000   0.74999   0.29822   0.00000  Uiso   1.00
Cu288  Cu    0.50000   0.75000   0.20179   0.00000  Uiso   1.00
H289   H     0.65932   0.75002   0.19364   0.00000  Uiso   1.00
H290   H     0.56915   0.78720   0.38477   0.00000  Uiso   1.00
H291   H     0.45792   0.68810   0.03035   0.00000  Uiso   1.00
H292   H     0.57167   0.78671   0.47342   0.00000  Uiso   1.00
H293   H     0.45506   0.52904   0.30673   0.00000  Uiso   1.00
H294   H     0.45645   0.97076   0.18084   0.00000  Uiso   1.00
H295   H     0.59114   0.50290   0.20541   0.00000  Uiso   1.00
H296   H     0.53713   0.50410   0.15704   0.00000  Uiso   1.00
H297   H     0.58343   0.54835   0.16334   0.00000  Uiso   1.00
H298   H     0.58991   0.99763   0.31984   0.00000  Uiso   1.00
H299   H     0.53503   0.99611   0.35298   0.00000  Uiso   1.00
H300   H     0.34068   0.74995   0.30638   0.00000  Uiso   1.00
H301   H     0.58138   0.95213   0.35963   0.00000  Uiso   1.00
H302   H     0.54221   0.81186   0.04166   0.00000  Uiso   1.00
H303   H     0.42836   0.71330   0.45458   0.00000  Uiso   1.00
H304   H     0.45405   0.61010   0.30761   0.00000  Uiso   1.00
H305   H     0.45550   0.88971   0.17970   0.00000  Uiso   1.00
H306   H     0.54866   0.61285   0.19242   0.00000  Uiso   1.00
H307   H     0.54745   0.88744   0.32093   0.00000  Uiso   1.00
H308   H     0.54278   0.80973   0.13002   0.00000  Uiso   1.00
H309   H     0.43084   0.71277   0.36661   0.00000  Uiso   1.00
H310   H     0.45734   0.69024   0.11857   0.00000  Uiso   1.00
N311   N     0.50000   0.75001   0.12935   0.00000  Uiso   1.00
N312   N     0.50000   0.74999   0.37066   0.00000  Uiso   1.00
O313   O     0.50000   0.68572   0.29072   0.00000  Uiso   1.00
O314   O     0.50000   0.81427   0.20929   0.00000  Uiso   1.00
O315   O     0.50000   0.68573   0.20928   0.00000  Uiso   1.00
O316   O     0.50000   0.81427   0.29072   0.00000  Uiso   1.00
O317   O     0.42495   0.74999   0.28132   0.00000  Uiso   1.00
O318   O     0.57505   0.75000   0.21868   0.00000  Uiso   1.00
O319   O     0.42495   0.75000   0.19989   0.00000  Uiso   1.00
O320   O     0.57505   0.75000   0.30012   0.00000  Uiso   1.00
C321   C     0.83347   0.66495   0.24994   0.00000  Uiso   1.00
C322   C     0.87292   0.77083   0.45124   0.00000  Uiso   1.00
C323   C     0.83338   0.74999   0.02734   0.00000  Uiso   1.00
C324   C     0.83336   0.75000   0.47266   0.00000  Uiso   1.00
C325   C     0.73456   0.74998   0.23756   0.00000  Uiso   1.00
C326   C     0.93210   0.75001   0.26245   0.00000  Uiso   1.00
C327   C     0.67930   0.74999   0.23070   0.00000  Uiso   1.00
C328   C     0.98737   0.74998   0.26932   0.00000  Uiso   1.00
C329   C     0.80939   0.54704   0.28198   0.00000  Uiso   1.00
C330   C     0.81020   0.95287   0.21138   0.00000  Uiso   1.00
C331   C     0.80872   0.59303   0.28242   0.00000  Uiso   1.00
C332   C     0.83354   0.83505   0.25010   0.00000  Uiso   1.00
C333   C     0.80957   0.90687   0.21077   0.00000  Uiso   1.00
C334   C     0.83448   0.61672   0.24981   0.00000  Uiso   1.00
C335   C     0.83457   0.88331   0.25048   0.00000  Uiso   1.00
C336   C     0.86163   0.59422   0.21720   0.00000  Uiso   1.00
C337   C     0.86097   0.90596   0.29054   0.00000  Uiso   1.00
C338   C     0.86382   0.54793   0.21736   0.00000  Uiso   1.00
C339   C     0.86310   0.95226   0.29099   0.00000  Uiso   1.00
C340   C     0.83704   0.52429   0.24996   0.00000  Uiso   1.00
C341   C     0.83706   0.97576   0.25102   0.00000  Uiso   1.00
C342   C     0.89566   0.52453   0.18386   0.00000  Uiso   1.00
C343   C     0.85730   0.78416   0.05718   0.00000  Uiso   1.00
C344   C     0.89409   0.97583   0.33328   0.00000  Uiso   1.00
C345   C     0.79378   0.72917   0.44083   0.00000  Uiso   1.00
C346   C     0.85716   0.78336   0.10788   0.00000  Uiso   1.00
C347   C     0.79471   0.72927   0.39023   0.00000  Uiso   1.00
C348   C     0.80957   0.71663   0.10150   0.00000  Uiso   1.00
C349   C     0.87196   0.77072   0.40039   0.00000  Uiso   1.00
C350   C     0.80947   0.71581   0.05076   0.00000  Uiso   1.00
Cu351  Cu    0.83333   0.74999   0.29822   0.00000  Uiso   1.00
Cu352  Cu    0.83333   0.75000   0.20179   0.00000  Uiso   1.00
H353   H     0.99265   0.75002   0.19364   0.00000  Uiso   1.00
H354   H     0.90248   0.78720   0.38477   0.00000  Uiso   1.00
H355   H     0.79126   0.68810   0.03035   0.00000  Uiso   1.00
H356   H     0.90501   0.78671   0.47342   0.00000  Uiso   1.00
H357   H     0.78840   0.52904   0.30673   0.00000  Uiso   1.00
H358   H     0.78979   0.97076   0.18084   0.00000  Uiso   1.00
H359   H     0.92447   0.50290   0.20541   0.00000  Uiso   1.00
H360   H     0.87047   0.50410   0.15704   0.00000  Uiso   1.00
H361   H     0.91676   0.54835   0.16334   0.00000  Uiso   1.00
H362   H     0.92324   0.99763   0.31984   0.00000  Uiso   1.00
H363   H     0.86836   0.99611   0.35298   0.00000  Uiso   1.00
H364   H     0.67401   0.74995   0.30638   0.00000  Uiso   1.00
H365   H     0.91472   0.95213   0.35963   0.00000  Uiso   1.00
H366   H     0.87554   0.81186   0.04166   0.00000  Uiso   1.00
H367   H     0.76170   0.71330   0.45458   0.00000  Uiso   1.00
H368   H     0.78738   0.61010   0.30761   0.00000  Uiso   1.00
H369   H     0.78883   0.88971   0.17970   0.00000  Uiso   1.00
H370   H     0.88199   0.61285   0.19242   0.00000  Uiso   1.00
H371   H     0.88078   0.88744   0.32093   0.00000  Uiso   1.00
H372   H     0.87611   0.80973   0.13002   0.00000  Uiso   1.00
H373   H     0.76418   0.71277   0.36661   0.00000  Uiso   1.00
H374   H     0.79067   0.69024   0.11857   0.00000  Uiso   1.00
N375   N     0.83333   0.75001   0.12935   0.00000  Uiso   1.00
N376   N     0.83333   0.74999   0.37066   0.00000  Uiso   1.00
O377   O     0.83334   0.68572   0.29072   0.00000  Uiso   1.00
O378   O     0.83333   0.81427   0.20929   0.00000  Uiso   1.00
O379   O     0.83334   0.68573   0.20928   0.00000  Uiso   1.00
O380   O     0.83333   0.81427   0.29072   0.00000  Uiso   1.00
O381   O     0.75828   0.74999   0.28132   0.00000  Uiso   1.00
O382   O     0.90839   0.75000   0.21868   0.00000  Uiso   1.00
O383   O     0.75828   0.75000   0.19989   0.00000  Uiso   1.00
O384   O     0.90839   0.75000   0.30012   0.00000  Uiso   1.00
C385   C     0.16681   0.16495   0.74994   0.00000  Uiso   1.00
C386   C     0.20625   0.27083   0.95124   0.00000  Uiso   1.00
C387   C     0.16671   0.24999   0.52734   0.00000  Uiso   1.00
C388   C     0.16669   0.25000   0.97266   0.00000  Uiso   1.00
C389   C     0.06790   0.24998   0.73756   0.00000  Uiso   1.00
C390   C     0.26544   0.25001   0.76245   0.00000  Uiso   1.00
C391   C     0.01263   0.24999   0.73070   0.00000  Uiso   1.00
C392   C     0.32070   0.24998   0.76932   0.00000  Uiso   1.00
C393   C     0.14272   0.04704   0.78198   0.00000  Uiso   1.00
C394   C     0.14353   0.45287   0.71138   0.00000  Uiso   1.00
C395   C     0.14206   0.09303   0.78242   0.00000  Uiso   1.00
C396   C     0.16687   0.33505   0.75010   0.00000  Uiso   1.00
C397   C     0.14291   0.40687   0.71077   0.00000  Uiso   1.00
C398   C     0.16782   0.11672   0.74981   0.00000  Uiso   1.00
C399   C     0.16791   0.38331   0.75048   0.00000  Uiso   1.00
C400   C     0.19497   0.09422   0.71720   0.00000  Uiso   1.00
C401   C     0.19431   0.40596   0.79054   0.00000  Uiso   1.00
C402   C     0.19715   0.04793   0.71736   0.00000  Uiso   1.00
C403   C     0.19643   0.45226   0.79099   0.00000  Uiso   1.00
C404   C     0.17038   0.02429   0.74996   0.00000  Uiso   1.00
C405   C     0.17040   0.47576   0.75102   0.00000  Uiso   1.00
C406   C     0.22899   0.02453   0.68386   0.00000  Uiso   1.00
C407   C     0.19063   0.28416   0.55718   0.00000  Uiso   1.00
C408   C     0.22742   0.47583   0.83328   0.00000  Uiso   1.00
C409   C     0.12711   0.22917   0.94083   0.00000  Uiso   1.00
C410   C     0.19050   0.28336   0.60788   0.00000  Uiso   1.00
C411   C     0.12805   0.22927   0.89023   0.00000  Uiso   1.00
C412   C     0.14291   0.21663   0.60150   0.00000  Uiso   1.00
C413   C     0.20529   0.27072   0.90039   0.00000  Uiso   1.00
C414   C     0.14280   0.21581   0.55076   0.00000  Uiso   1.00
Cu415  Cu    0.16667   0.24999   0.79822   0.00000  Uiso   1.00
Cu416  Cu    0.16667   0.25000   0.70179   0.00000  Uiso   1.00
H417   H     0.32599   0.25002   0.69364   0.00000  Uiso   1.00
H418   H     0.23581   0.28720   0.88477   0.00000  Uiso   1.00
H419   H     0.12459   0.18810   0.53035   0.00000  Uiso   1.00
H420   H     0.23834   0.28671   0.97342   0.00000  Uiso   1.00
H421   H     0.12173   0.02904   0.80673   0.00000  Uiso   1.00
H422   H     0.12312   0.47076   0.68084   0.00000  Uiso   1.00
H423   H     0.25780   0.00290   0.70541   0.00000  Uiso   1.00
H424   H     0.20380   0.00410   0.65704   0.00000  Uiso   1.00
H425   H     0.25009   0.04835   0.66334   0.00000  Uiso   1.00
H426   H     0.25657   0.49763   0.81984   0.00000  Uiso   1.00
H427   H     0.20169   0.49611   0.85298   0.00000  Uiso   1.00
H428   H     0.00734   0.24995   0.80638   0.00000  Uiso   1.00
H429   H     0.24805   0.45213   0.85963   0.00000  Uiso   1.00
H430   H     0.20887   0.31186   0.54166   0.00000  Uiso   1.00
H431   H     0.09503   0.21330   0.95458   0.00000  Uiso   1.00
H432   H     0.12071   0.11010   0.80761   0.00000  Uiso   1.00
H433   H     0.12217   0.38971   0.67970   0.00000  Uiso   1.00
H434   H     0.21532   0.11285   0.69242   0.00000  Uiso   1.00
H435   H     0.21411   0.38744   0.82093   0.00000  Uiso   1.00
H436   H     0.20945   0.30973   0.63002   0.00000  Uiso   1.00
H437   H     0.09751   0.21277   0.86661   0.00000  Uiso   1.00
H438   H     0.12400   0.19024   0.61857   0.00000  Uiso   1.00
N439   N     0.16667   0.25001   0.62935   0.00000  Uiso   1.00
N440   N     0.16667   0.24999   0.87066   0.00000  Uiso   1.00
O441   O     0.16667   0.18572   0.79072   0.00000  Uiso   1.00
O442   O     0.16666   0.31427   0.70929   0.00000  Uiso   1.00
O443   O     0.16667   0.18573   0.70928   0.00000  Uiso   1.00
O444   O     0.16666   0.31427   0.79072   0.00000  Uiso   1.00
O445   O     0.09161   0.24999   0.78132   0.00000  Uiso   1.00
O446   O     0.24172   0.25000   0.71868   0.00000  Uiso   1.00
O447   O     0.09161   0.25000   0.69989   0.00000  Uiso   1.00
O448   O     0.24172   0.25000   0.80012   0.00000  Uiso   1.00
C449   C     0.50014   0.16495   0.74994   0.00000  Uiso   1.00
C450   C     0.53958   0.27083   0.95124   0.00000  Uiso   1.00
C451   C     0.50004   0.24999   0.52734   0.00000  Uiso   1.00
C452   C     0.50003   0.25000   0.97266   0.00000  Uiso   1.00
C453   C     0.40123   0.24998   0.73756   0.00000  Uiso   1.00
C454   C     0.59877   0.25001   0.76245   0.00000  Uiso   1.00
C455   C     0.34597   0.24999   0.73070   0.00000  Uiso   1.00
C456   C     0.65404   0.24998   0.76932   0.00000  Uiso   1.00
C457   C     0.47605   0.04704   0.78198   0.00000  Uiso   1.00
C458   C     0.47687   0.45287   0.71138   0.00000  Uiso   1.00
C459   C     0.47539   0.09303   0.78242   0.00000  Uiso   1.00
C460   C     0.50020   0.33505   0.75010   0.00000  Uiso   1.00
C461   C     0.47624   0.40687   0.71077   0.00000  Uiso   1.00
C462   C     0.50115   0.11672   0.74981   0.00000  Uiso   1.00
C463   C     0.50124   0.38331   0.75048   0.00000  Uiso   1.00
C464   C     0.52830   0.09422   0.71720   0.00000  Uiso   1.00
C465   C     0.52764   0.40596   0.79054   0.00000  Uiso   1.00
C466   C     0.53048   0.04793   0.71736   0.00000  Uiso   1.00
C467   C     0.52976   0.45226   0.79099   0.00000  Uiso   1.00
C468   C     0.50371   0.02429   0.74996   0.00000  Uiso   1.00
C469   C     0.50373   0.47576   0.75102   0.00000  Uiso   1.00
C470   C     0.56233   0.02453   0.68386   0.00000  Uiso   1.00
C471   C     0.52397   0.28416   0.55718   0.00000  Uiso   1.00
C472   C     0.56075   0.47583   0.83328   0.00000  Uiso   1.00
C473   C     0.46045   0.22917   0.94083   0.00000  Uiso   1.00
C474   C     0.52383   0.28336   0.60788   0.00000  Uiso   1.00
C475   C     0.46138   0.22927   0.89023   0.00000  Uiso   1.00
C476   C     0.47624   0.21663   0.60150   0.00000  Uiso   1.00
C477   C     0.53862   0.27072   0.90039   0.00000  Uiso   1.00
C478   C     0.47613   0.21581   0.55076   0.00000  Uiso   1.00
Cu479  Cu    0.50000   0.24999   0.79822   0.00000  Uiso   1.00
Cu480  Cu    0.50000   0.25000   0.70179   0.00000  Uiso   1.00
H481   H     0.65932   0.25002   0.69364   0.00000  Uiso   1.00
H482   H     0.56915   0.28720   0.88477   0.00000  Uiso   1.00
H483   H     0.45792   0.18810   0.53035   0.00000  Uiso   1.00
H484   H     0.57167   0.28671   0.97342   0.00000  Uiso   1.00
H485   H     0.45506   0.02904   0.80673   0.00000  Uiso   1.00
H486   H     0.45645   0.47076   0.68084   0.00000  Uiso   1.00
H487   H     0.59114   0.00290   0.70541   0.00000  Uiso   1.00
H488   H     0.53713   0.00410   0.65704   0.00000  Uiso   1.00
H489   H     0.58343   0.04835   0.66334   0.00000  Uiso   1.00
H490   H     0.58991   0.49763   0.81984   0.00000  Uiso   1.00
H491   H     0.53503   0.49611   0.85298   0.00000  Uiso   1.00
H492   H     0.34068   0.24995   0.80638   0.00000  Uiso   1.00
H493   H     0.58138   0.45213   0.85963   0.00000  Uiso   1.00
H494   H     0.54221   0.31186   0.54166   0.00000  Uiso   1.00
H495   H     0.42836   0.21330   0.95458   0.00000  Uiso   1.00
H496   H     0.45405   0.11010   0.80761   0.00000  Uiso   1.00
H497   H     0.45550   0.38971   0.67970   0.00000  Uiso   1.00
H498   H     0.54866   0.11285   0.69242   0.00000  Uiso   1.00
H499   H     0.54745   0.38744   0.82093   0.00000  Uiso   1.00
H500   H     0.54278   0.30973   0.63002   0.00000  Uiso   1.00
H501   H     0.43084   0.21277   0.86661   0.00000  Uiso   1.00
H502   H     0.45734   0.19024   0.61857   0.00000  Uiso   1.00
N503   N     0.50000   0.25001   0.62935   0.00000  Uiso   1.00
N504   N     0.50000   0.24999   0.87066   0.00000  Uiso   1.00
O505   O     0.50000   0.18572   0.79072   0.00000  Uiso   1.00
O506   O     0.50000   0.31427   0.70929   0.00000  Uiso   1.00
O507   O     0.50000   0.18573   0.70928   0.00000  Uiso   1.00
O508   O     0.50000   0.31427   0.79072   0.00000  Uiso   1.00
O509   O     0.42495   0.24999   0.78132   0.00000  Uiso   1.00
O510   O     0.57505   0.25000   0.71868   0.00000  Uiso   1.00
O511   O     0.42495   0.25000   0.69989   0.00000  Uiso   1.00
O512   O     0.57505   0.25000   0.80012   0.00000  Uiso   1.00
C513   C     0.83347   0.16495   0.74994   0.00000  Uiso   1.00
C514   C     0.87292   0.27083   0.95124   0.00000  Uiso   1.00
C515   C     0.83338   0.24999   0.52734   0.00000  Uiso   1.00
C516   C     0.83336   0.25000   0.97266   0.00000  Uiso   1.00
C517   C     0.73456   0.24998   0.73756   0.00000  Uiso   1.00
C518   C     0.93210   0.25001   0.76245   0.00000  Uiso   1.00
C519   C     0.67930   0.24999   0.73070   0.00000  Uiso   1.00
C520   C     0.98737   0.24998   0.76932   0.00000  Uiso   1.00
C521   C     0.80939   0.04704   0.78198   0.00000  Uiso   1.00
C522   C     0.81020   0.45287   0.71138   0.00000  Uiso   1.00
C523   C     0.80872   0.09303   0.78242   0.00000  Uiso   1.00
C524   C     0.83354   0.33505   0.75010   0.00000  Uiso   1.00
C525   C     0.80957   0.40687   0.71077   0.00000  Uiso   1.00
C526   C     0.83448   0.11672   0.74981   0.00000  Uiso   1.00
C527   C     0.83457   0.38331   0.75048   0.00000  Uiso   1.00
C528   C     0.86163   0.09422   0.71720   0.00000  Uiso   1.00
C529   C     0.86097   0.40596   0.79054   0.00000  Uiso   1.00
C530   C     0.86382   0.04793   0.71736   0.00000  Uiso   1.00
C531   C     0.86310   0.45226   0.79099   0.00000  Uiso   1.00
C532   C     0.83704   0.02429   0.74996   0.00000  Uiso   1.00
C533   C     0.83706   0.47576   0.75102   0.00000  Uiso   1.00
C534   C     0.89566   0.02453   0.68386   0.00000  Uiso   1.00
C535   C     0.85730   0.28416   0.55718   0.00000  Uiso   1.00
C536   C     0.89409   0.47583   0.83328   0.00000  Uiso   1.00
C537   C     0.79378   0.22917   0.94083   0.00000  Uiso   1.00
C538   C     0.85716   0.28336   0.60788   0.00000  Uiso   1.00
C539   C     0.79471   0.22927   0.89023   0.00000  Uiso   1.00
C540   C     0.80957   0.21663   0.60150   0.00000  Uiso   1.00
C541   C     0.87196   0.27072   0.90039   0.00000  Uiso   1.00
C542   C     0.80947   0.21581   0.55076   0.00000  Uiso   1.00
Cu543  Cu    0.83333   0.24999   0.79822   0.00000  Uiso   1.00
Cu544  Cu    0.83333   0.25000   0.70179   0.00000  Uiso   1.00
H545   H     0.99265   0.25002   0.69364   0.00000  Uiso   1.00
H546   H     0.90248   0.28720   0.88477   0.00000  Uiso   1.00
H547   H     0.79126   0.18810   0.53035   0.00000  Uiso   1.00
H548   H     0.90501   0.28671   0.97342   0.00000  Uiso   1.00
H549   H     0.78840   0.02904   0.80673   0.00000  Uiso   1.00
H550   H     0.78979   0.47076   0.68084   0.00000  Uiso   1.00
H551   H     0.92447   0.00290   0.70541   0.00000  Uiso   1.00
H552   H     0.87047   0.00410   0.65704   0.00000  Uiso   1.00
H553   H     0.91676   0.04835   0.66334   0.00000  Uiso   1.00
H554   H     0.92324   0.49763   0.81984   0.00000  Uiso   1.00
H555   H     0.86836   0.49611   0.85298   0.00000  Uiso   1.00
H556   H     0.67401   0.24995   0.80638   0.00000  Uiso   1.00
H557   H     0.91472   0.45213   0.85963   0.00000  Uiso   1.00
H558   H     0.87554   0.31186   0.54166   0.00000  Uiso   1.00
H559   H     0.76170   0.21330   0.95458   0.00000  Uiso   1.00
H560   H     0.78738   0.11010   0.80761   0.00000  Uiso   1.00
H561   H     0.78883   0.38971   0.67970   0.00000  Uiso   1.00
H562   H     0.88199   0.11285   0.69242   0.00000  Uiso   1.00
H563   H     0.88078   0.38744   0.82093   0.00000  Uiso   1.00
H564   H     0.87611   0.30973   0.63002   0.00000  Uiso   1.00
H565   H     0.76418   0.21277   0.86661   0.00000  Uiso   1.00
H566   H     0.79067   0.19024   0.61857   0.00000  Uiso   1.00
N567   N     0.83333   0.25001   0.62935   0.00000  Uiso   1.00
N568   N     0.83333   0.24999   0.87066   0.00000  Uiso   1.00
O569   O     0.83334   0.18572   0.79072   0.00000  Uiso   1.00
O570   O     0.83333   0.31427   0.70929   0.00000  Uiso   1.00
O571   O     0.83334   0.18573   0.70928   0.00000  Uiso   1.00
O572   O     0.83333   0.31427   0.79072   0.00000  Uiso   1.00
O573   O     0.75828   0.24999   0.78132   0.00000  Uiso   1.00
O574   O     0.90839   0.25000   0.71868   0.00000  Uiso   1.00
O575   O     0.75828   0.25000   0.69989   0.00000  Uiso   1.00
O576   O     0.90839   0.25000   0.80012   0.00000  Uiso   1.00
C577   C     0.16681   0.66495   0.74994   0.00000  Uiso   1.00
C578   C     0.20625   0.77083   0.95124   0.00000  Uiso   1.00
C579   C     0.16671   0.74999   0.52734   0.00000  Uiso   1.00
C580   C     0.16669   0.75000   0.97266   0.00000  Uiso   1.00
C581   C     0.06790   0.74998   0.73756   0.00000  Uiso   1.00
C582   C     0.26544   0.75001   0.76245   0.00000  Uiso   1.00
C583   C     0.01263   0.74999   0.73070   0.00000  Uiso   1.00
C584   C     0.32070   0.74998   0.76932   0.00000  Uiso   1.00
C585   C     0.14272   0.54704   0.78198   0.00000  Uiso   1.00
C586   C     0.14353   0.95287   0.71138   0.00000  Uiso   1.00
C587   C     0.14206   0.59303   0.78242   0.00000  Uiso   1.00
C588   C     0.16687   0.83505   0.75010   0.00000  Uiso   1.00
C589   C     0.14291   0.90687   0.71077   0.00000  Uiso   1.00
C590   C     0.16782   0.61672   0.74981   0.00000  Uiso   1.00
C591   C     0.16791   0.88331   0.75048   0.00000  Uiso   1.00
C592   C     0.19497   0.59422   0.71720   0.00000  Uiso   1.00
C593   C     0.19431   0.90596   0.79054   0.00000  Uiso   1.00
C594   C     0.19715   0.54793   0.71736   0.00000  Uiso   1.00
C595   C     0.19643   0.95226   0.79099   0.00000  Uiso   1.00
C596   C     0.17038   0.52429   0.74996   0.00000  Uiso   1.00
C597   C     0.17040   0.97576   0.75102   0.00000  Uiso   1.00
C598   C     0.22899   0.52453   0.68386   0.00000  Uiso   1.00
C599   C     0.19063   0.78416   0.55718   0.00000  Uiso   1.00
C600   C     0.22742   0.97583   0.83328   0.00000  Uiso   1.00
C601   C     0.12711   0.72917   0.94083   0.00000  Uiso   1.00
C602   C     0.19050   0.78336   0.60788   0.00000  Uiso   1.00
C603   C     0.12805   0.72927   0.89023   0.00000  Uiso   1.00
C604   C     0.14291   0.71663   0.60150   0.00000  Uiso   1.00
C605   C     0.20529   0.77072   0.90039   0.00000  Uiso   1.00
C606   C     0.14280   0.71581   0.55076   0.00000  Uiso   1.00
Cu607  Cu    0.16667   0.74999   0.79822   0.00000  Uiso   1.00
Cu608  Cu    0.16667   0.75000   0.70179   0.00000  Uiso   1.00
H609   H     0.32599   0.75002   0.69364   0.00000  Uiso   1.00
H610   H     0.23581   0.78720   0.88477   0.00000  Uiso   1.00
H611   H     0.12459   0.68810   0.53035   0.00000  Uiso   1.00
H612   H     0.23834   0.78671   0.97342   0.00000  Uiso   1.00
H613   H     0.12173   0.52904   0.80673   0.00000  Uiso   1.00
H614   H     0.12312   0.97076   0.68084   0.00000  Uiso   1.00
H615   H     0.25780   0.50290   0.70541   0.00000  Uiso   1.00
H616   H     0.20380   0.50410   0.65704   0.00000  Uiso   1.00
H617   H     0.25009   0.54835   0.66334   0.00000  Uiso   1.00
H618   H     0.25657   0.99763   0.81984   0.00000  Uiso   1.00
H619   H     0.20169   0.99611   0.85298   0.00000  Uiso   1.00
H620   H     0.00734   0.74995   0.80638   0.00000  Uiso   1.00
H621   H     0.24805   0.95213   0.85963   0.00000  Uiso   1.00
H622   H     0.20887   0.81186   0.54166   0.00000  Uiso   1.00
H623   H     0.09503   0.71330   0.95458   0.00000  Uiso   1.00
H624   H     0.12071   0.61010   0.80761   0.00000  Uiso   1.00
H625   H     0.12217   0.88971   0.67970   0.00000  Uiso   1.00
H626   H     0.21532   0.61285   0.69242   0.00000  Uiso   1.00
H627   H     0.21411   0.88744   0.82093   0.00000  Uiso   1.00
H628   H     0.20945   0.80973   0.63002   0.00000  Uiso   1.00
H629   H     0.09751   0.71277   0.86661   0.00000  Uiso   1.00
H630   H     0.12400   0.69024   0.61857   0.00000  Uiso   1.00
N631   N     0.16667   0.75001   0.62935   0.00000  Uiso   1.00
N632   N     0.16667   0.74999   0.87066   0.00000  Uiso   1.00
O633   O     0.16667   0.68572   0.79072   0.00000  Uiso   1.00
O634   O     0.16666   0.81427   0.70929   0.00000  Uiso   1.00
O635   O     0.16667   0.68573   0.70928   0.00000  Uiso   1.00
O636   O     0.16666   0.81427   0.79072   0.00000  Uiso   1.00
O637   O     0.09161   0.74999   0.78132   0.00000  Uiso   1.00
O638   O     0.24172   0.75000   0.71868   0.00000  Uiso   1.00
O639   O     0.09161   0.75000   0.69989   0.00000  Uiso   1.00
O640   O     0.24172   0.75000   0.80012   0.00000  Uiso   1.00
C641   C     0.50014   0.66495   0.74994   0.00000  Uiso   1.00
C642   C     0.53958   0.77083   0.95124   0.00000  Uiso   1.00
C643   C     0.50004   0.74999   0.52734   0.00000  Uiso   1.00
C644   C     0.50003   0.75000   0.97266   0.00000  Uiso   1.00
C645   C     0.40123   0.74998   0.73756   0.00000  Uiso   1.00
C646   C     0.59877   0.75001   0.76245   0.00000  Uiso   1.00
C647   C     0.34597   0.74999   0.73070   0.00000  Uiso   1.00
C648   C     0.65404   0.74998   0.76932   0.00000  Uiso   1.00
C649   C     0.47605   0.54704   0.78198   0.00000  Uiso   1.00
C650   C     0.47687   0.95287   0.71138   0.00000  Uiso   1.00
C651   C     0.47539   0.59303   0.78242   0.00000  Uiso   1.00
C652   C     0.50020   0.83505   0.75010   0.00000  Uiso   1.00
C653   C     0.47624   0.90687   0.71077   0.00000  Uiso   1.00
C654   C     0.50115   0.61672   0.74981   0.00000  Uiso   1.00
C655   C     0.50124   0.88331   0.75048   0.00000  Uiso   1.00
C656   C     0.52830   0.59422   0.71720   0.00000  Uiso   1.00
C657   C     0.52764   0.90596   0.79054   0.00000  Uiso   1.00
C658   C     0.53048   0.54793   0.71736   0.00000  Uiso   1.00
C659   C     0.52976   0.95226   0.79099   0.00000  Uiso   1.00
C660   C     0.50371   0.52429   0.74996   0.00000  Uiso   1.00
C661   C     0.50373   0.97576   0.75102   0.00000  Uiso   1.00
C662   C     0.56233   0.52453   0.68386   0.00000  Uiso   1.00
C663   C     0.52397   0.78416   0.55718   0.00000  Uiso   1.00
C664   C     0.56075   0.97583   0.83328   0.00000  Uiso   1.00
C665   C     0.46045   0.72917   0.94083   0.00000  Uiso   1.00
C666   C     0.52383   0.78336   0.60788   0.00000  Uiso   1.00
C667   C     0.46138   0.72927   0.89023   0.00000  Uiso   1.00
C668   C     0.47624   0.71663   0.60150   0.00000  Uiso   1.00
C669   C     0.53862   0.77072   0.90039   0.00000  Uiso   1.00
C670   C     0.47613   0.71581   0.55076   0.00000  Uiso   1.00
Cu671  Cu    0.50000   0.74999   0.79822   0.00000  Uiso   1.00
Cu672  Cu    0.50000   0.75000   0.70179   0.00000  Uiso   1.00
H673   H     0.65932   0.75002   0.69364   0.00000  Uiso   1.00
H674   H     0.56915   0.78720   0.88477   0.00000  Uiso   1.00
H675   H     0.45792   0.68810   0.53035   0.00000  Uiso   1.00
H676   H     0.57167   0.78671   0.97342   0.00000  Uiso   1.00
H677   H     0.45506   0.52904   0.80673   0.00000  Uiso   1.00
H678   H     0.45645   0.97076   0.68084   0.00000  Uiso   1.00
H679   H     0.59114   0.50290   0.70541   0.00000  Uiso   1.00
H680   H     0.53713   0.50410   0.65704   0.00000  Uiso   1.00
H681   H     0.58343   0.54835   0.66334   0.00000  Uiso   1.00
H682   H     0.58991   0.99763   0.81984   0.00000  Uiso   1.00
H683   H     0.53503   0.99611   0.85298   0.00000  Uiso   1.00
H684   H     0.34068   0.74995   0.80638   0.00000  Uiso   1.00
H685   H     0.58138   0.95213   0.85963   0.00000  Uiso   1.00
H686   H     0.54221   0.81186   0.54166   0.00000  Uiso   1.00
H687   H     0.42836   0.71330   0.95458   0.00000  Uiso   1.00
H688   H     0.45405   0.61010   0.80761   0.00000  Uiso   1.00
H689   H     0.45550   0.88971   0.67970   0.00000  Uiso   1.00
H690   H     0.54866   0.61285   0.69242   0.00000  Uiso   1.00
H691   H     0.54745   0.88744   0.82093   0.00000  Uiso   1.00
H692   H     0.54278   0.80973   0.63002   0.00000  Uiso   1.00
H693   H     0.43084   0.71277   0.86661   0.00000  Uiso   1.00
H694   H     0.45734   0.69024   0.61857   0.00000  Uiso   1.00
N695   N     0.50000   0.75001   0.62935   0.00000  Uiso   1.00
N696   N     0.50000   0.74999   0.87066   0.00000  Uiso   1.00
O697   O     0.50000   0.68572   0.79072   0.00000  Uiso   1.00
O698   O     0.50000   0.81427   0.70929   0.00000  Uiso   1.00
O699   O     0.50000   0.68573   0.70928   0.00000  Uiso   1.00
O700   O     0.50000   0.81427   0.79072   0.00000  Uiso   1.00
O701   O     0.42495   0.74999   0.78132   0.00000  Uiso   1.00
O702   O     0.57505   0.75000   0.71868   0.00000  Uiso   1.00
O703   O     0.42495   0.75000   0.69989   0.00000  Uiso   1.00
O704   O     0.57505   0.75000   0.80012   0.00000  Uiso   1.00
C705   C     0.83347   0.66495   0.74994   0.00000  Uiso   1.00
C706   C     0.87292   0.77083   0.95124   0.00000  Uiso   1.00
C707   C     0.83338   0.74999   0.52734   0.00000  Uiso   1.00
C708   C     0.83336   0.75000   0.97266   0.00000  Uiso   1.00
C709   C     0.73456   0.74998   0.73756   0.00000  Uiso   1.00
C710   C     0.93210   0.75001   0.76245   0.00000  Uiso   1.00
C711   C     0.67930   0.74999   0.73070   0.00000  Uiso   1.00
C712   C     0.98737   0.74998   0.76932   0.00000  Uiso   1.00
C713   C     0.80939   0.54704   0.78198   0.00000  Uiso   1.00
C714   C     0.81020   0.95287   0.71138   0.00000  Uiso   1.00
C715   C     0.80872   0.59303   0.78242   0.00000  Uiso   1.00
C716   C     0.83354   0.83505   0.75010   0.00000  Uiso   1.00
C717   C     0.80957   0.90687   0.71077   0.00000  Uiso   1.00
C718   C     0.83448   0.61672   0.74981   0.00000  Uiso   1.00
C719   C     0.83457   0.88331   0.75048   0.00000  Uiso   1.00
C720   C     0.86163   0.59422   0.71720   0.00000  Uiso   1.00
C721   C     0.86097   0.90596   0.79054   0.00000  Uiso   1.00
C722   C     0.86382   0.54793   0.71736   0.00000  Uiso   1.00
C723   C     0.86310   0.95226   0.79099   0.00000  Uiso   1.00
C724   C     0.83704   0.52429   0.74996   0.00000  Uiso   1.00
C725   C     0.83706   0.97576   0.75102   0.00000  Uiso   1.00
C726   C     0.89566   0.52453   0.68386   0.00000  Uiso   1.00
C727   C     0.85730   0.78416   0.55718   0.00000  Uiso   1.00
C728   C     0.89409   0.97583   0.83328   0.00000  Uiso   1.00
C729   C     0.79378   0.72917   0.94083   0.00000  Uiso   1.00
C730   C     0.85716   0.78336   0.60788   0.00000  Uiso   1.00
C731   C     0.79471   0.72927   0.89023   0.00000  Uiso   1.00
C732   C     0.80957   0.71663   0.60150   0.00000  Uiso   1.00
C733   C     0.87196   0.77072   0.90039   0.00000  Uiso   1.00
C734   C     0.80947   0.71581   0.55076   0.00000  Uiso   1.00
Cu735  Cu    0.83333   0.74999   0.79822   0.00000  Uiso   1.00
Cu736  Cu    0.83333   0.75000   0.70179   0.00000  Uiso   1.00
H737   H     0.99265   0.75002   0.69364   0.00000  Uiso   1.00
H738   H     0.90248   0.78720   0.88477   0.00000  Uiso   1.00
H739   H     0.79126   0.68810   0.53035   0.00000  Uiso   1.00
H740   H     0.90501   0.78671   0.97342   0.00000  Uiso   1.00
H741   H     0.78840   0.52904   0.80673   0.00000  Uiso   1.00
H742   H     0.78979   0.97076   0.68084   0.00000  Uiso   1.00
H743   H     0.92447   0.50290   0.70541   0.00000  Uiso   1.00
H744   H     0.87047   0.50410   0.65704   0.00000  Uiso   1.00
H745   H     0.91676   0.54835   0.66334   0.00000  Uiso   1.00
H746   H     0.92324   0.99763   0.81984   0.00000  Uiso   1.00
H747   H     0.86836   0.99611   0.85298   0.00000  Uiso   1.00
H748   H     0.67401   0.74995   0.80638   0.00000  Uiso   1.00
H749   H     0.91472   0.95213   0.85963   0.00000  Uiso   1.00
H750   H     0.87554   0.81186   0.54166   0.00000  Uiso   1.00
H751   H     0.76170   0.71330   0.95458   0.00000  Uiso   1.00
H752   H     0.78738   0.61010   0.80761   0.00000  Uiso   1.00
H753   H     0.78883   0.88971   0.67970   0.00000  Uiso   1.00
H754   H     0.88199   0.61285   0.69242   0.00000  Uiso   1.00
H755   H     0.88078   0.88744   0.82093   0.00000  Uiso   1.00
H756   H     0.87611   0.80973   0.63002   0.00000  Uiso   1.00
H757   H     0.76418   0.71277   0.86661   0.00000  Uiso   1.00
H758   H     0.79067   0.69024   0.61857   0.00000  Uiso   1.00
N759   N     0.83333   0.75001   0.62935   0.00000  Uiso   1.00
N760   N     0.83333   0.74999   0.87066   0.00000  Uiso   1.00
O761   O     0.83334   0.68572   0.79072   0.00000  Uiso   1.00
O762   O     0.83333   0.81427   0.70929   0.00000  Uiso   1.00
O763   O     0.83334   0.68573   0.70928   0.00000  Uiso   1.00
O764   O     0.83333   0.81427   0.79072   0.00000  Uiso   1.00
O765   O     0.75828   0.74999   0.78132   0.00000  Uiso   1.00
O766   O     0.90839   0.75000   0.71868   0.00000  Uiso   1.00
O767   O     0.75828   0.75000   0.69989   0.00000  Uiso   1.00
O768   O     0.90839   0.75000   0.80012   0.00000  Uiso   1.00
loop_
_geom_bond_atom_site_label_1
_geom_bond_atom_site_label_2
_geom_bond_distance
_geom_bond_site_symmetry_2
_ccdc_geom_bond_type
C1     O57     1.292   .     A
C1     O59     1.292   .     A
C1     C14     1.456   .     S
C2     C4      1.411   .     A
C2     C29     1.407   .     A
C2     H36     1.081   .     S
C3     C30     1.411   .     A
C3     C23     1.411   .     A
C3     C388    1.517   1_554 S
C4     C25     1.411   .     A
C4     C387    1.517   .     S
C5     O63     1.287   .     A
C5     C7      1.434   .     S
C5     O61     1.285   .     A
C6     O62     1.285   .     A
C6     C8      1.434   .     S
C6     O64     1.287   .     A
C7     C136    1.335   1_455 S
C7     H161    1.087   1_455 S
C8     C71     1.335   .     S
C8     H108    1.087   .     S
C9     H37     1.084   .     S
C9     C11     1.389   .     A
C9     C20     1.401   .     A
C10    H38     1.084   .     S
C10    C21     1.401   .     A
C10    C13     1.388   .     A
C11    H48     1.083   .     S
C11    C14     1.398   .     A
C12    C15     1.457   .     S
C12    O58     1.292   .     A
C12    O60     1.292   .     A
C13    C15     1.398   .     A
C13    H49     1.083   .     S
C14    C16     1.401   .     A
C15    C17     1.401   .     A
C16    H50     1.084   .     S
C16    C18     1.399   .     A
C17    H51     1.084   .     S
C17    C19     1.399   .     A
C18    C20     1.413   .     A
C18    C22     1.507   .     S
C19    C24     1.507   .     S
C19    C21     1.413   .     A
C20    C213    1.466   1_545 S
C21    C212    1.466   .     S
C22    H40     1.109   .     S
C22    H41     1.111   .     S
C22    H39     1.111   .     S
C23    H46     1.081   .     S
C23    C26     1.407   .     A
C24    H42     1.110   .     S
C24    H45     1.111   .     S
C24    H43     1.109   .     S
C25    C27     1.407   .     A
C25    H47     1.081   .     S
C26    H52     1.081   .     S
C26    N55     1.364   .     A
C27    H53     1.081   .     S
C27    N56     1.364   .     A
C28    C30     1.407   .     A
C28    N55     1.364   .     A
C28    H54     1.081   .     S
C29    N56     1.364   .     A
C29    H34     1.081   .     S
C30    H35     1.081   .     S
Cu31   O60     1.952   .     S
Cu31   N56     2.009   .     S
Cu31   Cu32    2.675   .     S
Cu31   O57     1.951   .     S
Cu31   O64     1.960   .     S
Cu31   O61     1.958   .     S
Cu32   N55     2.009   .     S
Cu32   O58     1.951   .     S
Cu32   O62     1.958   .     S
Cu32   O59     1.952   .     S
Cu32   O63     1.960   .     S
H33    C71     1.087   .     S
H44    C136    1.087   1_455 S
C65    O121    1.292   .     A
C65    O123    1.292   .     A
C65    C78     1.456   .     S
C66    C68     1.411   .     A
C66    C93     1.407   .     A
C66    H100    1.081   .     S
C67    C94     1.411   .     A
C67    C87     1.411   .     A
C67    C452    1.517   1_554 S
C68    C89     1.411   .     A
C68    C451    1.517   .     S
C69    O127    1.287   .     A
C69    C71     1.434   .     S
C69    O125    1.285   .     A
C70    O126    1.285   .     A
C70    C72     1.434   .     S
C70    O128    1.287   .     A
C72    C135    1.335   .     S
C72    H172    1.087   .     S
C73    H101    1.084   .     S
C73    C75     1.389   .     A
C73    C84     1.401   .     A
C74    H102    1.084   .     S
C74    C85     1.401   .     A
C74    C77     1.388   .     A
C75    H112    1.083   .     S
C75    C78     1.398   .     A
C76    C79     1.457   .     S
C76    O122    1.292   .     A
C76    O124    1.292   .     A
C77    C79     1.398   .     A
C77    H113    1.083   .     S
C78    C80     1.401   .     A
C79    C81     1.401   .     A
C80    H114    1.084   .     S
C80    C82     1.399   .     A
C81    H115    1.084   .     S
C81    C83     1.399   .     A
C82    C84     1.413   .     A
C82    C86     1.507   .     S
C83    C88     1.507   .     S
C83    C85     1.413   .     A
C84    C277    1.466   1_545 S
C85    C276    1.466   .     S
C86    H104    1.109   .     S
C86    H105    1.111   .     S
C86    H103    1.111   .     S
C87    H110    1.081   .     S
C87    C90     1.407   .     A
C88    H106    1.110   .     S
C88    H109    1.111   .     S
C88    H107    1.109   .     S
C89    C91     1.407   .     A
C89    H111    1.081   .     S
C90    H116    1.081   .     S
C90    N119    1.364   .     A
C91    H117    1.081   .     S
C91    N120    1.364   .     A
C92    C94     1.407   .     A
C92    N119    1.364   .     A
C92    H118    1.081   .     S
C93    N120    1.364   .     A
C93    H98     1.081   .     S
C94    H99     1.081   .     S
Cu95   O124    1.952   .     S
Cu95   N120    2.009   .     S
Cu95   Cu96    2.675   .     S
Cu95   O121    1.951   .     S
Cu95   O128    1.960   .     S
Cu95   O125    1.958   .     S
Cu96   N119    2.009   .     S
Cu96   O122    1.951   .     S
Cu96   O126    1.958   .     S
Cu96   O123    1.952   .     S
Cu96   O127    1.960   .     S
H97    C135    1.087   .     S
C129   O185    1.292   .     A
C129   O187    1.292   .     A
C129   C142    1.456   .     S
C130   C132    1.411   .     A
C130   C157    1.407   .     A
C130   H164    1.081   .     S
C131   C158    1.411   .     A
C131   C151    1.411   .     A
C131   C516    1.517   1_554 S
C132   C153    1.411   .     A
C132   C515    1.517   .     S
C133   O191    1.287   .     A
C133   C135    1.434   .     S
C133   O189    1.285   .     A
C134   O190    1.285   .     A
C134   C136    1.434   .     S
C134   O192    1.287   .     A
C136   C7      1.335   1_655 S
C136   H44     1.087   1_655 S
C137   H165    1.084   .     S
C137   C139    1.389   .     A
C137   C148    1.401   .     A
C138   H166    1.084   .     S
C138   C149    1.401   .     A
C138   C141    1.388   .     A
C139   H176    1.083   .     S
C139   C142    1.398   .     A
C140   C143    1.457   .     S
C140   O186    1.292   .     A
C140   O188    1.292   .     A
C141   C143    1.398   .     A
C141   H177    1.083   .     S
C142   C144    1.401   .     A
C143   C145    1.401   .     A
C144   H178    1.084   .     S
C144   C146    1.399   .     A
C145   H179    1.084   .     S
C145   C147    1.399   .     A
C146   C148    1.413   .     A
C146   C150    1.507   .     S
C147   C152    1.507   .     S
C147   C149    1.413   .     A
C148   C341    1.466   1_545 S
C149   C340    1.466   .     S
C150   H168    1.109   .     S
C150   H169    1.111   .     S
C150   H167    1.111   .     S
C151   H174    1.081   .     S
C151   C154    1.407   .     A
C152   H170    1.110   .     S
C152   H173    1.111   .     S
C152   H171    1.109   .     S
C153   C155    1.407   .     A
C153   H175    1.081   .     S
C154   H180    1.081   .     S
C154   N183    1.364   .     A
C155   H181    1.081   .     S
C155   N184    1.364   .     A
C156   C158    1.407   .     A
C156   N183    1.364   .     A
C156   H182    1.081   .     S
C157   N184    1.364   .     A
C157   H162    1.081   .     S
C158   H163    1.081   .     S
Cu159  O188    1.952   .     S
Cu159  N184    2.009   .     S
Cu159  Cu160   2.675   .     S
Cu159  O185    1.951   .     S
Cu159  O192    1.960   .     S
Cu159  O189    1.958   .     S
Cu160  N183    2.009   .     S
Cu160  O186    1.951   .     S
Cu160  O190    1.958   .     S
Cu160  O187    1.952   .     S
Cu160  O191    1.960   .     S
H161   C7      1.087   1_655 S
C193   O249    1.292   .     A
C193   O251    1.292   .     A
C193   C206    1.456   .     S
C194   C196    1.411   .     A
C194   C221    1.407   .     A
C194   H228    1.081   .     S
C195   C222    1.411   .     A
C195   C215    1.411   .     A
C195   C580    1.517   1_554 S
C196   C217    1.411   .     A
C196   C579    1.517   .     S
C197   O255    1.287   .     A
C197   C199    1.434   .     S
C197   O253    1.285   .     A
C198   O254    1.285   .     A
C198   C200    1.434   .     S
C198   O256    1.287   .     A
C199   C328    1.335   1_455 S
C199   H353    1.087   1_455 S
C200   C263    1.335   .     S
C200   H300    1.087   .     S
C201   H229    1.084   .     S
C201   C203    1.389   .     A
C201   C212    1.401   .     A
C202   H230    1.084   .     S
C202   C213    1.401   .     A
C202   C205    1.388   .     A
C203   H240    1.083   .     S
C203   C206    1.398   .     A
C204   C207    1.457   .     S
C204   O250    1.292   .     A
C204   O252    1.292   .     A
C205   C207    1.398   .     A
C205   H241    1.083   .     S
C206   C208    1.401   .     A
C207   C209    1.401   .     A
C208   H242    1.084   .     S
C208   C210    1.399   .     A
C209   H243    1.084   .     S
C209   C211    1.399   .     A
C210   C212    1.413   .     A
C210   C214    1.507   .     S
C211   C216    1.507   .     S
C211   C213    1.413   .     A
C213   C20     1.466   1_565 S
C214   H232    1.109   .     S
C214   H233    1.111   .     S
C214   H231    1.111   .     S
C215   H238    1.081   .     S
C215   C218    1.407   .     A
C216   H234    1.110   .     S
C216   H237    1.111   .     S
C216   H235    1.109   .     S
C217   C219    1.407   .     A
C217   H239    1.081   .     S
C218   H244    1.081   .     S
C218   N247    1.364   .     A
C219   H245    1.081   .     S
C219   N248    1.364   .     A
C220   C222    1.407   .     A
C220   N247    1.364   .     A
C220   H246    1.081   .     S
C221   N248    1.364   .     A
C221   H226    1.081   .     S
C222   H227    1.081   .     S
Cu223  O252    1.952   .     S
Cu223  N248    2.009   .     S
Cu223  Cu224   2.675   .     S
Cu223  O249    1.951   .     S
Cu223  O256    1.960   .     S
Cu223  O253    1.958   .     S
Cu224  N247    2.009   .     S
Cu224  O250    1.951   .     S
Cu224  O254    1.958   .     S
Cu224  O251    1.952   .     S
Cu224  O255    1.960   .     S
H225   C263    1.087   .     S
H236   C328    1.087   1_455 S
C257   O313    1.292   .     A
C257   O315    1.292   .     A
C257   C270    1.456   .     S
C258   C260    1.411   .     A
C258   C285    1.407   .     A
C258   H292    1.081   .     S
C259   C286    1.411   .     A
C259   C279    1.411   .     A
C259   C644    1.517   1_554 S
C260   C281    1.411   .     A
C260   C643    1.517   .     S
C261   O319    1.287   .     A
C261   C263    1.434   .     S
C261   O317    1.285   .     A
C262   O318    1.285   .     A
C262   C264    1.434   .     S
C262   O320    1.287   .     A
C264   C327    1.335   .     S
C264   H364    1.087   .     S
C265   H293    1.084   .     S
C265   C267    1.389   .     A
C265   C276    1.401   .     A
C266   H294    1.084   .     S
C266   C277    1.401   .     A
C266   C269    1.388   .     A
C267   H304    1.083   .     S
C267   C270    1.398   .     A
C268   C271    1.457   .     S
C268   O314    1.292   .     A
C268   O316    1.292   .     A
C269   C271    1.398   .     A
C269   H305    1.083   .     S
C270   C272    1.401   .     A
C271   C273    1.401   .     A
C272   H306    1.084   .     S
C272   C274    1.399   .     A
C273   H307    1.084   .     S
C273   C275    1.399   .     A
C274   C276    1.413   .     A
C274   C278    1.507   .     S
C275   C280    1.507   .     S
C275   C277    1.413   .     A
C277   C84     1.466   1_565 S
C278   H296    1.109   .     S
C278   H297    1.111   .     S
C278   H295    1.111   .     S
C279   H302    1.081   .     S
C279   C282    1.407   .     A
C280   H298    1.110   .     S
C280   H301    1.111   .     S
C280   H299    1.109   .     S
C281   C283    1.407   .     A
C281   H303    1.081   .     S
C282   H308    1.081   .     S
C282   N311    1.364   .     A
C283   H309    1.081   .     S
C283   N312    1.364   .     A
C284   C286    1.407   .     A
C284   N311    1.364   .     A
C284   H310    1.081   .     S
C285   N312    1.364   .     A
C285   H290    1.081   .     S
C286   H291    1.081   .     S
Cu287  O316    1.952   .     S
Cu287  N312    2.009   .     S
Cu287  Cu288   2.675   .     S
Cu287  O313    1.951   .     S
Cu287  O320    1.960   .     S
Cu287  O317    1.958   .     S
Cu288  N311    2.009   .     S
Cu288  O314    1.951   .     S
Cu288  O318    1.958   .     S
Cu288  O315    1.952   .     S
Cu288  O319    1.960   .     S
H289   C327    1.087   .     S
C321   O377    1.292   .     A
C321   O379    1.292   .     A
C321   C334    1.456   .     S
C322   C324    1.411   .     A
C322   C349    1.407   .     A
C322   H356    1.081   .     S
C323   C350    1.411   .     A
C323   C343    1.411   .     A
C323   C708    1.517   1_554 S
C324   C345    1.411   .     A
C324   C707    1.517   .     S
C325   O383    1.287   .     A
C325   C327    1.434   .     S
C325   O381    1.285   .     A
C326   O382    1.285   .     A
C326   C328    1.434   .     S
C326   O384    1.287   .     A
C328   C199    1.335   1_655 S
C328   H236    1.087   1_655 S
C329   H357    1.084   .     S
C329   C331    1.389   .     A
C329   C340    1.401   .     A
C330   H358    1.084   .     S
C330   C341    1.401   .     A
C330   C333    1.388   .     A
C331   H368    1.083   .     S
C331   C334    1.398   .     A
C332   C335    1.457   .     S
C332   O378    1.292   .     A
C332   O380    1.292   .     A
C333   C335    1.398   .     A
C333   H369    1.083   .     S
C334   C336    1.401   .     A
C335   C337    1.401   .     A
C336   H370    1.084   .     S
C336   C338    1.399   .     A
C337   H371    1.084   .     S
C337   C339    1.399   .     A
C338   C340    1.413   .     A
C338   C342    1.507   .     S
C339   C344    1.507   .     S
C339   C341    1.413   .     A
C341   C148    1.466   1_565 S
C342   H360    1.109   .     S
C342   H361    1.111   .     S
C342   H359    1.111   .     S
C343   H366    1.081   .     S
C343   C346    1.407   .     A
C344   H362    1.110   .     S
C344   H365    1.111   .     S
C344   H363    1.109   .     S
C345   C347    1.407   .     A
C345   H367    1.081   .     S
C346   H372    1.081   .     S
C346   N375    1.364   .     A
C347   H373    1.081   .     S
C347   N376    1.364   .     A
C348   C350    1.407   .     A
C348   N375    1.364   .     A
C348   H374    1.081   .     S
C349   N376    1.364   .     A
C349   H354    1.081   .     S
C350   H355    1.081   .     S
Cu351  O380    1.952   .     S
Cu351  N376    2.009   .     S
Cu351  Cu352   2.675   .     S
Cu351  O377    1.951   .     S
Cu351  O384    1.960   .     S
Cu351  O381    1.958   .     S
Cu352  N375    2.009   .     S
Cu352  O378    1.951   .     S
Cu352  O382    1.958   .     S
Cu352  O379    1.952   .     S
Cu352  O383    1.960   .     S
H353   C199    1.087   1_655 S
C385   O441    1.292   .     A
C385   O443    1.292   .     A
C385   C398    1.456   .     S
C386   C388    1.411   .     A
C386   C413    1.407   .     A
C386   H420    1.081   .     S
C387   C414    1.411   .     A
C387   C407    1.411   .     A
C388   C409    1.411   .     A
C388   C3      1.517   1_556 S
C389   O447    1.287   .     A
C389   C391    1.434   .     S
C389   O445    1.285   .     A
C390   O446    1.285   .     A
C390   C392    1.434   .     S
C390   O448    1.287   .     A
C391   C520    1.335   1_455 S
C391   H545    1.087   1_455 S
C392   C455    1.335   .     S
C392   H492    1.087   .     S
C393   H421    1.084   .     S
C393   C395    1.389   .     A
C393   C404    1.401   .     A
C394   H422    1.084   .     S
C394   C405    1.401   .     A
C394   C397    1.388   .     A
C395   H432    1.083   .     S
C395   C398    1.398   .     A
C396   C399    1.457   .     S
C396   O442    1.292   .     A
C396   O444    1.292   .     A
C397   C399    1.398   .     A
C397   H433    1.083   .     S
C398   C400    1.401   .     A
C399   C401    1.401   .     A
C400   H434    1.084   .     S
C400   C402    1.399   .     A
C401   H435    1.084   .     S
C401   C403    1.399   .     A
C402   C404    1.413   .     A
C402   C406    1.507   .     S
C403   C408    1.507   .     S
C403   C405    1.413   .     A
C404   C597    1.466   1_545 S
C405   C596    1.466   .     S
C406   H424    1.109   .     S
C406   H425    1.111   .     S
C406   H423    1.111   .     S
C407   H430    1.081   .     S
C407   C410    1.407   .     A
C408   H426    1.110   .     S
C408   H429    1.111   .     S
C408   H427    1.109   .     S
C409   C411    1.407   .     A
C409   H431    1.081   .     S
C410   H436    1.081   .     S
C410   N439    1.364   .     A
C411   H437    1.081   .     S
C411   N440    1.364   .     A
C412   C414    1.407   .     A
C412   N439    1.364   .     A
C412   H438    1.081   .     S
C413   N440    1.364   .     A
C413   H418    1.081   .     S
C414   H419    1.081   .     S
Cu415  O444    1.952   .     S
Cu415  N440    2.009   .     S
Cu415  Cu416   2.675   .     S
Cu415  O441    1.951   .     S
Cu415  O448    1.960   .     S
Cu415  O445    1.958   .     S
Cu416  N439    2.009   .     S
Cu416  O442    1.951   .     S
Cu416  O446    1.958   .     S
Cu416  O443    1.952   .     S
Cu416  O447    1.960   .     S
H417   C455    1.087   .     S
H428   C520    1.087   1_455 S
C449   O505    1.292   .     A
C449   O507    1.292   .     A
C449   C462    1.456   .     S
C450   C452    1.411   .     A
C450   C477    1.407   .     A
C450   H484    1.081   .     S
C451   C478    1.411   .     A
C451   C471    1.411   .     A
C452   C473    1.411   .     A
C452   C67     1.517   1_556 S
C453   O511    1.287   .     A
C453   C455    1.434   .     S
C453   O509    1.285   .     A
C454   O510    1.285   .     A
C454   C456    1.434   .     S
C454   O512    1.287   .     A
C456   C519    1.335   .     S
C456   H556    1.087   .     S
C457   H485    1.084   .     S
C457   C459    1.389   .     A
C457   C468    1.401   .     A
C458   H486    1.084   .     S
C458   C469    1.401   .     A
C458   C461    1.388   .     A
C459   H496    1.083   .     S
C459   C462    1.398   .     A
C460   C463    1.457   .     S
C460   O506    1.292   .     A
C460   O508    1.292   .     A
C461   C463    1.398   .     A
C461   H497    1.083   .     S
C462   C464    1.401   .     A
C463   C465    1.401   .     A
C464   H498    1.084   .     S
C464   C466    1.399   .     A
C465   H499    1.084   .     S
C465   C467    1.399   .     A
C466   C468    1.413   .     A
C466   C470    1.507   .     S
C467   C472    1.507   .     S
C467   C469    1.413   .     A
C468   C661    1.466   1_545 S
C469   C660    1.466   .     S
C470   H488    1.109   .     S
C470   H489    1.111   .     S
C470   H487    1.111   .     S
C471   H494    1.081   .     S
C471   C474    1.407   .     A
C472   H490    1.110   .     S
C472   H493    1.111   .     S
C472   H491    1.109   .     S
C473   C475    1.407   .     A
C473   H495    1.081   .     S
C474   H500    1.081   .     S
C474   N503    1.364   .     A
C475   H501    1.081   .     S
C475   N504    1.364   .     A
C476   C478    1.407   .     A
C476   N503    1.364   .     A
C476   H502    1.081   .     S
C477   N504    1.364   .     A
C477   H482    1.081   .     S
C478   H483    1.081   .     S
Cu479  O508    1.952   .     S
Cu479  N504    2.009   .     S
Cu479  Cu480   2.675   .     S
Cu479  O505    1.951   .     S
Cu479  O512    1.960   .     S
Cu479  O509    1.958   .     S
Cu480  N503    2.009   .     S
Cu480  O506    1.951   .     S
Cu480  O510    1.958   .     S
Cu480  O507    1.952   .     S
Cu480  O511    1.960   .     S
H481   C519    1.087   .     S
C513   O569    1.292   .     A
C513   O571    1.292   .     A
C513   C526    1.456   .     S
C514   C516    1.411   .     A
C514   C541    1.407   .     A
C514   H548    1.081   .     S
C515   C542    1.411   .     A
C515   C535    1.411   .     A
C516   C537    1.411   .     A
C516   C131    1.517   1_556 S
C517   O575    1.287   .     A
C517   C519    1.434   .     S
C517   O573    1.285   .     A
C518   O574    1.285   .     A
C518   C520    1.434   .     S
C518   O576    1.287   .     A
C520   C391    1.335   1_655 S
C520   H428    1.087   1_655 S
C521   H549    1.084   .     S
C521   C523    1.389   .     A
C521   C532    1.401   .     A
C522   H550    1.084   .     S
C522   C533    1.401   .     A
C522   C525    1.388   .     A
C523   H560    1.083   .     S
C523   C526    1.398   .     A
C524   C527    1.457   .     S
C524   O570    1.292   .     A
C524   O572    1.292   .     A
C525   C527    1.398   .     A
C525   H561    1.083   .     S
C526   C528    1.401   .     A
C527   C529    1.401   .     A
C528   H562    1.084   .     S
C528   C530    1.399   .     A
C529   H563    1.084   .     S
C529   C531    1.399   .     A
C530   C532    1.413   .     A
C530   C534    1.507   .     S
C531   C536    1.507   .     S
C531   C533    1.413   .     A
C532   C725    1.466   1_545 S
C533   C724    1.466   .     S
C534   H552    1.109   .     S
C534   H553    1.111   .     S
C534   H551    1.111   .     S
C535   H558    1.081   .     S
C535   C538    1.407   .     A
C536   H554    1.110   .     S
C536   H557    1.111   .     S
C536   H555    1.109   .     S
C537   C539    1.407   .     A
C537   H559    1.081   .     S
C538   H564    1.081   .     S
C538   N567    1.364   .     A
C539   H565    1.081   .     S
C539   N568    1.364   .     A
C540   C542    1.407   .     A
C540   N567    1.364   .     A
C540   H566    1.081   .     S
C541   N568    1.364   .     A
C541   H546    1.081   .     S
C542   H547    1.081   .     S
Cu543  O572    1.952   .     S
Cu543  N568    2.009   .     S
Cu543  Cu544   2.675   .     S
Cu543  O569    1.951   .     S
Cu543  O576    1.960   .     S
Cu543  O573    1.958   .     S
Cu544  N567    2.009   .     S
Cu544  O570    1.951   .     S
Cu544  O574    1.958   .     S
Cu544  O571    1.952   .     S
Cu544  O575    1.960   .     S
H545   C391    1.087   1_655 S
C577   O633    1.292   .     A
C577   O635    1.292   .     A
C577   C590    1.456   .     S
C578   C580    1.411   .     A
C578   C605    1.407   .     A
C578   H612    1.081   .     S
C579   C606    1.411   .     A
C579   C599    1.411   .     A
C580   C601    1.411   .     A
C580   C195    1.517   1_556 S
C581   O639    1.287   .     A
C581   C583    1.434   .     S
C581   O637    1.285   .     A
C582   O638    1.285   .     A
C582   C584    1.434   .     S
C582   O640    1.287   .     A
C583   C712    1.335   1_455 S
C583   H737    1.087   1_455 S
C584   C647    1.335   .     S
C584   H684    1.087   .     S
C585   H613    1.084   .     S
C585   C587    1.389   .     A
C585   C596    1.401   .     A
C586   H614    1.084   .     S
C586   C597    1.401   .     A
C586   C589    1.388   .     A
C587   H624    1.083   .     S
C587   C590    1.398   .     A
C588   C591    1.457   .     S
C588   O634    1.292   .     A
C588   O636    1.292   .     A
C589   C591    1.398   .     A
C589   H625    1.083   .     S
C590   C592    1.401   .     A
C591   C593    1.401   .     A
C592   H626    1.084   .     S
C592   C594    1.399   .     A
C593   H627    1.084   .     S
C593   C595    1.399   .     A
C594   C596    1.413   .     A
C594   C598    1.507   .     S
C595   C600    1.507   .     S
C595   C597    1.413   .     A
C597   C404    1.466   1_565 S
C598   H616    1.109   .     S
C598   H617    1.111   .     S
C598   H615    1.111   .     S
C599   H622    1.081   .     S
C599   C602    1.407   .     A
C600   H618    1.110   .     S
C600   H621    1.111   .     S
C600   H619    1.109   .     S
C601   C603    1.407   .     A
C601   H623    1.081   .     S
C602   H628    1.081   .     S
C602   N631    1.364   .     A
C603   H629    1.081   .     S
C603   N632    1.364   .     A
C604   C606    1.407   .     A
C604   N631    1.364   .     A
C604   H630    1.081   .     S
C605   N632    1.364   .     A
C605   H610    1.081   .     S
C606   H611    1.081   .     S
Cu607  O636    1.952   .     S
Cu607  N632    2.009   .     S
Cu607  Cu608   2.675   .     S
Cu607  O633    1.951   .     S
Cu607  O640    1.960   .     S
Cu607  O637    1.958   .     S
Cu608  N631    2.009   .     S
Cu608  O634    1.951   .     S
Cu608  O638    1.958   .     S
Cu608  O635    1.952   .     S
Cu608  O639    1.960   .     S
H609   C647    1.087   .     S
H620   C712    1.087   1_455 S
C641   O697    1.292   .     A
C641   O699    1.292   .     A
C641   C654    1.456   .     S
C642   C644    1.411   .     A
C642   C669    1.407   .     A
C642   H676    1.081   .     S
C643   C670    1.411   .     A
C643   C663    1.411   .     A
C644   C665    1.411   .     A
C644   C259    1.517   1_556 S
C645   O703    1.287   .     A
C645   C647    1.434   .     S
C645   O701    1.285   .     A
C646   O702    1.285   .     A
C646   C648    1.434   .     S
C646   O704    1.287   .     A
C648   C711    1.335   .     S
C648   H748    1.087   .     S
C649   H677    1.084   .     S
C649   C651    1.389   .     A
C649   C660    1.401   .     A
C650   H678    1.084   .     S
C650   C661    1.401   .     A
C650   C653    1.388   .     A
C651   H688    1.083   .     S
C651   C654    1.398   .     A
C652   C655    1.457   .     S
C652   O698    1.292   .     A
C652   O700    1.292   .     A
C653   C655    1.398   .     A
C653   H689    1.083   .     S
C654   C656    1.401   .     A
C655   C657    1.401   .     A
C656   H690    1.084   .     S
C656   C658    1.399   .     A
C657   H691    1.084   .     S
C657   C659    1.399   .     A
C658   C660    1.413   .     A
C658   C662    1.507   .     S
C659   C664    1.507   .     S
C659   C661    1.413   .     A
C661   C468    1.466   1_565 S
C662   H680    1.109   .     S
C662   H681    1.111   .     S
C662   H679    1.111   .     S
C663   H686    1.081   .     S
C663   C666    1.407   .     A
C664   H682    1.110   .     S
C664   H685    1.111   .     S
C664   H683    1.109   .     S
C665   C667    1.407   .     A
C665   H687    1.081   .     S
C666   H692    1.081   .     S
C666   N695    1.364   .     A
C667   H693    1.081   .     S
C667   N696    1.364   .     A
C668   C670    1.407   .     A
C668   N695    1.364   .     A
C668   H694    1.081   .     S
C669   N696    1.364   .     A
C669   H674    1.081   .     S
C670   H675    1.081   .     S
Cu671  O700    1.952   .     S
Cu671  N696    2.009   .     S
Cu671  Cu672   2.675   .     S
Cu671  O697    1.951   .     S
Cu671  O704    1.960   .     S
Cu671  O701    1.958   .     S
Cu672  N695    2.009   .     S
Cu672  O698    1.951   .     S
Cu672  O702    1.958   .     S
Cu672  O699    1.952   .     S
Cu672  O703    1.960   .     S
H673   C711    1.087   .     S
C705   O761    1.292   .     A
C705   O763    1.292   .     A
C705   C718    1.456   .     S
C706   C708    1.411   .     A
C706   C733    1.407   .     A
C706   H740    1.081   .     S
C707   C734    1.411   .     A
C707   C727    1.411   .     A
C708   C729    1.411   .     A
C708   C323    1.517   1_556 S
C709   O767    1.287   .     A
C709   C711    1.434   .     S
C709   O765    1.285   .     A
C710   O766    1.285   .     A
C710   C712    1.434   .     S
C710   O768    1.287   .     A
C712   C583    1.335   1_655 S
C712   H620    1.087   1_655 S
C713   H741    1.084   .     S
C713   C715    1.389   .     A
C713   C724    1.401   .     A
C714   H742    1.084   .     S
C714   C725    1.401   .     A
C714   C717    1.388   .     A
C715   H752    1.083   .     S
C715   C718    1.398   .     A
C716   C719    1.457   .     S
C716   O762    1.292   .     A
C716   O764    1.292   .     A
C717   C719    1.398   .     A
C717   H753    1.083   .     S
C718   C720    1.401   .     A
C719   C721    1.401   .     A
C720   H754    1.084   .     S
C720   C722    1.399   .     A
C721   H755    1.084   .     S
C721   C723    1.399   .     A
C722   C724    1.413   .     A
C722   C726    1.507   .     S
C723   C728    1.507   .     S
C723   C725    1.413   .     A
C725   C532    1.466   1_565 S
C726   H744    1.109   .     S
C726   H745    1.111   .     S
C726   H743    1.111   .     S
C727   H750    1.081   .     S
C727   C730    1.407   .     A
C728   H746    1.110   .     S
C728   H749    1.111   .     S
C728   H747    1.109   .     S
C729   C731    1.407   .     A
C729   H751    1.081   .     S
C730   H756    1.081   .     S
C730   N759    1.364   .     A
C731   H757    1.081   .     S
C731   N760    1.364   .     A
C732   C734    1.407   .     A
C732   N759    1.364   .     A
C732   H758    1.081   .     S
C733   N760    1.364   .     A
C733   H738    1.081   .     S
C734   H739    1.081   .     S
Cu735  O764    1.952   .     S
Cu735  N760    2.009   .     S
Cu735  Cu736   2.675   .     S
Cu735  O761    1.951   .     S
Cu735  O768    1.960   .     S
Cu735  O765    1.958   .     S
Cu736  N759    2.009   .     S
Cu736  O762    1.951   .     S
Cu736  O766    1.958   .     S
Cu736  O763    1.952   .     S
Cu736  O767    1.960   .     S
H737   C583    1.087   1_655 S
