data_str_m2_o1_o16_pcu_sym.234
_audit_creation_date              2020-01-03
_audit_creation_method            'Materials Studio'
_symmetry_space_group_name_H-M    'P1'
_symmetry_Int_Tables_number       1
_symmetry_cell_setting            triclinic
loop_
_symmetry_equiv_pos_as_xyz
  x,y,z
_cell_length_a                    28.5757
_cell_length_b                    32.4959
_cell_length_c                    27.0308
_cell_angle_alpha                 90.4576
_cell_angle_beta                  72.6531
_cell_angle_gamma                 89.7702
loop_
_atom_site_label
_atom_site_type_symbol
_atom_site_fract_x
_atom_site_fract_y
_atom_site_fract_z
_atom_site_U_iso_or_equiv
_atom_site_adp_type
_atom_site_occupancy
C1     C     0.16660   0.24597   0.25009   0.00000  Uiso   1.00
C2     C     0.15016   0.15681   0.48582   0.00000  Uiso   1.00
C3     C     0.15839   0.17354   0.43562   0.00000  Uiso   1.00
C4     C     0.18417   0.16641   0.01334   0.00000  Uiso   1.00
C5     C     0.23028   0.18336   0.48678   0.00000  Uiso   1.00
C6     C     0.23765   0.19960   0.43762   0.00000  Uiso   1.00
C7     C     0.20031   0.19793   0.41460   0.00000  Uiso   1.00
C8     C     0.17158   0.16454   0.06738   0.00000  Uiso   1.00
C9     C     0.25592   0.17869   0.06418   0.00000  Uiso   1.00
C10    C     0.12545   0.16433   0.40688   0.00000  Uiso   1.00
C11    C     0.20867   0.31190   0.25170   0.00000  Uiso   1.00
C12    C     0.14052   0.16789   0.35003   0.00000  Uiso   1.00
C13    C     0.20875   0.02114   0.25160   0.00000  Uiso   1.00
C14    C     0.16673   0.04274   0.25002   0.00000  Uiso   1.00
C15    C     0.12461   0.02143   0.24852   0.00000  Uiso   1.00
C16    C     0.12453   0.31220   0.24858   0.00000  Uiso   1.00
C17    C     0.16656   0.29059   0.25015   0.00000  Uiso   1.00
C18    C     0.29921   0.19265   0.28175   0.00000  Uiso   1.00
C19    C     0.01513   0.19251   0.28229   0.00000  Uiso   1.00
C20    C     0.03408   0.14092   0.21774   0.00000  Uiso   1.00
C21    C     0.31780   0.14085   0.21779   0.00000  Uiso   1.00
C22    C     0.16672   0.08736   0.24997   0.00000  Uiso   1.00
C23    C     0.19277   0.16715   0.14998   0.00000  Uiso   1.00
C24    C     0.26662   0.18737   0.01161   0.00000  Uiso   1.00
C25    C     0.20752   0.16925   0.09307   0.00000  Uiso   1.00
C26    C     0.08174   0.14367   0.43083   0.00000  Uiso   1.00
C27    C     0.07445   0.12600   0.47906   0.00000  Uiso   1.00
C28    C     0.10987   0.12957   0.00482   0.00000  Uiso   1.00
Cu29   Cu    0.11978   0.16666   0.25000   0.00000  Uiso   1.00
Cu30   Cu    0.21355   0.16667   0.25000   0.00000  Uiso   1.00
H31    H     0.24165   0.03703   0.25281   0.00000  Uiso   1.00
H32    H     0.09175   0.03756   0.24722   0.00000  Uiso   1.00
H33    H     0.09166   0.29631   0.24730   0.00000  Uiso   1.00
H34    H     0.27319   0.21371   0.30670   0.00000  Uiso   1.00
H35    H     0.06018   0.12029   0.19193   0.00000  Uiso   1.00
H36    H     0.27096   0.21605   0.41851   0.00000  Uiso   1.00
H37    H     0.30275   0.19858   0.49077   0.00000  Uiso   1.00
H38    H     0.05563   0.13702   0.40992   0.00000  Uiso   1.00
H39    H     0.04312   0.10620   0.49421   0.00000  Uiso   1.00
H40    H     0.20497   0.21564   0.37988   0.00000  Uiso   1.00
H41    H     0.24152   0.29577   0.25301   0.00000  Uiso   1.00
N42    N     0.04931   0.16666   0.24999   0.00000  Uiso   1.00
N43    N     0.28402   0.16669   0.25000   0.00000  Uiso   1.00
O44    O     0.12708   0.22678   0.25001   0.00000  Uiso   1.00
O45    O     0.20627   0.22679   0.25001   0.00000  Uiso   1.00
O46    O     0.10775   0.16665   0.32549   0.00000  Uiso   1.00
O47    O     0.18694   0.16666   0.32549   0.00000  Uiso   1.00
O48    O     0.12706   0.10654   0.25000   0.00000  Uiso   1.00
O49    O     0.20625   0.10655   0.25000   0.00000  Uiso   1.00
O50    O     0.14640   0.16667   0.17451   0.00000  Uiso   1.00
O51    O     0.22559   0.16668   0.17451   0.00000  Uiso   1.00
F52    F     0.29169   0.18348   0.08735   0.00000  Uiso   1.00
Cl53   Cl    0.03057   0.22639   0.32576   0.00000  Uiso   1.00
F54    F     0.30390   0.11493   0.18532   0.00000  Uiso   1.00
F55    F     0.12328   0.16461   0.09500   0.00000  Uiso   1.00
Cl56   Cl    0.10713   0.09208   0.05265   0.00000  Uiso   1.00
C57    C     0.49993   0.24597   0.25009   0.00000  Uiso   1.00
C58    C     0.48350   0.15681   0.48582   0.00000  Uiso   1.00
C59    C     0.49172   0.17354   0.43562   0.00000  Uiso   1.00
C60    C     0.51751   0.16641   0.01334   0.00000  Uiso   1.00
C61    C     0.56361   0.18336   0.48678   0.00000  Uiso   1.00
C62    C     0.57098   0.19960   0.43762   0.00000  Uiso   1.00
C63    C     0.53365   0.19793   0.41460   0.00000  Uiso   1.00
C64    C     0.50492   0.16454   0.06738   0.00000  Uiso   1.00
C65    C     0.58925   0.17869   0.06418   0.00000  Uiso   1.00
C66    C     0.45879   0.16433   0.40688   0.00000  Uiso   1.00
C67    C     0.54200   0.31190   0.25170   0.00000  Uiso   1.00
C68    C     0.47385   0.16789   0.35003   0.00000  Uiso   1.00
C69    C     0.54209   0.02114   0.25160   0.00000  Uiso   1.00
C70    C     0.50006   0.04274   0.25002   0.00000  Uiso   1.00
C71    C     0.45794   0.02143   0.24852   0.00000  Uiso   1.00
C72    C     0.45787   0.31220   0.24858   0.00000  Uiso   1.00
C73    C     0.49990   0.29059   0.25015   0.00000  Uiso   1.00
C74    C     0.63254   0.19265   0.28175   0.00000  Uiso   1.00
C75    C     0.34846   0.19251   0.28229   0.00000  Uiso   1.00
C76    C     0.36741   0.14092   0.21774   0.00000  Uiso   1.00
C77    C     0.65114   0.14085   0.21779   0.00000  Uiso   1.00
C78    C     0.50005   0.08736   0.24997   0.00000  Uiso   1.00
C79    C     0.52610   0.16715   0.14998   0.00000  Uiso   1.00
C80    C     0.59996   0.18737   0.01161   0.00000  Uiso   1.00
C81    C     0.54085   0.16925   0.09307   0.00000  Uiso   1.00
C82    C     0.41507   0.14367   0.43083   0.00000  Uiso   1.00
C83    C     0.40778   0.12600   0.47906   0.00000  Uiso   1.00
C84    C     0.44321   0.12957   0.00482   0.00000  Uiso   1.00
Cu85   Cu    0.45311   0.16666   0.25000   0.00000  Uiso   1.00
Cu86   Cu    0.54689   0.16667   0.25000   0.00000  Uiso   1.00
H87    H     0.57498   0.03703   0.25281   0.00000  Uiso   1.00
H88    H     0.42509   0.03756   0.24722   0.00000  Uiso   1.00
H89    H     0.42499   0.29631   0.24730   0.00000  Uiso   1.00
H90    H     0.60652   0.21371   0.30670   0.00000  Uiso   1.00
H91    H     0.39351   0.12029   0.19193   0.00000  Uiso   1.00
H92    H     0.60429   0.21605   0.41851   0.00000  Uiso   1.00
H93    H     0.63608   0.19858   0.49077   0.00000  Uiso   1.00
H94    H     0.38896   0.13702   0.40992   0.00000  Uiso   1.00
H95    H     0.37645   0.10620   0.49421   0.00000  Uiso   1.00
H96    H     0.53830   0.21564   0.37988   0.00000  Uiso   1.00
H97    H     0.57485   0.29577   0.25301   0.00000  Uiso   1.00
N98    N     0.38265   0.16666   0.24999   0.00000  Uiso   1.00
N99    N     0.61735   0.16669   0.25000   0.00000  Uiso   1.00
O100   O     0.46042   0.22678   0.25001   0.00000  Uiso   1.00
O101   O     0.53961   0.22679   0.25001   0.00000  Uiso   1.00
O102   O     0.44108   0.16665   0.32549   0.00000  Uiso   1.00
O103   O     0.52027   0.16666   0.32549   0.00000  Uiso   1.00
O104   O     0.46039   0.10654   0.25000   0.00000  Uiso   1.00
O105   O     0.53958   0.10655   0.25000   0.00000  Uiso   1.00
O106   O     0.47973   0.16667   0.17451   0.00000  Uiso   1.00
O107   O     0.55892   0.16668   0.17451   0.00000  Uiso   1.00
F108   F     0.62502   0.18348   0.08735   0.00000  Uiso   1.00
Cl109  Cl    0.36390   0.22639   0.32576   0.00000  Uiso   1.00
F110   F     0.63724   0.11493   0.18532   0.00000  Uiso   1.00
F111   F     0.45662   0.16461   0.09500   0.00000  Uiso   1.00
Cl112  Cl    0.44046   0.09208   0.05265   0.00000  Uiso   1.00
C113   C     0.83327   0.24597   0.25009   0.00000  Uiso   1.00
C114   C     0.81683   0.15681   0.48582   0.00000  Uiso   1.00
C115   C     0.82505   0.17354   0.43562   0.00000  Uiso   1.00
C116   C     0.85084   0.16641   0.01334   0.00000  Uiso   1.00
C117   C     0.89694   0.18336   0.48678   0.00000  Uiso   1.00
C118   C     0.90432   0.19960   0.43762   0.00000  Uiso   1.00
C119   C     0.86698   0.19793   0.41460   0.00000  Uiso   1.00
C120   C     0.83825   0.16454   0.06738   0.00000  Uiso   1.00
C121   C     0.92258   0.17869   0.06418   0.00000  Uiso   1.00
C122   C     0.79212   0.16433   0.40688   0.00000  Uiso   1.00
C123   C     0.87533   0.31190   0.25170   0.00000  Uiso   1.00
C124   C     0.80718   0.16789   0.35003   0.00000  Uiso   1.00
C125   C     0.87542   0.02114   0.25160   0.00000  Uiso   1.00
C126   C     0.83339   0.04274   0.25002   0.00000  Uiso   1.00
C127   C     0.79128   0.02143   0.24852   0.00000  Uiso   1.00
C128   C     0.79120   0.31220   0.24858   0.00000  Uiso   1.00
C129   C     0.83323   0.29059   0.25015   0.00000  Uiso   1.00
C130   C     0.96587   0.19265   0.28175   0.00000  Uiso   1.00
C131   C     0.68180   0.19251   0.28229   0.00000  Uiso   1.00
C132   C     0.70074   0.14092   0.21774   0.00000  Uiso   1.00
C133   C     0.98447   0.14085   0.21779   0.00000  Uiso   1.00
C134   C     0.83339   0.08736   0.24997   0.00000  Uiso   1.00
C135   C     0.85944   0.16715   0.14998   0.00000  Uiso   1.00
C136   C     0.93329   0.18737   0.01161   0.00000  Uiso   1.00
C137   C     0.87418   0.16925   0.09307   0.00000  Uiso   1.00
C138   C     0.74841   0.14367   0.43083   0.00000  Uiso   1.00
C139   C     0.74112   0.12600   0.47906   0.00000  Uiso   1.00
C140   C     0.77654   0.12957   0.00482   0.00000  Uiso   1.00
Cu141  Cu    0.78645   0.16666   0.25000   0.00000  Uiso   1.00
Cu142  Cu    0.88022   0.16667   0.25000   0.00000  Uiso   1.00
H143   H     0.90832   0.03703   0.25281   0.00000  Uiso   1.00
H144   H     0.75842   0.03756   0.24722   0.00000  Uiso   1.00
H145   H     0.75832   0.29631   0.24730   0.00000  Uiso   1.00
H146   H     0.93986   0.21371   0.30670   0.00000  Uiso   1.00
H147   H     0.72684   0.12029   0.19193   0.00000  Uiso   1.00
H148   H     0.93762   0.21605   0.41851   0.00000  Uiso   1.00
H149   H     0.96942   0.19858   0.49077   0.00000  Uiso   1.00
H150   H     0.72230   0.13702   0.40992   0.00000  Uiso   1.00
H151   H     0.70979   0.10620   0.49421   0.00000  Uiso   1.00
H152   H     0.87164   0.21564   0.37988   0.00000  Uiso   1.00
H153   H     0.90819   0.29577   0.25301   0.00000  Uiso   1.00
N154   N     0.71598   0.16666   0.24999   0.00000  Uiso   1.00
N155   N     0.95069   0.16669   0.25000   0.00000  Uiso   1.00
O156   O     0.79375   0.22678   0.25001   0.00000  Uiso   1.00
O157   O     0.87294   0.22679   0.25001   0.00000  Uiso   1.00
O158   O     0.77441   0.16665   0.32549   0.00000  Uiso   1.00
O159   O     0.85360   0.16666   0.32549   0.00000  Uiso   1.00
O160   O     0.79373   0.10654   0.25000   0.00000  Uiso   1.00
O161   O     0.87292   0.10655   0.25000   0.00000  Uiso   1.00
O162   O     0.81306   0.16667   0.17451   0.00000  Uiso   1.00
O163   O     0.89225   0.16668   0.17451   0.00000  Uiso   1.00
F164   F     0.95836   0.18348   0.08735   0.00000  Uiso   1.00
Cl165  Cl    0.69724   0.22639   0.32576   0.00000  Uiso   1.00
F166   F     0.97057   0.11493   0.18532   0.00000  Uiso   1.00
F167   F     0.78995   0.16461   0.09500   0.00000  Uiso   1.00
Cl168  Cl    0.77379   0.09208   0.05265   0.00000  Uiso   1.00
C169   C     0.16660   0.57930   0.25009   0.00000  Uiso   1.00
C170   C     0.15016   0.49014   0.48582   0.00000  Uiso   1.00
C171   C     0.15839   0.50687   0.43562   0.00000  Uiso   1.00
C172   C     0.18417   0.49974   0.01334   0.00000  Uiso   1.00
C173   C     0.23028   0.51670   0.48678   0.00000  Uiso   1.00
C174   C     0.23765   0.53293   0.43762   0.00000  Uiso   1.00
C175   C     0.20031   0.53127   0.41460   0.00000  Uiso   1.00
C176   C     0.17158   0.49787   0.06738   0.00000  Uiso   1.00
C177   C     0.25592   0.51203   0.06418   0.00000  Uiso   1.00
C178   C     0.12545   0.49766   0.40688   0.00000  Uiso   1.00
C179   C     0.20867   0.64523   0.25170   0.00000  Uiso   1.00
C180   C     0.14052   0.50123   0.35003   0.00000  Uiso   1.00
C181   C     0.20875   0.35447   0.25160   0.00000  Uiso   1.00
C182   C     0.16673   0.37608   0.25002   0.00000  Uiso   1.00
C183   C     0.12461   0.35477   0.24852   0.00000  Uiso   1.00
C184   C     0.12453   0.64553   0.24858   0.00000  Uiso   1.00
C185   C     0.16656   0.62392   0.25015   0.00000  Uiso   1.00
C186   C     0.29921   0.52598   0.28175   0.00000  Uiso   1.00
C187   C     0.01513   0.52584   0.28229   0.00000  Uiso   1.00
C188   C     0.03408   0.47425   0.21774   0.00000  Uiso   1.00
C189   C     0.31780   0.47418   0.21779   0.00000  Uiso   1.00
C190   C     0.16672   0.42070   0.24997   0.00000  Uiso   1.00
C191   C     0.19277   0.50049   0.14998   0.00000  Uiso   1.00
C192   C     0.26662   0.52070   0.01161   0.00000  Uiso   1.00
C193   C     0.20752   0.50258   0.09307   0.00000  Uiso   1.00
C194   C     0.08174   0.47700   0.43083   0.00000  Uiso   1.00
C195   C     0.07445   0.45933   0.47906   0.00000  Uiso   1.00
C196   C     0.10987   0.46290   0.00482   0.00000  Uiso   1.00
Cu197  Cu    0.11978   0.49999   0.25000   0.00000  Uiso   1.00
Cu198  Cu    0.21355   0.50001   0.25000   0.00000  Uiso   1.00
H199   H     0.24165   0.37037   0.25281   0.00000  Uiso   1.00
H200   H     0.09175   0.37089   0.24722   0.00000  Uiso   1.00
H201   H     0.09166   0.62964   0.24730   0.00000  Uiso   1.00
H202   H     0.27319   0.54705   0.30670   0.00000  Uiso   1.00
H203   H     0.06018   0.45363   0.19193   0.00000  Uiso   1.00
H204   H     0.27096   0.54939   0.41851   0.00000  Uiso   1.00
H205   H     0.30275   0.53191   0.49077   0.00000  Uiso   1.00
H206   H     0.05563   0.47035   0.40992   0.00000  Uiso   1.00
H207   H     0.04312   0.43954   0.49421   0.00000  Uiso   1.00
H208   H     0.20497   0.54897   0.37988   0.00000  Uiso   1.00
H209   H     0.24152   0.62910   0.25301   0.00000  Uiso   1.00
N210   N     0.04931   0.49999   0.24999   0.00000  Uiso   1.00
N211   N     0.28402   0.50002   0.25000   0.00000  Uiso   1.00
O212   O     0.12708   0.56011   0.25001   0.00000  Uiso   1.00
O213   O     0.20627   0.56012   0.25001   0.00000  Uiso   1.00
O214   O     0.10775   0.49998   0.32549   0.00000  Uiso   1.00
O215   O     0.18694   0.49999   0.32549   0.00000  Uiso   1.00
O216   O     0.12706   0.43988   0.25000   0.00000  Uiso   1.00
O217   O     0.20625   0.43989   0.25000   0.00000  Uiso   1.00
O218   O     0.14640   0.50001   0.17451   0.00000  Uiso   1.00
O219   O     0.22559   0.50002   0.17451   0.00000  Uiso   1.00
F220   F     0.29169   0.51681   0.08735   0.00000  Uiso   1.00
Cl221  Cl    0.03057   0.55972   0.32576   0.00000  Uiso   1.00
F222   F     0.30390   0.44827   0.18532   0.00000  Uiso   1.00
F223   F     0.12328   0.49794   0.09500   0.00000  Uiso   1.00
Cl224  Cl    0.10713   0.42541   0.05265   0.00000  Uiso   1.00
C225   C     0.49993   0.57930   0.25009   0.00000  Uiso   1.00
C226   C     0.48350   0.49014   0.48582   0.00000  Uiso   1.00
C227   C     0.49172   0.50687   0.43562   0.00000  Uiso   1.00
C228   C     0.51751   0.49974   0.01334   0.00000  Uiso   1.00
C229   C     0.56361   0.51670   0.48678   0.00000  Uiso   1.00
C230   C     0.57098   0.53293   0.43762   0.00000  Uiso   1.00
C231   C     0.53365   0.53127   0.41460   0.00000  Uiso   1.00
C232   C     0.50492   0.49787   0.06738   0.00000  Uiso   1.00
C233   C     0.58925   0.51203   0.06418   0.00000  Uiso   1.00
C234   C     0.45879   0.49766   0.40688   0.00000  Uiso   1.00
C235   C     0.54200   0.64523   0.25170   0.00000  Uiso   1.00
C236   C     0.47385   0.50123   0.35003   0.00000  Uiso   1.00
C237   C     0.54209   0.35447   0.25160   0.00000  Uiso   1.00
C238   C     0.50006   0.37608   0.25002   0.00000  Uiso   1.00
C239   C     0.45794   0.35477   0.24852   0.00000  Uiso   1.00
C240   C     0.45787   0.64553   0.24858   0.00000  Uiso   1.00
C241   C     0.49990   0.62392   0.25015   0.00000  Uiso   1.00
C242   C     0.63254   0.52598   0.28175   0.00000  Uiso   1.00
C243   C     0.34846   0.52584   0.28229   0.00000  Uiso   1.00
C244   C     0.36741   0.47425   0.21774   0.00000  Uiso   1.00
C245   C     0.65114   0.47418   0.21779   0.00000  Uiso   1.00
C246   C     0.50005   0.42070   0.24997   0.00000  Uiso   1.00
C247   C     0.52610   0.50049   0.14998   0.00000  Uiso   1.00
C248   C     0.59996   0.52070   0.01161   0.00000  Uiso   1.00
C249   C     0.54085   0.50258   0.09307   0.00000  Uiso   1.00
C250   C     0.41507   0.47700   0.43083   0.00000  Uiso   1.00
C251   C     0.40778   0.45933   0.47906   0.00000  Uiso   1.00
C252   C     0.44321   0.46290   0.00482   0.00000  Uiso   1.00
Cu253  Cu    0.45311   0.49999   0.25000   0.00000  Uiso   1.00
Cu254  Cu    0.54689   0.50001   0.25000   0.00000  Uiso   1.00
H255   H     0.57498   0.37037   0.25281   0.00000  Uiso   1.00
H256   H     0.42509   0.37089   0.24722   0.00000  Uiso   1.00
H257   H     0.42499   0.62964   0.24730   0.00000  Uiso   1.00
H258   H     0.60652   0.54705   0.30670   0.00000  Uiso   1.00
H259   H     0.39351   0.45363   0.19193   0.00000  Uiso   1.00
H260   H     0.60429   0.54939   0.41851   0.00000  Uiso   1.00
H261   H     0.63608   0.53191   0.49077   0.00000  Uiso   1.00
H262   H     0.38896   0.47035   0.40992   0.00000  Uiso   1.00
H263   H     0.37645   0.43954   0.49421   0.00000  Uiso   1.00
H264   H     0.53830   0.54897   0.37988   0.00000  Uiso   1.00
H265   H     0.57485   0.62910   0.25301   0.00000  Uiso   1.00
N266   N     0.38265   0.49999   0.24999   0.00000  Uiso   1.00
N267   N     0.61735   0.50002   0.25000   0.00000  Uiso   1.00
O268   O     0.46042   0.56011   0.25001   0.00000  Uiso   1.00
O269   O     0.53961   0.56012   0.25001   0.00000  Uiso   1.00
O270   O     0.44108   0.49998   0.32549   0.00000  Uiso   1.00
O271   O     0.52027   0.49999   0.32549   0.00000  Uiso   1.00
O272   O     0.46039   0.43988   0.25000   0.00000  Uiso   1.00
O273   O     0.53958   0.43989   0.25000   0.00000  Uiso   1.00
O274   O     0.47973   0.50001   0.17451   0.00000  Uiso   1.00
O275   O     0.55892   0.50002   0.17451   0.00000  Uiso   1.00
F276   F     0.62502   0.51681   0.08735   0.00000  Uiso   1.00
Cl277  Cl    0.36390   0.55972   0.32576   0.00000  Uiso   1.00
F278   F     0.63724   0.44827   0.18532   0.00000  Uiso   1.00
F279   F     0.45662   0.49794   0.09500   0.00000  Uiso   1.00
Cl280  Cl    0.44046   0.42541   0.05265   0.00000  Uiso   1.00
C281   C     0.83327   0.57930   0.25009   0.00000  Uiso   1.00
C282   C     0.81683   0.49014   0.48582   0.00000  Uiso   1.00
C283   C     0.82505   0.50687   0.43562   0.00000  Uiso   1.00
C284   C     0.85084   0.49974   0.01334   0.00000  Uiso   1.00
C285   C     0.89694   0.51670   0.48678   0.00000  Uiso   1.00
C286   C     0.90432   0.53293   0.43762   0.00000  Uiso   1.00
C287   C     0.86698   0.53127   0.41460   0.00000  Uiso   1.00
C288   C     0.83825   0.49787   0.06738   0.00000  Uiso   1.00
C289   C     0.92258   0.51203   0.06418   0.00000  Uiso   1.00
C290   C     0.79212   0.49766   0.40688   0.00000  Uiso   1.00
C291   C     0.87533   0.64523   0.25170   0.00000  Uiso   1.00
C292   C     0.80718   0.50123   0.35003   0.00000  Uiso   1.00
C293   C     0.87542   0.35447   0.25160   0.00000  Uiso   1.00
C294   C     0.83339   0.37608   0.25002   0.00000  Uiso   1.00
C295   C     0.79128   0.35477   0.24852   0.00000  Uiso   1.00
C296   C     0.79120   0.64553   0.24858   0.00000  Uiso   1.00
C297   C     0.83323   0.62392   0.25015   0.00000  Uiso   1.00
C298   C     0.96587   0.52598   0.28175   0.00000  Uiso   1.00
C299   C     0.68180   0.52584   0.28229   0.00000  Uiso   1.00
C300   C     0.70074   0.47425   0.21774   0.00000  Uiso   1.00
C301   C     0.98447   0.47418   0.21779   0.00000  Uiso   1.00
C302   C     0.83339   0.42070   0.24997   0.00000  Uiso   1.00
C303   C     0.85944   0.50049   0.14998   0.00000  Uiso   1.00
C304   C     0.93329   0.52070   0.01161   0.00000  Uiso   1.00
C305   C     0.87418   0.50258   0.09307   0.00000  Uiso   1.00
C306   C     0.74841   0.47700   0.43083   0.00000  Uiso   1.00
C307   C     0.74112   0.45933   0.47906   0.00000  Uiso   1.00
C308   C     0.77654   0.46290   0.00482   0.00000  Uiso   1.00
Cu309  Cu    0.78645   0.49999   0.25000   0.00000  Uiso   1.00
Cu310  Cu    0.88022   0.50001   0.25000   0.00000  Uiso   1.00
H311   H     0.90832   0.37037   0.25281   0.00000  Uiso   1.00
H312   H     0.75842   0.37089   0.24722   0.00000  Uiso   1.00
H313   H     0.75832   0.62964   0.24730   0.00000  Uiso   1.00
H314   H     0.93986   0.54705   0.30670   0.00000  Uiso   1.00
H315   H     0.72684   0.45363   0.19193   0.00000  Uiso   1.00
H316   H     0.93762   0.54939   0.41851   0.00000  Uiso   1.00
H317   H     0.96942   0.53191   0.49077   0.00000  Uiso   1.00
H318   H     0.72230   0.47035   0.40992   0.00000  Uiso   1.00
H319   H     0.70979   0.43954   0.49421   0.00000  Uiso   1.00
H320   H     0.87164   0.54897   0.37988   0.00000  Uiso   1.00
H321   H     0.90819   0.62910   0.25301   0.00000  Uiso   1.00
N322   N     0.71598   0.49999   0.24999   0.00000  Uiso   1.00
N323   N     0.95069   0.50002   0.25000   0.00000  Uiso   1.00
O324   O     0.79375   0.56011   0.25001   0.00000  Uiso   1.00
O325   O     0.87294   0.56012   0.25001   0.00000  Uiso   1.00
O326   O     0.77441   0.49998   0.32549   0.00000  Uiso   1.00
O327   O     0.85360   0.49999   0.32549   0.00000  Uiso   1.00
O328   O     0.79373   0.43988   0.25000   0.00000  Uiso   1.00
O329   O     0.87292   0.43989   0.25000   0.00000  Uiso   1.00
O330   O     0.81306   0.50001   0.17451   0.00000  Uiso   1.00
O331   O     0.89225   0.50002   0.17451   0.00000  Uiso   1.00
F332   F     0.95836   0.51681   0.08735   0.00000  Uiso   1.00
Cl333  Cl    0.69724   0.55972   0.32576   0.00000  Uiso   1.00
F334   F     0.97057   0.44827   0.18532   0.00000  Uiso   1.00
F335   F     0.78995   0.49794   0.09500   0.00000  Uiso   1.00
Cl336  Cl    0.77379   0.42541   0.05265   0.00000  Uiso   1.00
C337   C     0.16660   0.91264   0.25009   0.00000  Uiso   1.00
C338   C     0.15016   0.82348   0.48582   0.00000  Uiso   1.00
C339   C     0.15839   0.84020   0.43562   0.00000  Uiso   1.00
C340   C     0.18417   0.83307   0.01334   0.00000  Uiso   1.00
C341   C     0.23028   0.85003   0.48678   0.00000  Uiso   1.00
C342   C     0.23765   0.86626   0.43762   0.00000  Uiso   1.00
C343   C     0.20031   0.86460   0.41460   0.00000  Uiso   1.00
C344   C     0.17158   0.83121   0.06738   0.00000  Uiso   1.00
C345   C     0.25592   0.84536   0.06418   0.00000  Uiso   1.00
C346   C     0.12545   0.83099   0.40688   0.00000  Uiso   1.00
C347   C     0.20867   0.97856   0.25170   0.00000  Uiso   1.00
C348   C     0.14052   0.83456   0.35003   0.00000  Uiso   1.00
C349   C     0.20875   0.68780   0.25160   0.00000  Uiso   1.00
C350   C     0.16673   0.70941   0.25002   0.00000  Uiso   1.00
C351   C     0.12461   0.68810   0.24852   0.00000  Uiso   1.00
C352   C     0.12453   0.97886   0.24858   0.00000  Uiso   1.00
C353   C     0.16656   0.95726   0.25015   0.00000  Uiso   1.00
C354   C     0.29921   0.85931   0.28175   0.00000  Uiso   1.00
C355   C     0.01513   0.85917   0.28229   0.00000  Uiso   1.00
C356   C     0.03408   0.80759   0.21774   0.00000  Uiso   1.00
C357   C     0.31780   0.80751   0.21779   0.00000  Uiso   1.00
C358   C     0.16672   0.75403   0.24997   0.00000  Uiso   1.00
C359   C     0.19277   0.83382   0.14998   0.00000  Uiso   1.00
C360   C     0.26662   0.85403   0.01161   0.00000  Uiso   1.00
C361   C     0.20752   0.83591   0.09307   0.00000  Uiso   1.00
C362   C     0.08174   0.81033   0.43083   0.00000  Uiso   1.00
C363   C     0.07445   0.79267   0.47906   0.00000  Uiso   1.00
C364   C     0.10987   0.79624   0.00482   0.00000  Uiso   1.00
Cu365  Cu    0.11978   0.83333   0.25000   0.00000  Uiso   1.00
Cu366  Cu    0.21355   0.83334   0.25000   0.00000  Uiso   1.00
H367   H     0.24165   0.70370   0.25281   0.00000  Uiso   1.00
H368   H     0.09175   0.70423   0.24722   0.00000  Uiso   1.00
H369   H     0.09166   0.96298   0.24730   0.00000  Uiso   1.00
H370   H     0.27319   0.88038   0.30670   0.00000  Uiso   1.00
H371   H     0.06018   0.78696   0.19193   0.00000  Uiso   1.00
H372   H     0.27096   0.88272   0.41851   0.00000  Uiso   1.00
H373   H     0.30275   0.86525   0.49077   0.00000  Uiso   1.00
H374   H     0.05563   0.80369   0.40992   0.00000  Uiso   1.00
H375   H     0.04312   0.77287   0.49421   0.00000  Uiso   1.00
H376   H     0.20497   0.88230   0.37988   0.00000  Uiso   1.00
H377   H     0.24152   0.96244   0.25301   0.00000  Uiso   1.00
N378   N     0.04931   0.83332   0.24999   0.00000  Uiso   1.00
N379   N     0.28402   0.83335   0.25000   0.00000  Uiso   1.00
O380   O     0.12708   0.89345   0.25001   0.00000  Uiso   1.00
O381   O     0.20627   0.89346   0.25001   0.00000  Uiso   1.00
O382   O     0.10775   0.83332   0.32549   0.00000  Uiso   1.00
O383   O     0.18694   0.83333   0.32549   0.00000  Uiso   1.00
O384   O     0.12706   0.77321   0.25000   0.00000  Uiso   1.00
O385   O     0.20625   0.77322   0.25000   0.00000  Uiso   1.00
O386   O     0.14640   0.83334   0.17451   0.00000  Uiso   1.00
O387   O     0.22559   0.83335   0.17451   0.00000  Uiso   1.00
F388   F     0.29169   0.85014   0.08735   0.00000  Uiso   1.00
Cl389  Cl    0.03057   0.89305   0.32576   0.00000  Uiso   1.00
F390   F     0.30390   0.78160   0.18532   0.00000  Uiso   1.00
F391   F     0.12328   0.83127   0.09500   0.00000  Uiso   1.00
Cl392  Cl    0.10713   0.75875   0.05265   0.00000  Uiso   1.00
C393   C     0.49993   0.91264   0.25009   0.00000  Uiso   1.00
C394   C     0.48350   0.82348   0.48582   0.00000  Uiso   1.00
C395   C     0.49172   0.84020   0.43562   0.00000  Uiso   1.00
C396   C     0.51751   0.83307   0.01334   0.00000  Uiso   1.00
C397   C     0.56361   0.85003   0.48678   0.00000  Uiso   1.00
C398   C     0.57098   0.86626   0.43762   0.00000  Uiso   1.00
C399   C     0.53365   0.86460   0.41460   0.00000  Uiso   1.00
C400   C     0.50492   0.83121   0.06738   0.00000  Uiso   1.00
C401   C     0.58925   0.84536   0.06418   0.00000  Uiso   1.00
C402   C     0.45879   0.83099   0.40688   0.00000  Uiso   1.00
C403   C     0.54200   0.97856   0.25170   0.00000  Uiso   1.00
C404   C     0.47385   0.83456   0.35003   0.00000  Uiso   1.00
C405   C     0.54209   0.68780   0.25160   0.00000  Uiso   1.00
C406   C     0.50006   0.70941   0.25002   0.00000  Uiso   1.00
C407   C     0.45794   0.68810   0.24852   0.00000  Uiso   1.00
C408   C     0.45787   0.97886   0.24858   0.00000  Uiso   1.00
C409   C     0.49990   0.95726   0.25015   0.00000  Uiso   1.00
C410   C     0.63254   0.85931   0.28175   0.00000  Uiso   1.00
C411   C     0.34846   0.85917   0.28229   0.00000  Uiso   1.00
C412   C     0.36741   0.80759   0.21774   0.00000  Uiso   1.00
C413   C     0.65114   0.80751   0.21779   0.00000  Uiso   1.00
C414   C     0.50005   0.75403   0.24997   0.00000  Uiso   1.00
C415   C     0.52610   0.83382   0.14998   0.00000  Uiso   1.00
C416   C     0.59996   0.85403   0.01161   0.00000  Uiso   1.00
C417   C     0.54085   0.83591   0.09307   0.00000  Uiso   1.00
C418   C     0.41507   0.81033   0.43083   0.00000  Uiso   1.00
C419   C     0.40778   0.79267   0.47906   0.00000  Uiso   1.00
C420   C     0.44321   0.79624   0.00482   0.00000  Uiso   1.00
Cu421  Cu    0.45311   0.83333   0.25000   0.00000  Uiso   1.00
Cu422  Cu    0.54689   0.83334   0.25000   0.00000  Uiso   1.00
H423   H     0.57498   0.70370   0.25281   0.00000  Uiso   1.00
H424   H     0.42509   0.70423   0.24722   0.00000  Uiso   1.00
H425   H     0.42499   0.96298   0.24730   0.00000  Uiso   1.00
H426   H     0.60652   0.88038   0.30670   0.00000  Uiso   1.00
H427   H     0.39351   0.78696   0.19193   0.00000  Uiso   1.00
H428   H     0.60429   0.88272   0.41851   0.00000  Uiso   1.00
H429   H     0.63608   0.86525   0.49077   0.00000  Uiso   1.00
H430   H     0.38896   0.80369   0.40992   0.00000  Uiso   1.00
H431   H     0.37645   0.77287   0.49421   0.00000  Uiso   1.00
H432   H     0.53830   0.88230   0.37988   0.00000  Uiso   1.00
H433   H     0.57485   0.96244   0.25301   0.00000  Uiso   1.00
N434   N     0.38265   0.83332   0.24999   0.00000  Uiso   1.00
N435   N     0.61735   0.83335   0.25000   0.00000  Uiso   1.00
O436   O     0.46042   0.89345   0.25001   0.00000  Uiso   1.00
O437   O     0.53961   0.89346   0.25001   0.00000  Uiso   1.00
O438   O     0.44108   0.83332   0.32549   0.00000  Uiso   1.00
O439   O     0.52027   0.83333   0.32549   0.00000  Uiso   1.00
O440   O     0.46039   0.77321   0.25000   0.00000  Uiso   1.00
O441   O     0.53958   0.77322   0.25000   0.00000  Uiso   1.00
O442   O     0.47973   0.83334   0.17451   0.00000  Uiso   1.00
O443   O     0.55892   0.83335   0.17451   0.00000  Uiso   1.00
F444   F     0.62502   0.85014   0.08735   0.00000  Uiso   1.00
Cl445  Cl    0.36390   0.89305   0.32576   0.00000  Uiso   1.00
F446   F     0.63724   0.78160   0.18532   0.00000  Uiso   1.00
F447   F     0.45662   0.83127   0.09500   0.00000  Uiso   1.00
Cl448  Cl    0.44046   0.75875   0.05265   0.00000  Uiso   1.00
C449   C     0.83327   0.91264   0.25009   0.00000  Uiso   1.00
C450   C     0.81683   0.82348   0.48582   0.00000  Uiso   1.00
C451   C     0.82505   0.84020   0.43562   0.00000  Uiso   1.00
C452   C     0.85084   0.83307   0.01334   0.00000  Uiso   1.00
C453   C     0.89694   0.85003   0.48678   0.00000  Uiso   1.00
C454   C     0.90432   0.86626   0.43762   0.00000  Uiso   1.00
C455   C     0.86698   0.86460   0.41460   0.00000  Uiso   1.00
C456   C     0.83825   0.83121   0.06738   0.00000  Uiso   1.00
C457   C     0.92258   0.84536   0.06418   0.00000  Uiso   1.00
C458   C     0.79212   0.83099   0.40688   0.00000  Uiso   1.00
C459   C     0.87533   0.97856   0.25170   0.00000  Uiso   1.00
C460   C     0.80718   0.83456   0.35003   0.00000  Uiso   1.00
C461   C     0.87542   0.68780   0.25160   0.00000  Uiso   1.00
C462   C     0.83339   0.70941   0.25002   0.00000  Uiso   1.00
C463   C     0.79128   0.68810   0.24852   0.00000  Uiso   1.00
C464   C     0.79120   0.97886   0.24858   0.00000  Uiso   1.00
C465   C     0.83323   0.95726   0.25015   0.00000  Uiso   1.00
C466   C     0.96587   0.85931   0.28175   0.00000  Uiso   1.00
C467   C     0.68180   0.85917   0.28229   0.00000  Uiso   1.00
C468   C     0.70074   0.80759   0.21774   0.00000  Uiso   1.00
C469   C     0.98447   0.80751   0.21779   0.00000  Uiso   1.00
C470   C     0.83339   0.75403   0.24997   0.00000  Uiso   1.00
C471   C     0.85944   0.83382   0.14998   0.00000  Uiso   1.00
C472   C     0.93329   0.85403   0.01161   0.00000  Uiso   1.00
C473   C     0.87418   0.83591   0.09307   0.00000  Uiso   1.00
C474   C     0.74841   0.81033   0.43083   0.00000  Uiso   1.00
C475   C     0.74112   0.79267   0.47906   0.00000  Uiso   1.00
C476   C     0.77654   0.79624   0.00482   0.00000  Uiso   1.00
Cu477  Cu    0.78645   0.83333   0.25000   0.00000  Uiso   1.00
Cu478  Cu    0.88022   0.83334   0.25000   0.00000  Uiso   1.00
H479   H     0.90832   0.70370   0.25281   0.00000  Uiso   1.00
H480   H     0.75842   0.70423   0.24722   0.00000  Uiso   1.00
H481   H     0.75832   0.96298   0.24730   0.00000  Uiso   1.00
H482   H     0.93986   0.88038   0.30670   0.00000  Uiso   1.00
H483   H     0.72684   0.78696   0.19193   0.00000  Uiso   1.00
H484   H     0.93762   0.88272   0.41851   0.00000  Uiso   1.00
H485   H     0.96942   0.86525   0.49077   0.00000  Uiso   1.00
H486   H     0.72230   0.80369   0.40992   0.00000  Uiso   1.00
H487   H     0.70979   0.77287   0.49421   0.00000  Uiso   1.00
H488   H     0.87164   0.88230   0.37988   0.00000  Uiso   1.00
H489   H     0.90819   0.96244   0.25301   0.00000  Uiso   1.00
N490   N     0.71598   0.83332   0.24999   0.00000  Uiso   1.00
N491   N     0.95069   0.83335   0.25000   0.00000  Uiso   1.00
O492   O     0.79375   0.89345   0.25001   0.00000  Uiso   1.00
O493   O     0.87294   0.89346   0.25001   0.00000  Uiso   1.00
O494   O     0.77441   0.83332   0.32549   0.00000  Uiso   1.00
O495   O     0.85360   0.83333   0.32549   0.00000  Uiso   1.00
O496   O     0.79373   0.77321   0.25000   0.00000  Uiso   1.00
O497   O     0.87292   0.77322   0.25000   0.00000  Uiso   1.00
O498   O     0.81306   0.83334   0.17451   0.00000  Uiso   1.00
O499   O     0.89225   0.83335   0.17451   0.00000  Uiso   1.00
F500   F     0.95836   0.85014   0.08735   0.00000  Uiso   1.00
Cl501  Cl    0.69724   0.89305   0.32576   0.00000  Uiso   1.00
F502   F     0.97057   0.78160   0.18532   0.00000  Uiso   1.00
F503   F     0.78995   0.83127   0.09500   0.00000  Uiso   1.00
Cl504  Cl    0.77379   0.75875   0.05265   0.00000  Uiso   1.00
C505   C     0.16660   0.24597   0.75009   0.00000  Uiso   1.00
C506   C     0.15016   0.15681   0.98582   0.00000  Uiso   1.00
C507   C     0.15839   0.17354   0.93562   0.00000  Uiso   1.00
C508   C     0.18417   0.16641   0.51334   0.00000  Uiso   1.00
C509   C     0.23028   0.18336   0.98678   0.00000  Uiso   1.00
C510   C     0.23765   0.19960   0.93762   0.00000  Uiso   1.00
C511   C     0.20031   0.19793   0.91460   0.00000  Uiso   1.00
C512   C     0.17158   0.16454   0.56738   0.00000  Uiso   1.00
C513   C     0.25592   0.17869   0.56418   0.00000  Uiso   1.00
C514   C     0.12545   0.16433   0.90688   0.00000  Uiso   1.00
C515   C     0.20867   0.31190   0.75170   0.00000  Uiso   1.00
C516   C     0.14052   0.16789   0.85003   0.00000  Uiso   1.00
C517   C     0.20875   0.02114   0.75160   0.00000  Uiso   1.00
C518   C     0.16673   0.04274   0.75002   0.00000  Uiso   1.00
C519   C     0.12461   0.02143   0.74852   0.00000  Uiso   1.00
C520   C     0.12453   0.31220   0.74858   0.00000  Uiso   1.00
C521   C     0.16656   0.29059   0.75015   0.00000  Uiso   1.00
C522   C     0.29921   0.19265   0.78175   0.00000  Uiso   1.00
C523   C     0.01513   0.19251   0.78229   0.00000  Uiso   1.00
C524   C     0.03408   0.14092   0.71774   0.00000  Uiso   1.00
C525   C     0.31780   0.14085   0.71779   0.00000  Uiso   1.00
C526   C     0.16672   0.08736   0.74997   0.00000  Uiso   1.00
C527   C     0.19277   0.16715   0.64998   0.00000  Uiso   1.00
C528   C     0.26662   0.18737   0.51161   0.00000  Uiso   1.00
C529   C     0.20752   0.16925   0.59307   0.00000  Uiso   1.00
C530   C     0.08174   0.14367   0.93083   0.00000  Uiso   1.00
C531   C     0.07445   0.12600   0.97906   0.00000  Uiso   1.00
C532   C     0.10987   0.12957   0.50482   0.00000  Uiso   1.00
Cu533  Cu    0.11978   0.16666   0.75000   0.00000  Uiso   1.00
Cu534  Cu    0.21355   0.16667   0.75000   0.00000  Uiso   1.00
H535   H     0.24165   0.03703   0.75281   0.00000  Uiso   1.00
H536   H     0.09175   0.03756   0.74722   0.00000  Uiso   1.00
H537   H     0.09166   0.29631   0.74730   0.00000  Uiso   1.00
H538   H     0.27319   0.21371   0.80670   0.00000  Uiso   1.00
H539   H     0.06018   0.12029   0.69193   0.00000  Uiso   1.00
H540   H     0.27096   0.21605   0.91851   0.00000  Uiso   1.00
H541   H     0.30275   0.19858   0.99077   0.00000  Uiso   1.00
H542   H     0.05563   0.13702   0.90992   0.00000  Uiso   1.00
H543   H     0.04312   0.10620   0.99421   0.00000  Uiso   1.00
H544   H     0.20497   0.21564   0.87988   0.00000  Uiso   1.00
H545   H     0.24152   0.29577   0.75301   0.00000  Uiso   1.00
N546   N     0.04931   0.16666   0.74999   0.00000  Uiso   1.00
N547   N     0.28402   0.16669   0.75000   0.00000  Uiso   1.00
O548   O     0.12708   0.22678   0.75001   0.00000  Uiso   1.00
O549   O     0.20627   0.22679   0.75001   0.00000  Uiso   1.00
O550   O     0.10775   0.16665   0.82549   0.00000  Uiso   1.00
O551   O     0.18694   0.16666   0.82549   0.00000  Uiso   1.00
O552   O     0.12706   0.10654   0.75000   0.00000  Uiso   1.00
O553   O     0.20625   0.10655   0.75000   0.00000  Uiso   1.00
O554   O     0.14640   0.16667   0.67451   0.00000  Uiso   1.00
O555   O     0.22559   0.16668   0.67451   0.00000  Uiso   1.00
F556   F     0.29169   0.18348   0.58735   0.00000  Uiso   1.00
Cl557  Cl    0.03057   0.22639   0.82576   0.00000  Uiso   1.00
F558   F     0.30390   0.11493   0.68532   0.00000  Uiso   1.00
F559   F     0.12328   0.16461   0.59500   0.00000  Uiso   1.00
Cl560  Cl    0.10713   0.09208   0.55265   0.00000  Uiso   1.00
C561   C     0.49993   0.24597   0.75009   0.00000  Uiso   1.00
C562   C     0.48350   0.15681   0.98582   0.00000  Uiso   1.00
C563   C     0.49172   0.17354   0.93562   0.00000  Uiso   1.00
C564   C     0.51751   0.16641   0.51334   0.00000  Uiso   1.00
C565   C     0.56361   0.18336   0.98678   0.00000  Uiso   1.00
C566   C     0.57098   0.19960   0.93762   0.00000  Uiso   1.00
C567   C     0.53365   0.19793   0.91460   0.00000  Uiso   1.00
C568   C     0.50492   0.16454   0.56738   0.00000  Uiso   1.00
C569   C     0.58925   0.17869   0.56418   0.00000  Uiso   1.00
C570   C     0.45879   0.16433   0.90688   0.00000  Uiso   1.00
C571   C     0.54200   0.31190   0.75170   0.00000  Uiso   1.00
C572   C     0.47385   0.16789   0.85003   0.00000  Uiso   1.00
C573   C     0.54209   0.02114   0.75160   0.00000  Uiso   1.00
C574   C     0.50006   0.04274   0.75002   0.00000  Uiso   1.00
C575   C     0.45794   0.02143   0.74852   0.00000  Uiso   1.00
C576   C     0.45787   0.31220   0.74858   0.00000  Uiso   1.00
C577   C     0.49990   0.29059   0.75015   0.00000  Uiso   1.00
C578   C     0.63254   0.19265   0.78175   0.00000  Uiso   1.00
C579   C     0.34846   0.19251   0.78229   0.00000  Uiso   1.00
C580   C     0.36741   0.14092   0.71774   0.00000  Uiso   1.00
C581   C     0.65114   0.14085   0.71779   0.00000  Uiso   1.00
C582   C     0.50005   0.08736   0.74997   0.00000  Uiso   1.00
C583   C     0.52610   0.16715   0.64998   0.00000  Uiso   1.00
C584   C     0.59996   0.18737   0.51161   0.00000  Uiso   1.00
C585   C     0.54085   0.16925   0.59307   0.00000  Uiso   1.00
C586   C     0.41507   0.14367   0.93083   0.00000  Uiso   1.00
C587   C     0.40778   0.12600   0.97906   0.00000  Uiso   1.00
C588   C     0.44321   0.12957   0.50482   0.00000  Uiso   1.00
Cu589  Cu    0.45311   0.16666   0.75000   0.00000  Uiso   1.00
Cu590  Cu    0.54689   0.16667   0.75000   0.00000  Uiso   1.00
H591   H     0.57498   0.03703   0.75281   0.00000  Uiso   1.00
H592   H     0.42509   0.03756   0.74722   0.00000  Uiso   1.00
H593   H     0.42499   0.29631   0.74730   0.00000  Uiso   1.00
H594   H     0.60652   0.21371   0.80670   0.00000  Uiso   1.00
H595   H     0.39351   0.12029   0.69193   0.00000  Uiso   1.00
H596   H     0.60429   0.21605   0.91851   0.00000  Uiso   1.00
H597   H     0.63608   0.19858   0.99077   0.00000  Uiso   1.00
H598   H     0.38896   0.13702   0.90992   0.00000  Uiso   1.00
H599   H     0.37645   0.10620   0.99421   0.00000  Uiso   1.00
H600   H     0.53830   0.21564   0.87988   0.00000  Uiso   1.00
H601   H     0.57485   0.29577   0.75301   0.00000  Uiso   1.00
N602   N     0.38265   0.16666   0.74999   0.00000  Uiso   1.00
N603   N     0.61735   0.16669   0.75000   0.00000  Uiso   1.00
O604   O     0.46042   0.22678   0.75001   0.00000  Uiso   1.00
O605   O     0.53961   0.22679   0.75001   0.00000  Uiso   1.00
O606   O     0.44108   0.16665   0.82549   0.00000  Uiso   1.00
O607   O     0.52027   0.16666   0.82549   0.00000  Uiso   1.00
O608   O     0.46039   0.10654   0.75000   0.00000  Uiso   1.00
O609   O     0.53958   0.10655   0.75000   0.00000  Uiso   1.00
O610   O     0.47973   0.16667   0.67451   0.00000  Uiso   1.00
O611   O     0.55892   0.16668   0.67451   0.00000  Uiso   1.00
F612   F     0.62502   0.18348   0.58735   0.00000  Uiso   1.00
Cl613  Cl    0.36390   0.22639   0.82576   0.00000  Uiso   1.00
F614   F     0.63724   0.11493   0.68532   0.00000  Uiso   1.00
F615   F     0.45662   0.16461   0.59500   0.00000  Uiso   1.00
Cl616  Cl    0.44046   0.09208   0.55265   0.00000  Uiso   1.00
C617   C     0.83327   0.24597   0.75009   0.00000  Uiso   1.00
C618   C     0.81683   0.15681   0.98582   0.00000  Uiso   1.00
C619   C     0.82505   0.17354   0.93562   0.00000  Uiso   1.00
C620   C     0.85084   0.16641   0.51334   0.00000  Uiso   1.00
C621   C     0.89694   0.18336   0.98678   0.00000  Uiso   1.00
C622   C     0.90432   0.19960   0.93762   0.00000  Uiso   1.00
C623   C     0.86698   0.19793   0.91460   0.00000  Uiso   1.00
C624   C     0.83825   0.16454   0.56738   0.00000  Uiso   1.00
C625   C     0.92258   0.17869   0.56418   0.00000  Uiso   1.00
C626   C     0.79212   0.16433   0.90688   0.00000  Uiso   1.00
C627   C     0.87533   0.31190   0.75170   0.00000  Uiso   1.00
C628   C     0.80718   0.16789   0.85003   0.00000  Uiso   1.00
C629   C     0.87542   0.02114   0.75160   0.00000  Uiso   1.00
C630   C     0.83339   0.04274   0.75002   0.00000  Uiso   1.00
C631   C     0.79128   0.02143   0.74852   0.00000  Uiso   1.00
C632   C     0.79120   0.31220   0.74858   0.00000  Uiso   1.00
C633   C     0.83323   0.29059   0.75015   0.00000  Uiso   1.00
C634   C     0.96587   0.19265   0.78175   0.00000  Uiso   1.00
C635   C     0.68180   0.19251   0.78229   0.00000  Uiso   1.00
C636   C     0.70074   0.14092   0.71774   0.00000  Uiso   1.00
C637   C     0.98447   0.14085   0.71779   0.00000  Uiso   1.00
C638   C     0.83339   0.08736   0.74997   0.00000  Uiso   1.00
C639   C     0.85944   0.16715   0.64998   0.00000  Uiso   1.00
C640   C     0.93329   0.18737   0.51161   0.00000  Uiso   1.00
C641   C     0.87418   0.16925   0.59307   0.00000  Uiso   1.00
C642   C     0.74841   0.14367   0.93083   0.00000  Uiso   1.00
C643   C     0.74112   0.12600   0.97906   0.00000  Uiso   1.00
C644   C     0.77654   0.12957   0.50482   0.00000  Uiso   1.00
Cu645  Cu    0.78645   0.16666   0.75000   0.00000  Uiso   1.00
Cu646  Cu    0.88022   0.16667   0.75000   0.00000  Uiso   1.00
H647   H     0.90832   0.03703   0.75281   0.00000  Uiso   1.00
H648   H     0.75842   0.03756   0.74722   0.00000  Uiso   1.00
H649   H     0.75832   0.29631   0.74730   0.00000  Uiso   1.00
H650   H     0.93986   0.21371   0.80670   0.00000  Uiso   1.00
H651   H     0.72684   0.12029   0.69193   0.00000  Uiso   1.00
H652   H     0.93762   0.21605   0.91851   0.00000  Uiso   1.00
H653   H     0.96942   0.19858   0.99077   0.00000  Uiso   1.00
H654   H     0.72230   0.13702   0.90992   0.00000  Uiso   1.00
H655   H     0.70979   0.10620   0.99421   0.00000  Uiso   1.00
H656   H     0.87164   0.21564   0.87988   0.00000  Uiso   1.00
H657   H     0.90819   0.29577   0.75301   0.00000  Uiso   1.00
N658   N     0.71598   0.16666   0.74999   0.00000  Uiso   1.00
N659   N     0.95069   0.16669   0.75000   0.00000  Uiso   1.00
O660   O     0.79375   0.22678   0.75001   0.00000  Uiso   1.00
O661   O     0.87294   0.22679   0.75001   0.00000  Uiso   1.00
O662   O     0.77441   0.16665   0.82549   0.00000  Uiso   1.00
O663   O     0.85360   0.16666   0.82549   0.00000  Uiso   1.00
O664   O     0.79373   0.10654   0.75000   0.00000  Uiso   1.00
O665   O     0.87292   0.10655   0.75000   0.00000  Uiso   1.00
O666   O     0.81306   0.16667   0.67451   0.00000  Uiso   1.00
O667   O     0.89225   0.16668   0.67451   0.00000  Uiso   1.00
F668   F     0.95836   0.18348   0.58735   0.00000  Uiso   1.00
Cl669  Cl    0.69724   0.22639   0.82576   0.00000  Uiso   1.00
F670   F     0.97057   0.11493   0.68532   0.00000  Uiso   1.00
F671   F     0.78995   0.16461   0.59500   0.00000  Uiso   1.00
Cl672  Cl    0.77379   0.09208   0.55265   0.00000  Uiso   1.00
C673   C     0.16660   0.57930   0.75009   0.00000  Uiso   1.00
C674   C     0.15016   0.49014   0.98582   0.00000  Uiso   1.00
C675   C     0.15839   0.50687   0.93562   0.00000  Uiso   1.00
C676   C     0.18417   0.49974   0.51334   0.00000  Uiso   1.00
C677   C     0.23028   0.51670   0.98678   0.00000  Uiso   1.00
C678   C     0.23765   0.53293   0.93762   0.00000  Uiso   1.00
C679   C     0.20031   0.53127   0.91460   0.00000  Uiso   1.00
C680   C     0.17158   0.49787   0.56738   0.00000  Uiso   1.00
C681   C     0.25592   0.51203   0.56418   0.00000  Uiso   1.00
C682   C     0.12545   0.49766   0.90688   0.00000  Uiso   1.00
C683   C     0.20867   0.64523   0.75170   0.00000  Uiso   1.00
C684   C     0.14052   0.50123   0.85003   0.00000  Uiso   1.00
C685   C     0.20875   0.35447   0.75160   0.00000  Uiso   1.00
C686   C     0.16673   0.37608   0.75002   0.00000  Uiso   1.00
C687   C     0.12461   0.35477   0.74852   0.00000  Uiso   1.00
C688   C     0.12453   0.64553   0.74858   0.00000  Uiso   1.00
C689   C     0.16656   0.62392   0.75015   0.00000  Uiso   1.00
C690   C     0.29921   0.52598   0.78175   0.00000  Uiso   1.00
C691   C     0.01513   0.52584   0.78229   0.00000  Uiso   1.00
C692   C     0.03408   0.47425   0.71774   0.00000  Uiso   1.00
C693   C     0.31780   0.47418   0.71779   0.00000  Uiso   1.00
C694   C     0.16672   0.42070   0.74997   0.00000  Uiso   1.00
C695   C     0.19277   0.50049   0.64998   0.00000  Uiso   1.00
C696   C     0.26662   0.52070   0.51161   0.00000  Uiso   1.00
C697   C     0.20752   0.50258   0.59307   0.00000  Uiso   1.00
C698   C     0.08174   0.47700   0.93083   0.00000  Uiso   1.00
C699   C     0.07445   0.45933   0.97906   0.00000  Uiso   1.00
C700   C     0.10987   0.46290   0.50482   0.00000  Uiso   1.00
Cu701  Cu    0.11978   0.49999   0.75000   0.00000  Uiso   1.00
Cu702  Cu    0.21355   0.50001   0.75000   0.00000  Uiso   1.00
H703   H     0.24165   0.37037   0.75281   0.00000  Uiso   1.00
H704   H     0.09175   0.37089   0.74722   0.00000  Uiso   1.00
H705   H     0.09166   0.62964   0.74730   0.00000  Uiso   1.00
H706   H     0.27319   0.54705   0.80670   0.00000  Uiso   1.00
H707   H     0.06018   0.45363   0.69193   0.00000  Uiso   1.00
H708   H     0.27096   0.54939   0.91851   0.00000  Uiso   1.00
H709   H     0.30275   0.53191   0.99077   0.00000  Uiso   1.00
H710   H     0.05563   0.47035   0.90992   0.00000  Uiso   1.00
H711   H     0.04312   0.43954   0.99421   0.00000  Uiso   1.00
H712   H     0.20497   0.54897   0.87988   0.00000  Uiso   1.00
H713   H     0.24152   0.62910   0.75301   0.00000  Uiso   1.00
N714   N     0.04931   0.49999   0.74999   0.00000  Uiso   1.00
N715   N     0.28402   0.50002   0.75000   0.00000  Uiso   1.00
O716   O     0.12708   0.56011   0.75001   0.00000  Uiso   1.00
O717   O     0.20627   0.56012   0.75001   0.00000  Uiso   1.00
O718   O     0.10775   0.49998   0.82549   0.00000  Uiso   1.00
O719   O     0.18694   0.49999   0.82549   0.00000  Uiso   1.00
O720   O     0.12706   0.43988   0.75000   0.00000  Uiso   1.00
O721   O     0.20625   0.43989   0.75000   0.00000  Uiso   1.00
O722   O     0.14640   0.50001   0.67451   0.00000  Uiso   1.00
O723   O     0.22559   0.50002   0.67451   0.00000  Uiso   1.00
F724   F     0.29169   0.51681   0.58735   0.00000  Uiso   1.00
Cl725  Cl    0.03057   0.55972   0.82576   0.00000  Uiso   1.00
F726   F     0.30390   0.44827   0.68532   0.00000  Uiso   1.00
F727   F     0.12328   0.49794   0.59500   0.00000  Uiso   1.00
Cl728  Cl    0.10713   0.42541   0.55265   0.00000  Uiso   1.00
C729   C     0.49993   0.57930   0.75009   0.00000  Uiso   1.00
C730   C     0.48350   0.49014   0.98582   0.00000  Uiso   1.00
C731   C     0.49172   0.50687   0.93562   0.00000  Uiso   1.00
C732   C     0.51751   0.49974   0.51334   0.00000  Uiso   1.00
C733   C     0.56361   0.51670   0.98678   0.00000  Uiso   1.00
C734   C     0.57098   0.53293   0.93762   0.00000  Uiso   1.00
C735   C     0.53365   0.53127   0.91460   0.00000  Uiso   1.00
C736   C     0.50492   0.49787   0.56738   0.00000  Uiso   1.00
C737   C     0.58925   0.51203   0.56418   0.00000  Uiso   1.00
C738   C     0.45879   0.49766   0.90688   0.00000  Uiso   1.00
C739   C     0.54200   0.64523   0.75170   0.00000  Uiso   1.00
C740   C     0.47385   0.50123   0.85003   0.00000  Uiso   1.00
C741   C     0.54209   0.35447   0.75160   0.00000  Uiso   1.00
C742   C     0.50006   0.37608   0.75002   0.00000  Uiso   1.00
C743   C     0.45794   0.35477   0.74852   0.00000  Uiso   1.00
C744   C     0.45787   0.64553   0.74858   0.00000  Uiso   1.00
C745   C     0.49990   0.62392   0.75015   0.00000  Uiso   1.00
C746   C     0.63254   0.52598   0.78175   0.00000  Uiso   1.00
C747   C     0.34846   0.52584   0.78229   0.00000  Uiso   1.00
C748   C     0.36741   0.47425   0.71774   0.00000  Uiso   1.00
C749   C     0.65114   0.47418   0.71779   0.00000  Uiso   1.00
C750   C     0.50005   0.42070   0.74997   0.00000  Uiso   1.00
C751   C     0.52610   0.50049   0.64998   0.00000  Uiso   1.00
C752   C     0.59996   0.52070   0.51161   0.00000  Uiso   1.00
C753   C     0.54085   0.50258   0.59307   0.00000  Uiso   1.00
C754   C     0.41507   0.47700   0.93083   0.00000  Uiso   1.00
C755   C     0.40778   0.45933   0.97906   0.00000  Uiso   1.00
C756   C     0.44321   0.46290   0.50482   0.00000  Uiso   1.00
Cu757  Cu    0.45311   0.49999   0.75000   0.00000  Uiso   1.00
Cu758  Cu    0.54689   0.50001   0.75000   0.00000  Uiso   1.00
H759   H     0.57498   0.37037   0.75281   0.00000  Uiso   1.00
H760   H     0.42509   0.37089   0.74722   0.00000  Uiso   1.00
H761   H     0.42499   0.62964   0.74730   0.00000  Uiso   1.00
H762   H     0.60652   0.54705   0.80670   0.00000  Uiso   1.00
H763   H     0.39351   0.45363   0.69193   0.00000  Uiso   1.00
H764   H     0.60429   0.54939   0.91851   0.00000  Uiso   1.00
H765   H     0.63608   0.53191   0.99077   0.00000  Uiso   1.00
H766   H     0.38896   0.47035   0.90992   0.00000  Uiso   1.00
H767   H     0.37645   0.43954   0.99421   0.00000  Uiso   1.00
H768   H     0.53830   0.54897   0.87988   0.00000  Uiso   1.00
H769   H     0.57485   0.62910   0.75301   0.00000  Uiso   1.00
N770   N     0.38265   0.49999   0.74999   0.00000  Uiso   1.00
N771   N     0.61735   0.50002   0.75000   0.00000  Uiso   1.00
O772   O     0.46042   0.56011   0.75001   0.00000  Uiso   1.00
O773   O     0.53961   0.56012   0.75001   0.00000  Uiso   1.00
O774   O     0.44108   0.49998   0.82549   0.00000  Uiso   1.00
O775   O     0.52027   0.49999   0.82549   0.00000  Uiso   1.00
O776   O     0.46039   0.43988   0.75000   0.00000  Uiso   1.00
O777   O     0.53958   0.43989   0.75000   0.00000  Uiso   1.00
O778   O     0.47973   0.50001   0.67451   0.00000  Uiso   1.00
O779   O     0.55892   0.50002   0.67451   0.00000  Uiso   1.00
F780   F     0.62502   0.51681   0.58735   0.00000  Uiso   1.00
Cl781  Cl    0.36390   0.55972   0.82576   0.00000  Uiso   1.00
F782   F     0.63724   0.44827   0.68532   0.00000  Uiso   1.00
F783   F     0.45662   0.49794   0.59500   0.00000  Uiso   1.00
Cl784  Cl    0.44046   0.42541   0.55265   0.00000  Uiso   1.00
C785   C     0.83327   0.57930   0.75009   0.00000  Uiso   1.00
C786   C     0.81683   0.49014   0.98582   0.00000  Uiso   1.00
C787   C     0.82505   0.50687   0.93562   0.00000  Uiso   1.00
C788   C     0.85084   0.49974   0.51334   0.00000  Uiso   1.00
C789   C     0.89694   0.51670   0.98678   0.00000  Uiso   1.00
C790   C     0.90432   0.53293   0.93762   0.00000  Uiso   1.00
C791   C     0.86698   0.53127   0.91460   0.00000  Uiso   1.00
C792   C     0.83825   0.49787   0.56738   0.00000  Uiso   1.00
C793   C     0.92258   0.51203   0.56418   0.00000  Uiso   1.00
C794   C     0.79212   0.49766   0.90688   0.00000  Uiso   1.00
C795   C     0.87533   0.64523   0.75170   0.00000  Uiso   1.00
C796   C     0.80718   0.50123   0.85003   0.00000  Uiso   1.00
C797   C     0.87542   0.35447   0.75160   0.00000  Uiso   1.00
C798   C     0.83339   0.37608   0.75002   0.00000  Uiso   1.00
C799   C     0.79128   0.35477   0.74852   0.00000  Uiso   1.00
C800   C     0.79120   0.64553   0.74858   0.00000  Uiso   1.00
C801   C     0.83323   0.62392   0.75015   0.00000  Uiso   1.00
C802   C     0.96587   0.52598   0.78175   0.00000  Uiso   1.00
C803   C     0.68180   0.52584   0.78229   0.00000  Uiso   1.00
C804   C     0.70074   0.47425   0.71774   0.00000  Uiso   1.00
C805   C     0.98447   0.47418   0.71779   0.00000  Uiso   1.00
C806   C     0.83339   0.42070   0.74997   0.00000  Uiso   1.00
C807   C     0.85944   0.50049   0.64998   0.00000  Uiso   1.00
C808   C     0.93329   0.52070   0.51161   0.00000  Uiso   1.00
C809   C     0.87418   0.50258   0.59307   0.00000  Uiso   1.00
C810   C     0.74841   0.47700   0.93083   0.00000  Uiso   1.00
C811   C     0.74112   0.45933   0.97906   0.00000  Uiso   1.00
C812   C     0.77654   0.46290   0.50482   0.00000  Uiso   1.00
Cu813  Cu    0.78645   0.49999   0.75000   0.00000  Uiso   1.00
Cu814  Cu    0.88022   0.50001   0.75000   0.00000  Uiso   1.00
H815   H     0.90832   0.37037   0.75281   0.00000  Uiso   1.00
H816   H     0.75842   0.37089   0.74722   0.00000  Uiso   1.00
H817   H     0.75832   0.62964   0.74730   0.00000  Uiso   1.00
H818   H     0.93986   0.54705   0.80670   0.00000  Uiso   1.00
H819   H     0.72684   0.45363   0.69193   0.00000  Uiso   1.00
H820   H     0.93762   0.54939   0.91851   0.00000  Uiso   1.00
H821   H     0.96942   0.53191   0.99077   0.00000  Uiso   1.00
H822   H     0.72230   0.47035   0.90992   0.00000  Uiso   1.00
H823   H     0.70979   0.43954   0.99421   0.00000  Uiso   1.00
H824   H     0.87164   0.54897   0.87988   0.00000  Uiso   1.00
H825   H     0.90819   0.62910   0.75301   0.00000  Uiso   1.00
N826   N     0.71598   0.49999   0.74999   0.00000  Uiso   1.00
N827   N     0.95069   0.50002   0.75000   0.00000  Uiso   1.00
O828   O     0.79375   0.56011   0.75001   0.00000  Uiso   1.00
O829   O     0.87294   0.56012   0.75001   0.00000  Uiso   1.00
O830   O     0.77441   0.49998   0.82549   0.00000  Uiso   1.00
O831   O     0.85360   0.49999   0.82549   0.00000  Uiso   1.00
O832   O     0.79373   0.43988   0.75000   0.00000  Uiso   1.00
O833   O     0.87292   0.43989   0.75000   0.00000  Uiso   1.00
O834   O     0.81306   0.50001   0.67451   0.00000  Uiso   1.00
O835   O     0.89225   0.50002   0.67451   0.00000  Uiso   1.00
F836   F     0.95836   0.51681   0.58735   0.00000  Uiso   1.00
Cl837  Cl    0.69724   0.55972   0.82576   0.00000  Uiso   1.00
F838   F     0.97057   0.44827   0.68532   0.00000  Uiso   1.00
F839   F     0.78995   0.49794   0.59500   0.00000  Uiso   1.00
Cl840  Cl    0.77379   0.42541   0.55265   0.00000  Uiso   1.00
C841   C     0.16660   0.91264   0.75009   0.00000  Uiso   1.00
C842   C     0.15016   0.82348   0.98582   0.00000  Uiso   1.00
C843   C     0.15839   0.84020   0.93562   0.00000  Uiso   1.00
C844   C     0.18417   0.83307   0.51334   0.00000  Uiso   1.00
C845   C     0.23028   0.85003   0.98678   0.00000  Uiso   1.00
C846   C     0.23765   0.86626   0.93762   0.00000  Uiso   1.00
C847   C     0.20031   0.86460   0.91460   0.00000  Uiso   1.00
C848   C     0.17158   0.83121   0.56738   0.00000  Uiso   1.00
C849   C     0.25592   0.84536   0.56418   0.00000  Uiso   1.00
C850   C     0.12545   0.83099   0.90688   0.00000  Uiso   1.00
C851   C     0.20867   0.97856   0.75170   0.00000  Uiso   1.00
C852   C     0.14052   0.83456   0.85003   0.00000  Uiso   1.00
C853   C     0.20875   0.68780   0.75160   0.00000  Uiso   1.00
C854   C     0.16673   0.70941   0.75002   0.00000  Uiso   1.00
C855   C     0.12461   0.68810   0.74852   0.00000  Uiso   1.00
C856   C     0.12453   0.97886   0.74858   0.00000  Uiso   1.00
C857   C     0.16656   0.95726   0.75015   0.00000  Uiso   1.00
C858   C     0.29921   0.85931   0.78175   0.00000  Uiso   1.00
C859   C     0.01513   0.85917   0.78229   0.00000  Uiso   1.00
C860   C     0.03408   0.80759   0.71774   0.00000  Uiso   1.00
C861   C     0.31780   0.80751   0.71779   0.00000  Uiso   1.00
C862   C     0.16672   0.75403   0.74997   0.00000  Uiso   1.00
C863   C     0.19277   0.83382   0.64998   0.00000  Uiso   1.00
C864   C     0.26662   0.85403   0.51161   0.00000  Uiso   1.00
C865   C     0.20752   0.83591   0.59307   0.00000  Uiso   1.00
C866   C     0.08174   0.81033   0.93083   0.00000  Uiso   1.00
C867   C     0.07445   0.79267   0.97906   0.00000  Uiso   1.00
C868   C     0.10987   0.79624   0.50482   0.00000  Uiso   1.00
Cu869  Cu    0.11978   0.83333   0.75000   0.00000  Uiso   1.00
Cu870  Cu    0.21355   0.83334   0.75000   0.00000  Uiso   1.00
H871   H     0.24165   0.70370   0.75281   0.00000  Uiso   1.00
H872   H     0.09175   0.70423   0.74722   0.00000  Uiso   1.00
H873   H     0.09166   0.96298   0.74730   0.00000  Uiso   1.00
H874   H     0.27319   0.88038   0.80670   0.00000  Uiso   1.00
H875   H     0.06018   0.78696   0.69193   0.00000  Uiso   1.00
H876   H     0.27096   0.88272   0.91851   0.00000  Uiso   1.00
H877   H     0.30275   0.86525   0.99077   0.00000  Uiso   1.00
H878   H     0.05563   0.80369   0.90992   0.00000  Uiso   1.00
H879   H     0.04312   0.77287   0.99421   0.00000  Uiso   1.00
H880   H     0.20497   0.88230   0.87988   0.00000  Uiso   1.00
H881   H     0.24152   0.96244   0.75301   0.00000  Uiso   1.00
N882   N     0.04931   0.83332   0.74999   0.00000  Uiso   1.00
N883   N     0.28402   0.83335   0.75000   0.00000  Uiso   1.00
O884   O     0.12708   0.89345   0.75001   0.00000  Uiso   1.00
O885   O     0.20627   0.89346   0.75001   0.00000  Uiso   1.00
O886   O     0.10775   0.83332   0.82549   0.00000  Uiso   1.00
O887   O     0.18694   0.83333   0.82549   0.00000  Uiso   1.00
O888   O     0.12706   0.77321   0.75000   0.00000  Uiso   1.00
O889   O     0.20625   0.77322   0.75000   0.00000  Uiso   1.00
O890   O     0.14640   0.83334   0.67451   0.00000  Uiso   1.00
O891   O     0.22559   0.83335   0.67451   0.00000  Uiso   1.00
F892   F     0.29169   0.85014   0.58735   0.00000  Uiso   1.00
Cl893  Cl    0.03057   0.89305   0.82576   0.00000  Uiso   1.00
F894   F     0.30390   0.78160   0.68532   0.00000  Uiso   1.00
F895   F     0.12328   0.83127   0.59500   0.00000  Uiso   1.00
Cl896  Cl    0.10713   0.75875   0.55265   0.00000  Uiso   1.00
C897   C     0.49993   0.91264   0.75009   0.00000  Uiso   1.00
C898   C     0.48350   0.82348   0.98582   0.00000  Uiso   1.00
C899   C     0.49172   0.84020   0.93562   0.00000  Uiso   1.00
C900   C     0.51751   0.83307   0.51334   0.00000  Uiso   1.00
C901   C     0.56361   0.85003   0.98678   0.00000  Uiso   1.00
C902   C     0.57098   0.86626   0.93762   0.00000  Uiso   1.00
C903   C     0.53365   0.86460   0.91460   0.00000  Uiso   1.00
C904   C     0.50492   0.83121   0.56738   0.00000  Uiso   1.00
C905   C     0.58925   0.84536   0.56418   0.00000  Uiso   1.00
C906   C     0.45879   0.83099   0.90688   0.00000  Uiso   1.00
C907   C     0.54200   0.97856   0.75170   0.00000  Uiso   1.00
C908   C     0.47385   0.83456   0.85003   0.00000  Uiso   1.00
C909   C     0.54209   0.68780   0.75160   0.00000  Uiso   1.00
C910   C     0.50006   0.70941   0.75002   0.00000  Uiso   1.00
C911   C     0.45794   0.68810   0.74852   0.00000  Uiso   1.00
C912   C     0.45787   0.97886   0.74858   0.00000  Uiso   1.00
C913   C     0.49990   0.95726   0.75015   0.00000  Uiso   1.00
C914   C     0.63254   0.85931   0.78175   0.00000  Uiso   1.00
C915   C     0.34846   0.85917   0.78229   0.00000  Uiso   1.00
C916   C     0.36741   0.80759   0.71774   0.00000  Uiso   1.00
C917   C     0.65114   0.80751   0.71779   0.00000  Uiso   1.00
C918   C     0.50005   0.75403   0.74997   0.00000  Uiso   1.00
C919   C     0.52610   0.83382   0.64998   0.00000  Uiso   1.00
C920   C     0.59996   0.85403   0.51161   0.00000  Uiso   1.00
C921   C     0.54085   0.83591   0.59307   0.00000  Uiso   1.00
C922   C     0.41507   0.81033   0.93083   0.00000  Uiso   1.00
C923   C     0.40778   0.79267   0.97906   0.00000  Uiso   1.00
C924   C     0.44321   0.79624   0.50482   0.00000  Uiso   1.00
Cu925  Cu    0.45311   0.83333   0.75000   0.00000  Uiso   1.00
Cu926  Cu    0.54689   0.83334   0.75000   0.00000  Uiso   1.00
H927   H     0.57498   0.70370   0.75281   0.00000  Uiso   1.00
H928   H     0.42509   0.70423   0.74722   0.00000  Uiso   1.00
H929   H     0.42499   0.96298   0.74730   0.00000  Uiso   1.00
H930   H     0.60652   0.88038   0.80670   0.00000  Uiso   1.00
H931   H     0.39351   0.78696   0.69193   0.00000  Uiso   1.00
H932   H     0.60429   0.88272   0.91851   0.00000  Uiso   1.00
H933   H     0.63608   0.86525   0.99077   0.00000  Uiso   1.00
H934   H     0.38896   0.80369   0.90992   0.00000  Uiso   1.00
H935   H     0.37645   0.77287   0.99421   0.00000  Uiso   1.00
H936   H     0.53830   0.88230   0.87988   0.00000  Uiso   1.00
H937   H     0.57485   0.96244   0.75301   0.00000  Uiso   1.00
N938   N     0.38265   0.83332   0.74999   0.00000  Uiso   1.00
N939   N     0.61735   0.83335   0.75000   0.00000  Uiso   1.00
O940   O     0.46042   0.89345   0.75001   0.00000  Uiso   1.00
O941   O     0.53961   0.89346   0.75001   0.00000  Uiso   1.00
O942   O     0.44108   0.83332   0.82549   0.00000  Uiso   1.00
O943   O     0.52027   0.83333   0.82549   0.00000  Uiso   1.00
O944   O     0.46039   0.77321   0.75000   0.00000  Uiso   1.00
O945   O     0.53958   0.77322   0.75000   0.00000  Uiso   1.00
O946   O     0.47973   0.83334   0.67451   0.00000  Uiso   1.00
O947   O     0.55892   0.83335   0.67451   0.00000  Uiso   1.00
F948   F     0.62502   0.85014   0.58735   0.00000  Uiso   1.00
Cl949  Cl    0.36390   0.89305   0.82576   0.00000  Uiso   1.00
F950   F     0.63724   0.78160   0.68532   0.00000  Uiso   1.00
F951   F     0.45662   0.83127   0.59500   0.00000  Uiso   1.00
Cl952  Cl    0.44046   0.75875   0.55265   0.00000  Uiso   1.00
C953   C     0.83327   0.91264   0.75009   0.00000  Uiso   1.00
C954   C     0.81683   0.82348   0.98582   0.00000  Uiso   1.00
C955   C     0.82505   0.84020   0.93562   0.00000  Uiso   1.00
C956   C     0.85084   0.83307   0.51334   0.00000  Uiso   1.00
C957   C     0.89694   0.85003   0.98678   0.00000  Uiso   1.00
C958   C     0.90432   0.86626   0.93762   0.00000  Uiso   1.00
C959   C     0.86698   0.86460   0.91460   0.00000  Uiso   1.00
C960   C     0.83825   0.83121   0.56738   0.00000  Uiso   1.00
C961   C     0.92258   0.84536   0.56418   0.00000  Uiso   1.00
C962   C     0.79212   0.83099   0.90688   0.00000  Uiso   1.00
C963   C     0.87533   0.97856   0.75170   0.00000  Uiso   1.00
C964   C     0.80718   0.83456   0.85003   0.00000  Uiso   1.00
C965   C     0.87542   0.68780   0.75160   0.00000  Uiso   1.00
C966   C     0.83339   0.70941   0.75002   0.00000  Uiso   1.00
C967   C     0.79128   0.68810   0.74852   0.00000  Uiso   1.00
C968   C     0.79120   0.97886   0.74858   0.00000  Uiso   1.00
C969   C     0.83323   0.95726   0.75015   0.00000  Uiso   1.00
C970   C     0.96587   0.85931   0.78175   0.00000  Uiso   1.00
C971   C     0.68180   0.85917   0.78229   0.00000  Uiso   1.00
C972   C     0.70074   0.80759   0.71774   0.00000  Uiso   1.00
C973   C     0.98447   0.80751   0.71779   0.00000  Uiso   1.00
C974   C     0.83339   0.75403   0.74997   0.00000  Uiso   1.00
C975   C     0.85944   0.83382   0.64998   0.00000  Uiso   1.00
C976   C     0.93329   0.85403   0.51161   0.00000  Uiso   1.00
C977   C     0.87418   0.83591   0.59307   0.00000  Uiso   1.00
C978   C     0.74841   0.81033   0.93083   0.00000  Uiso   1.00
C979   C     0.74112   0.79267   0.97906   0.00000  Uiso   1.00
C980   C     0.77654   0.79624   0.50482   0.00000  Uiso   1.00
Cu981  Cu    0.78645   0.83333   0.75000   0.00000  Uiso   1.00
Cu982  Cu    0.88022   0.83334   0.75000   0.00000  Uiso   1.00
H983   H     0.90832   0.70370   0.75281   0.00000  Uiso   1.00
H984   H     0.75842   0.70423   0.74722   0.00000  Uiso   1.00
H985   H     0.75832   0.96298   0.74730   0.00000  Uiso   1.00
H986   H     0.93986   0.88038   0.80670   0.00000  Uiso   1.00
H987   H     0.72684   0.78696   0.69193   0.00000  Uiso   1.00
H988   H     0.93762   0.88272   0.91851   0.00000  Uiso   1.00
H989   H     0.96942   0.86525   0.99077   0.00000  Uiso   1.00
H990   H     0.72230   0.80369   0.90992   0.00000  Uiso   1.00
H991   H     0.70979   0.77287   0.99421   0.00000  Uiso   1.00
H992   H     0.87164   0.88230   0.87988   0.00000  Uiso   1.00
H993   H     0.90819   0.96244   0.75301   0.00000  Uiso   1.00
N994   N     0.71598   0.83332   0.74999   0.00000  Uiso   1.00
N995   N     0.95069   0.83335   0.75000   0.00000  Uiso   1.00
O996   O     0.79375   0.89345   0.75001   0.00000  Uiso   1.00
O997   O     0.87294   0.89346   0.75001   0.00000  Uiso   1.00
O998   O     0.77441   0.83332   0.82549   0.00000  Uiso   1.00
O999   O     0.85360   0.83333   0.82549   0.00000  Uiso   1.00
O1000  O     0.79373   0.77321   0.75000   0.00000  Uiso   1.00
O1001  O     0.87292   0.77322   0.75000   0.00000  Uiso   1.00
O1002  O     0.81306   0.83334   0.67451   0.00000  Uiso   1.00
O1003  O     0.89225   0.83335   0.67451   0.00000  Uiso   1.00
F1004  F     0.95836   0.85014   0.58735   0.00000  Uiso   1.00
Cl1005 Cl    0.69724   0.89305   0.82576   0.00000  Uiso   1.00
F1006  F     0.97057   0.78160   0.68532   0.00000  Uiso   1.00
F1007  F     0.78995   0.83127   0.59500   0.00000  Uiso   1.00
Cl1008 Cl    0.77379   0.75875   0.55265   0.00000  Uiso   1.00
loop_
_geom_bond_atom_site_label_1
_geom_bond_atom_site_label_2
_geom_bond_distance
_geom_bond_site_symmetry_2
_ccdc_geom_bond_type
C1     O45     1.291   .     A
C1     O44     1.293   .     A
C1     C17     1.450   .     S
C2     C3      1.420   .     A
C2     C508    1.423   .     S
C2     C532    1.427   .     S
C3     C10     1.419   .     A
C3     C7      1.413   .     A
C4     C8      1.398   .     A
C4     C506    1.423   1_554 S
C4     C509    1.415   1_554 S
C5     C6      1.390   .     A
C5     C508    1.415   .     S
C5     C528    1.400   .     S
C6     C7      1.387   .     A
C6     H36     1.083   .     S
C7     H40     1.079   .     S
C8     C25     1.409   .     A
C8     F55     1.359   .     S
C9     C24     1.393   .     A
C9     C25     1.407   .     A
C9     F52     1.358   .     S
C10    C12     1.473   .     S
C10    C26     1.401   .     A
C11    H41     1.083   .     S
C11    C17     1.402   .     A
C11    C181    1.384   .     S
C12    O47     1.294   .     A
C12    O46     1.300   .     A
C13    C14     1.401   .     A
C13    H31     1.083   .     S
C13    C347    1.384   1_545 S
C14    C22     1.450   .     S
C14    C15     1.402   .     A
C15    H32     1.083   .     S
C15    C352    1.383   1_545 S
C16    H33     1.083   .     S
C16    C17     1.400   .     A
C16    C183    1.383   .     S
C18    N43     1.360   .     A
C18    H34     1.080   .     S
C18    C75     1.412   .     S
C19    N42     1.377   .     A
C19    Cl53    1.755   .     S
C19    C130    1.412   1_455 S
C20    N42     1.366   .     A
C20    H35     1.082   .     S
C20    C133    1.417   1_455 S
C21    F54     1.355   .     S
C21    N43     1.369   .     A
C21    C76     1.417   .     S
C22    O48     1.291   .     A
C22    O49     1.293   .     A
C23    O51     1.300   .     A
C23    C25     1.471   .     S
C23    O50     1.293   .     A
C24    C509    1.400   1_554 S
C24    H541    1.084   1_554 S
C26    C27     1.387   .     A
C26    H38     1.083   .     S
C27    H39     1.083   .     S
C27    C532    1.394   .     S
C28    Cl56    1.768   .     S
C28    C506    1.427   1_554 S
C28    C531    1.394   1_554 S
Cu29   O46     1.966   .     S
Cu29   Cu30    2.680   .     S
Cu29   O50     1.954   .     S
Cu29   O44     1.966   .     S
Cu29   N42     2.014   .     S
Cu29   O48     1.964   .     S
Cu30   O51     1.966   .     S
Cu30   O45     1.964   .     S
Cu30   O49     1.966   .     S
Cu30   N43     2.014   .     S
Cu30   O47     1.954   .     S
H37    C528    1.084   .     S
C57    O101    1.291   .     A
C57    O100    1.293   .     A
C57    C73     1.450   .     S
C58    C59     1.420   .     A
C58    C564    1.423   .     S
C58    C588    1.427   .     S
C59    C66     1.419   .     A
C59    C63     1.413   .     A
C60    C64     1.398   .     A
C60    C562    1.423   1_554 S
C60    C565    1.415   1_554 S
C61    C62     1.390   .     A
C61    C564    1.415   .     S
C61    C584    1.400   .     S
C62    C63     1.387   .     A
C62    H92     1.083   .     S
C63    H96     1.079   .     S
C64    C81     1.409   .     A
C64    F111    1.359   .     S
C65    C80     1.393   .     A
C65    C81     1.407   .     A
C65    F108    1.358   .     S
C66    C68     1.473   .     S
C66    C82     1.401   .     A
C67    H97     1.083   .     S
C67    C73     1.402   .     A
C67    C237    1.384   .     S
C68    O103    1.294   .     A
C68    O102    1.300   .     A
C69    C70     1.401   .     A
C69    H87     1.083   .     S
C69    C403    1.384   1_545 S
C70    C78     1.450   .     S
C70    C71     1.402   .     A
C71    H88     1.083   .     S
C71    C408    1.383   1_545 S
C72    H89     1.083   .     S
C72    C73     1.400   .     A
C72    C239    1.383   .     S
C74    N99     1.360   .     A
C74    H90     1.080   .     S
C74    C131    1.412   .     S
C75    N98     1.377   .     A
C75    Cl109   1.755   .     S
C76    N98     1.366   .     A
C76    H91     1.082   .     S
C77    F110    1.355   .     S
C77    N99     1.369   .     A
C77    C132    1.417   .     S
C78    O104    1.291   .     A
C78    O105    1.293   .     A
C79    O107    1.300   .     A
C79    C81     1.471   .     S
C79    O106    1.293   .     A
C80    C565    1.400   1_554 S
C80    H597    1.084   1_554 S
C82    C83     1.387   .     A
C82    H94     1.083   .     S
C83    H95     1.083   .     S
C83    C588    1.394   .     S
C84    Cl112   1.768   .     S
C84    C562    1.427   1_554 S
C84    C587    1.394   1_554 S
Cu85   O102    1.966   .     S
Cu85   Cu86    2.680   .     S
Cu85   O106    1.954   .     S
Cu85   O100    1.966   .     S
Cu85   N98     2.014   .     S
Cu85   O104    1.964   .     S
Cu86   O107    1.966   .     S
Cu86   O101    1.964   .     S
Cu86   O105    1.966   .     S
Cu86   N99     2.014   .     S
Cu86   O103    1.954   .     S
H93    C584    1.084   .     S
C113   O157    1.291   .     A
C113   O156    1.293   .     A
C113   C129    1.450   .     S
C114   C115    1.420   .     A
C114   C620    1.423   .     S
C114   C644    1.427   .     S
C115   C122    1.419   .     A
C115   C119    1.413   .     A
C116   C120    1.398   .     A
C116   C618    1.423   1_554 S
C116   C621    1.415   1_554 S
C117   C118    1.390   .     A
C117   C620    1.415   .     S
C117   C640    1.400   .     S
C118   C119    1.387   .     A
C118   H148    1.083   .     S
C119   H152    1.079   .     S
C120   C137    1.409   .     A
C120   F167    1.359   .     S
C121   C136    1.393   .     A
C121   C137    1.407   .     A
C121   F164    1.358   .     S
C122   C124    1.473   .     S
C122   C138    1.401   .     A
C123   H153    1.083   .     S
C123   C129    1.402   .     A
C123   C293    1.384   .     S
C124   O159    1.294   .     A
C124   O158    1.300   .     A
C125   C126    1.401   .     A
C125   H143    1.083   .     S
C125   C459    1.384   1_545 S
C126   C134    1.450   .     S
C126   C127    1.402   .     A
C127   H144    1.083   .     S
C127   C464    1.383   1_545 S
C128   H145    1.083   .     S
C128   C129    1.400   .     A
C128   C295    1.383   .     S
C130   N155    1.360   .     A
C130   H146    1.080   .     S
C130   C19     1.412   1_655 S
C131   N154    1.377   .     A
C131   Cl165   1.755   .     S
C132   N154    1.366   .     A
C132   H147    1.082   .     S
C133   F166    1.355   .     S
C133   N155    1.369   .     A
C133   C20     1.417   1_655 S
C134   O160    1.291   .     A
C134   O161    1.293   .     A
C135   O163    1.300   .     A
C135   C137    1.471   .     S
C135   O162    1.293   .     A
C136   C621    1.400   1_554 S
C136   H653    1.084   1_554 S
C138   C139    1.387   .     A
C138   H150    1.083   .     S
C139   H151    1.083   .     S
C139   C644    1.394   .     S
C140   Cl168   1.768   .     S
C140   C618    1.427   1_554 S
C140   C643    1.394   1_554 S
Cu141  O158    1.966   .     S
Cu141  Cu142   2.680   .     S
Cu141  O162    1.954   .     S
Cu141  O156    1.966   .     S
Cu141  N154    2.014   .     S
Cu141  O160    1.964   .     S
Cu142  O163    1.966   .     S
Cu142  O157    1.964   .     S
Cu142  O161    1.966   .     S
Cu142  N155    2.014   .     S
Cu142  O159    1.954   .     S
H149   C640    1.084   .     S
C169   O213    1.291   .     A
C169   O212    1.293   .     A
C169   C185    1.450   .     S
C170   C171    1.420   .     A
C170   C676    1.423   .     S
C170   C700    1.427   .     S
C171   C178    1.419   .     A
C171   C175    1.413   .     A
C172   C176    1.398   .     A
C172   C674    1.423   1_554 S
C172   C677    1.415   1_554 S
C173   C174    1.390   .     A
C173   C676    1.415   .     S
C173   C696    1.400   .     S
C174   C175    1.387   .     A
C174   H204    1.083   .     S
C175   H208    1.079   .     S
C176   C193    1.409   .     A
C176   F223    1.359   .     S
C177   C192    1.393   .     A
C177   C193    1.407   .     A
C177   F220    1.358   .     S
C178   C180    1.473   .     S
C178   C194    1.401   .     A
C179   H209    1.083   .     S
C179   C185    1.402   .     A
C179   C349    1.384   .     S
C180   O215    1.294   .     A
C180   O214    1.300   .     A
C181   C182    1.401   .     A
C181   H199    1.083   .     S
C182   C190    1.450   .     S
C182   C183    1.402   .     A
C183   H200    1.083   .     S
C184   H201    1.083   .     S
C184   C185    1.400   .     A
C184   C351    1.383   .     S
C186   N211    1.360   .     A
C186   H202    1.080   .     S
C186   C243    1.412   .     S
C187   N210    1.377   .     A
C187   Cl221   1.755   .     S
C187   C298    1.412   1_455 S
C188   N210    1.366   .     A
C188   H203    1.082   .     S
C188   C301    1.417   1_455 S
C189   F222    1.355   .     S
C189   N211    1.369   .     A
C189   C244    1.417   .     S
C190   O216    1.291   .     A
C190   O217    1.293   .     A
C191   O219    1.300   .     A
C191   C193    1.471   .     S
C191   O218    1.293   .     A
C192   C677    1.400   1_554 S
C192   H709    1.084   1_554 S
C194   C195    1.387   .     A
C194   H206    1.083   .     S
C195   H207    1.083   .     S
C195   C700    1.394   .     S
C196   Cl224   1.768   .     S
C196   C674    1.427   1_554 S
C196   C699    1.394   1_554 S
Cu197  O214    1.966   .     S
Cu197  Cu198   2.680   .     S
Cu197  O218    1.954   .     S
Cu197  O212    1.966   .     S
Cu197  N210    2.014   .     S
Cu197  O216    1.964   .     S
Cu198  O219    1.966   .     S
Cu198  O213    1.964   .     S
Cu198  O217    1.966   .     S
Cu198  N211    2.014   .     S
Cu198  O215    1.954   .     S
H205   C696    1.084   .     S
C225   O269    1.291   .     A
C225   O268    1.293   .     A
C225   C241    1.450   .     S
C226   C227    1.420   .     A
C226   C732    1.423   .     S
C226   C756    1.427   .     S
C227   C234    1.419   .     A
C227   C231    1.413   .     A
C228   C232    1.398   .     A
C228   C730    1.423   1_554 S
C228   C733    1.415   1_554 S
C229   C230    1.390   .     A
C229   C732    1.415   .     S
C229   C752    1.400   .     S
C230   C231    1.387   .     A
C230   H260    1.083   .     S
C231   H264    1.079   .     S
C232   C249    1.409   .     A
C232   F279    1.359   .     S
C233   C248    1.393   .     A
C233   C249    1.407   .     A
C233   F276    1.358   .     S
C234   C236    1.473   .     S
C234   C250    1.401   .     A
C235   H265    1.083   .     S
C235   C241    1.402   .     A
C235   C405    1.384   .     S
C236   O271    1.294   .     A
C236   O270    1.300   .     A
C237   C238    1.401   .     A
C237   H255    1.083   .     S
C238   C246    1.450   .     S
C238   C239    1.402   .     A
C239   H256    1.083   .     S
C240   H257    1.083   .     S
C240   C241    1.400   .     A
C240   C407    1.383   .     S
C242   N267    1.360   .     A
C242   H258    1.080   .     S
C242   C299    1.412   .     S
C243   N266    1.377   .     A
C243   Cl277   1.755   .     S
C244   N266    1.366   .     A
C244   H259    1.082   .     S
C245   F278    1.355   .     S
C245   N267    1.369   .     A
C245   C300    1.417   .     S
C246   O272    1.291   .     A
C246   O273    1.293   .     A
C247   O275    1.300   .     A
C247   C249    1.471   .     S
C247   O274    1.293   .     A
C248   C733    1.400   1_554 S
C248   H765    1.084   1_554 S
C250   C251    1.387   .     A
C250   H262    1.083   .     S
C251   H263    1.083   .     S
C251   C756    1.394   .     S
C252   Cl280   1.768   .     S
C252   C730    1.427   1_554 S
C252   C755    1.394   1_554 S
Cu253  O270    1.966   .     S
Cu253  Cu254   2.680   .     S
Cu253  O274    1.954   .     S
Cu253  O268    1.966   .     S
Cu253  N266    2.014   .     S
Cu253  O272    1.964   .     S
Cu254  O275    1.966   .     S
Cu254  O269    1.964   .     S
Cu254  O273    1.966   .     S
Cu254  N267    2.014   .     S
Cu254  O271    1.954   .     S
H261   C752    1.084   .     S
C281   O325    1.291   .     A
C281   O324    1.293   .     A
C281   C297    1.450   .     S
C282   C283    1.420   .     A
C282   C788    1.423   .     S
C282   C812    1.427   .     S
C283   C290    1.419   .     A
C283   C287    1.413   .     A
C284   C288    1.398   .     A
C284   C786    1.423   1_554 S
C284   C789    1.415   1_554 S
C285   C286    1.390   .     A
C285   C788    1.415   .     S
C285   C808    1.400   .     S
C286   C287    1.387   .     A
C286   H316    1.083   .     S
C287   H320    1.079   .     S
C288   C305    1.409   .     A
C288   F335    1.359   .     S
C289   C304    1.393   .     A
C289   C305    1.407   .     A
C289   F332    1.358   .     S
C290   C292    1.473   .     S
C290   C306    1.401   .     A
C291   H321    1.083   .     S
C291   C297    1.402   .     A
C291   C461    1.384   .     S
C292   O327    1.294   .     A
C292   O326    1.300   .     A
C293   C294    1.401   .     A
C293   H311    1.083   .     S
C294   C302    1.450   .     S
C294   C295    1.402   .     A
C295   H312    1.083   .     S
C296   H313    1.083   .     S
C296   C297    1.400   .     A
C296   C463    1.383   .     S
C298   N323    1.360   .     A
C298   H314    1.080   .     S
C298   C187    1.412   1_655 S
C299   N322    1.377   .     A
C299   Cl333   1.755   .     S
C300   N322    1.366   .     A
C300   H315    1.082   .     S
C301   F334    1.355   .     S
C301   N323    1.369   .     A
C301   C188    1.417   1_655 S
C302   O328    1.291   .     A
C302   O329    1.293   .     A
C303   O331    1.300   .     A
C303   C305    1.471   .     S
C303   O330    1.293   .     A
C304   C789    1.400   1_554 S
C304   H821    1.084   1_554 S
C306   C307    1.387   .     A
C306   H318    1.083   .     S
C307   H319    1.083   .     S
C307   C812    1.394   .     S
C308   Cl336   1.768   .     S
C308   C786    1.427   1_554 S
C308   C811    1.394   1_554 S
Cu309  O326    1.966   .     S
Cu309  Cu310   2.680   .     S
Cu309  O330    1.954   .     S
Cu309  O324    1.966   .     S
Cu309  N322    2.014   .     S
Cu309  O328    1.964   .     S
Cu310  O331    1.966   .     S
Cu310  O325    1.964   .     S
Cu310  O329    1.966   .     S
Cu310  N323    2.014   .     S
Cu310  O327    1.954   .     S
H317   C808    1.084   .     S
C337   O381    1.291   .     A
C337   O380    1.293   .     A
C337   C353    1.450   .     S
C338   C339    1.420   .     A
C338   C844    1.423   .     S
C338   C868    1.427   .     S
C339   C346    1.419   .     A
C339   C343    1.413   .     A
C340   C344    1.398   .     A
C340   C842    1.423   1_554 S
C340   C845    1.415   1_554 S
C341   C342    1.390   .     A
C341   C844    1.415   .     S
C341   C864    1.400   .     S
C342   C343    1.387   .     A
C342   H372    1.083   .     S
C343   H376    1.079   .     S
C344   C361    1.409   .     A
C344   F391    1.359   .     S
C345   C360    1.393   .     A
C345   C361    1.407   .     A
C345   F388    1.358   .     S
C346   C348    1.473   .     S
C346   C362    1.401   .     A
C347   H377    1.083   .     S
C347   C353    1.402   .     A
C347   C13     1.384   1_565 S
C348   O383    1.294   .     A
C348   O382    1.300   .     A
C349   C350    1.401   .     A
C349   H367    1.083   .     S
C350   C358    1.450   .     S
C350   C351    1.402   .     A
C351   H368    1.083   .     S
C352   H369    1.083   .     S
C352   C353    1.400   .     A
C352   C15     1.383   1_565 S
C354   N379    1.360   .     A
C354   H370    1.080   .     S
C354   C411    1.412   .     S
C355   N378    1.377   .     A
C355   Cl389   1.755   .     S
C355   C466    1.412   1_455 S
C356   N378    1.366   .     A
C356   H371    1.082   .     S
C356   C469    1.417   1_455 S
C357   F390    1.355   .     S
C357   N379    1.369   .     A
C357   C412    1.417   .     S
C358   O384    1.291   .     A
C358   O385    1.293   .     A
C359   O387    1.300   .     A
C359   C361    1.471   .     S
C359   O386    1.293   .     A
C360   C845    1.400   1_554 S
C360   H877    1.084   1_554 S
C362   C363    1.387   .     A
C362   H374    1.083   .     S
C363   H375    1.083   .     S
C363   C868    1.394   .     S
C364   Cl392   1.768   .     S
C364   C842    1.427   1_554 S
C364   C867    1.394   1_554 S
Cu365  O382    1.966   .     S
Cu365  Cu366   2.680   .     S
Cu365  O386    1.954   .     S
Cu365  O380    1.966   .     S
Cu365  N378    2.014   .     S
Cu365  O384    1.964   .     S
Cu366  O387    1.966   .     S
Cu366  O381    1.964   .     S
Cu366  O385    1.966   .     S
Cu366  N379    2.014   .     S
Cu366  O383    1.954   .     S
H373   C864    1.084   .     S
C393   O437    1.291   .     A
C393   O436    1.293   .     A
C393   C409    1.450   .     S
C394   C395    1.420   .     A
C394   C900    1.423   .     S
C394   C924    1.427   .     S
C395   C402    1.419   .     A
C395   C399    1.413   .     A
C396   C400    1.398   .     A
C396   C898    1.423   1_554 S
C396   C901    1.415   1_554 S
C397   C398    1.390   .     A
C397   C900    1.415   .     S
C397   C920    1.400   .     S
C398   C399    1.387   .     A
C398   H428    1.083   .     S
C399   H432    1.079   .     S
C400   C417    1.409   .     A
C400   F447    1.359   .     S
C401   C416    1.393   .     A
C401   C417    1.407   .     A
C401   F444    1.358   .     S
C402   C404    1.473   .     S
C402   C418    1.401   .     A
C403   H433    1.083   .     S
C403   C409    1.402   .     A
C403   C69     1.384   1_565 S
C404   O439    1.294   .     A
C404   O438    1.300   .     A
C405   C406    1.401   .     A
C405   H423    1.083   .     S
C406   C414    1.450   .     S
C406   C407    1.402   .     A
C407   H424    1.083   .     S
C408   H425    1.083   .     S
C408   C409    1.400   .     A
C408   C71     1.383   1_565 S
C410   N435    1.360   .     A
C410   H426    1.080   .     S
C410   C467    1.412   .     S
C411   N434    1.377   .     A
C411   Cl445   1.755   .     S
C412   N434    1.366   .     A
C412   H427    1.082   .     S
C413   F446    1.355   .     S
C413   N435    1.369   .     A
C413   C468    1.417   .     S
C414   O440    1.291   .     A
C414   O441    1.293   .     A
C415   O443    1.300   .     A
C415   C417    1.471   .     S
C415   O442    1.293   .     A
C416   C901    1.400   1_554 S
C416   H933    1.084   1_554 S
C418   C419    1.387   .     A
C418   H430    1.083   .     S
C419   H431    1.083   .     S
C419   C924    1.394   .     S
C420   Cl448   1.768   .     S
C420   C898    1.427   1_554 S
C420   C923    1.394   1_554 S
Cu421  O438    1.966   .     S
Cu421  Cu422   2.680   .     S
Cu421  O442    1.954   .     S
Cu421  O436    1.966   .     S
Cu421  N434    2.014   .     S
Cu421  O440    1.964   .     S
Cu422  O443    1.966   .     S
Cu422  O437    1.964   .     S
Cu422  O441    1.966   .     S
Cu422  N435    2.014   .     S
Cu422  O439    1.954   .     S
H429   C920    1.084   .     S
C449   O493    1.291   .     A
C449   O492    1.293   .     A
C449   C465    1.450   .     S
C450   C451    1.420   .     A
C450   C956    1.423   .     S
C450   C980    1.427   .     S
C451   C458    1.419   .     A
C451   C455    1.413   .     A
C452   C456    1.398   .     A
C452   C954    1.423   1_554 S
C452   C957    1.415   1_554 S
C453   C454    1.390   .     A
C453   C956    1.415   .     S
C453   C976    1.400   .     S
C454   C455    1.387   .     A
C454   H484    1.083   .     S
C455   H488    1.079   .     S
C456   C473    1.409   .     A
C456   F503    1.359   .     S
C457   C472    1.393   .     A
C457   C473    1.407   .     A
C457   F500    1.358   .     S
C458   C460    1.473   .     S
C458   C474    1.401   .     A
C459   H489    1.083   .     S
C459   C465    1.402   .     A
C459   C125    1.384   1_565 S
C460   O495    1.294   .     A
C460   O494    1.300   .     A
C461   C462    1.401   .     A
C461   H479    1.083   .     S
C462   C470    1.450   .     S
C462   C463    1.402   .     A
C463   H480    1.083   .     S
C464   H481    1.083   .     S
C464   C465    1.400   .     A
C464   C127    1.383   1_565 S
C466   N491    1.360   .     A
C466   H482    1.080   .     S
C466   C355    1.412   1_655 S
C467   N490    1.377   .     A
C467   Cl501   1.755   .     S
C468   N490    1.366   .     A
C468   H483    1.082   .     S
C469   F502    1.355   .     S
C469   N491    1.369   .     A
C469   C356    1.417   1_655 S
C470   O496    1.291   .     A
C470   O497    1.293   .     A
C471   O499    1.300   .     A
C471   C473    1.471   .     S
C471   O498    1.293   .     A
C472   C957    1.400   1_554 S
C472   H989    1.084   1_554 S
C474   C475    1.387   .     A
C474   H486    1.083   .     S
C475   H487    1.083   .     S
C475   C980    1.394   .     S
C476   Cl504   1.768   .     S
C476   C954    1.427   1_554 S
C476   C979    1.394   1_554 S
Cu477  O494    1.966   .     S
Cu477  Cu478   2.680   .     S
Cu477  O498    1.954   .     S
Cu477  O492    1.966   .     S
Cu477  N490    2.014   .     S
Cu477  O496    1.964   .     S
Cu478  O499    1.966   .     S
Cu478  O493    1.964   .     S
Cu478  O497    1.966   .     S
Cu478  N491    2.014   .     S
Cu478  O495    1.954   .     S
H485   C976    1.084   .     S
C505   O549    1.291   .     A
C505   O548    1.293   .     A
C505   C521    1.450   .     S
C506   C507    1.420   .     A
C506   C4      1.423   1_556 S
C506   C28     1.427   1_556 S
C507   C514    1.419   .     A
C507   C511    1.413   .     A
C508   C512    1.398   .     A
C509   C510    1.390   .     A
C509   C4      1.415   1_556 S
C509   C24     1.400   1_556 S
C510   C511    1.387   .     A
C510   H540    1.083   .     S
C511   H544    1.079   .     S
C512   C529    1.409   .     A
C512   F559    1.359   .     S
C513   C528    1.393   .     A
C513   C529    1.407   .     A
C513   F556    1.358   .     S
C514   C516    1.473   .     S
C514   C530    1.401   .     A
C515   H545    1.083   .     S
C515   C521    1.402   .     A
C515   C685    1.384   .     S
C516   O551    1.294   .     A
C516   O550    1.300   .     A
C517   C518    1.401   .     A
C517   H535    1.083   .     S
C517   C851    1.384   1_545 S
C518   C526    1.450   .     S
C518   C519    1.402   .     A
C519   H536    1.083   .     S
C519   C856    1.383   1_545 S
C520   H537    1.083   .     S
C520   C521    1.400   .     A
C520   C687    1.383   .     S
C522   N547    1.360   .     A
C522   H538    1.080   .     S
C522   C579    1.412   .     S
C523   N546    1.377   .     A
C523   Cl557   1.755   .     S
C523   C634    1.412   1_455 S
C524   N546    1.366   .     A
C524   H539    1.082   .     S
C524   C637    1.417   1_455 S
C525   F558    1.355   .     S
C525   N547    1.369   .     A
C525   C580    1.417   .     S
C526   O552    1.291   .     A
C526   O553    1.293   .     A
C527   O555    1.300   .     A
C527   C529    1.471   .     S
C527   O554    1.293   .     A
C530   C531    1.387   .     A
C530   H542    1.083   .     S
C531   H543    1.083   .     S
C531   C28     1.394   1_556 S
C532   Cl560   1.768   .     S
Cu533  O550    1.966   .     S
Cu533  Cu534   2.680   .     S
Cu533  O554    1.954   .     S
Cu533  O548    1.966   .     S
Cu533  N546    2.014   .     S
Cu533  O552    1.964   .     S
Cu534  O555    1.966   .     S
Cu534  O549    1.964   .     S
Cu534  O553    1.966   .     S
Cu534  N547    2.014   .     S
Cu534  O551    1.954   .     S
H541   C24     1.084   1_556 S
C561   O605    1.291   .     A
C561   O604    1.293   .     A
C561   C577    1.450   .     S
C562   C563    1.420   .     A
C562   C60     1.423   1_556 S
C562   C84     1.427   1_556 S
C563   C570    1.419   .     A
C563   C567    1.413   .     A
C564   C568    1.398   .     A
C565   C566    1.390   .     A
C565   C60     1.415   1_556 S
C565   C80     1.400   1_556 S
C566   C567    1.387   .     A
C566   H596    1.083   .     S
C567   H600    1.079   .     S
C568   C585    1.409   .     A
C568   F615    1.359   .     S
C569   C584    1.393   .     A
C569   C585    1.407   .     A
C569   F612    1.358   .     S
C570   C572    1.473   .     S
C570   C586    1.401   .     A
C571   H601    1.083   .     S
C571   C577    1.402   .     A
C571   C741    1.384   .     S
C572   O607    1.294   .     A
C572   O606    1.300   .     A
C573   C574    1.401   .     A
C573   H591    1.083   .     S
C573   C907    1.384   1_545 S
C574   C582    1.450   .     S
C574   C575    1.402   .     A
C575   H592    1.083   .     S
C575   C912    1.383   1_545 S
C576   H593    1.083   .     S
C576   C577    1.400   .     A
C576   C743    1.383   .     S
C578   N603    1.360   .     A
C578   H594    1.080   .     S
C578   C635    1.412   .     S
C579   N602    1.377   .     A
C579   Cl613   1.755   .     S
C580   N602    1.366   .     A
C580   H595    1.082   .     S
C581   F614    1.355   .     S
C581   N603    1.369   .     A
C581   C636    1.417   .     S
C582   O608    1.291   .     A
C582   O609    1.293   .     A
C583   O611    1.300   .     A
C583   C585    1.471   .     S
C583   O610    1.293   .     A
C586   C587    1.387   .     A
C586   H598    1.083   .     S
C587   H599    1.083   .     S
C587   C84     1.394   1_556 S
C588   Cl616   1.768   .     S
Cu589  O606    1.966   .     S
Cu589  Cu590   2.680   .     S
Cu589  O610    1.954   .     S
Cu589  O604    1.966   .     S
Cu589  N602    2.014   .     S
Cu589  O608    1.964   .     S
Cu590  O611    1.966   .     S
Cu590  O605    1.964   .     S
Cu590  O609    1.966   .     S
Cu590  N603    2.014   .     S
Cu590  O607    1.954   .     S
H597   C80     1.084   1_556 S
C617   O661    1.291   .     A
C617   O660    1.293   .     A
C617   C633    1.450   .     S
C618   C619    1.420   .     A
C618   C116    1.423   1_556 S
C618   C140    1.427   1_556 S
C619   C626    1.419   .     A
C619   C623    1.413   .     A
C620   C624    1.398   .     A
C621   C622    1.390   .     A
C621   C116    1.415   1_556 S
C621   C136    1.400   1_556 S
C622   C623    1.387   .     A
C622   H652    1.083   .     S
C623   H656    1.079   .     S
C624   C641    1.409   .     A
C624   F671    1.359   .     S
C625   C640    1.393   .     A
C625   C641    1.407   .     A
C625   F668    1.358   .     S
C626   C628    1.473   .     S
C626   C642    1.401   .     A
C627   H657    1.083   .     S
C627   C633    1.402   .     A
C627   C797    1.384   .     S
C628   O663    1.294   .     A
C628   O662    1.300   .     A
C629   C630    1.401   .     A
C629   H647    1.083   .     S
C629   C963    1.384   1_545 S
C630   C638    1.450   .     S
C630   C631    1.402   .     A
C631   H648    1.083   .     S
C631   C968    1.383   1_545 S
C632   H649    1.083   .     S
C632   C633    1.400   .     A
C632   C799    1.383   .     S
C634   N659    1.360   .     A
C634   H650    1.080   .     S
C634   C523    1.412   1_655 S
C635   N658    1.377   .     A
C635   Cl669   1.755   .     S
C636   N658    1.366   .     A
C636   H651    1.082   .     S
C637   F670    1.355   .     S
C637   N659    1.369   .     A
C637   C524    1.417   1_655 S
C638   O664    1.291   .     A
C638   O665    1.293   .     A
C639   O667    1.300   .     A
C639   C641    1.471   .     S
C639   O666    1.293   .     A
C642   C643    1.387   .     A
C642   H654    1.083   .     S
C643   H655    1.083   .     S
C643   C140    1.394   1_556 S
C644   Cl672   1.768   .     S
Cu645  O662    1.966   .     S
Cu645  Cu646   2.680   .     S
Cu645  O666    1.954   .     S
Cu645  O660    1.966   .     S
Cu645  N658    2.014   .     S
Cu645  O664    1.964   .     S
Cu646  O667    1.966   .     S
Cu646  O661    1.964   .     S
Cu646  O665    1.966   .     S
Cu646  N659    2.014   .     S
Cu646  O663    1.954   .     S
H653   C136    1.084   1_556 S
C673   O717    1.291   .     A
C673   O716    1.293   .     A
C673   C689    1.450   .     S
C674   C675    1.420   .     A
C674   C172    1.423   1_556 S
C674   C196    1.427   1_556 S
C675   C682    1.419   .     A
C675   C679    1.413   .     A
C676   C680    1.398   .     A
C677   C678    1.390   .     A
C677   C172    1.415   1_556 S
C677   C192    1.400   1_556 S
C678   C679    1.387   .     A
C678   H708    1.083   .     S
C679   H712    1.079   .     S
C680   C697    1.409   .     A
C680   F727    1.359   .     S
C681   C696    1.393   .     A
C681   C697    1.407   .     A
C681   F724    1.358   .     S
C682   C684    1.473   .     S
C682   C698    1.401   .     A
C683   H713    1.083   .     S
C683   C689    1.402   .     A
C683   C853    1.384   .     S
C684   O719    1.294   .     A
C684   O718    1.300   .     A
C685   C686    1.401   .     A
C685   H703    1.083   .     S
C686   C694    1.450   .     S
C686   C687    1.402   .     A
C687   H704    1.083   .     S
C688   H705    1.083   .     S
C688   C689    1.400   .     A
C688   C855    1.383   .     S
C690   N715    1.360   .     A
C690   H706    1.080   .     S
C690   C747    1.412   .     S
C691   N714    1.377   .     A
C691   Cl725   1.755   .     S
C691   C802    1.412   1_455 S
C692   N714    1.366   .     A
C692   H707    1.082   .     S
C692   C805    1.417   1_455 S
C693   F726    1.355   .     S
C693   N715    1.369   .     A
C693   C748    1.417   .     S
C694   O720    1.291   .     A
C694   O721    1.293   .     A
C695   O723    1.300   .     A
C695   C697    1.471   .     S
C695   O722    1.293   .     A
C698   C699    1.387   .     A
C698   H710    1.083   .     S
C699   H711    1.083   .     S
C699   C196    1.394   1_556 S
C700   Cl728   1.768   .     S
Cu701  O718    1.966   .     S
Cu701  Cu702   2.680   .     S
Cu701  O722    1.954   .     S
Cu701  O716    1.966   .     S
Cu701  N714    2.014   .     S
Cu701  O720    1.964   .     S
Cu702  O723    1.966   .     S
Cu702  O717    1.964   .     S
Cu702  O721    1.966   .     S
Cu702  N715    2.014   .     S
Cu702  O719    1.954   .     S
H709   C192    1.084   1_556 S
C729   O773    1.291   .     A
C729   O772    1.293   .     A
C729   C745    1.450   .     S
C730   C731    1.420   .     A
C730   C228    1.423   1_556 S
C730   C252    1.427   1_556 S
C731   C738    1.419   .     A
C731   C735    1.413   .     A
C732   C736    1.398   .     A
C733   C734    1.390   .     A
C733   C228    1.415   1_556 S
C733   C248    1.400   1_556 S
C734   C735    1.387   .     A
C734   H764    1.083   .     S
C735   H768    1.079   .     S
C736   C753    1.409   .     A
C736   F783    1.359   .     S
C737   C752    1.393   .     A
C737   C753    1.407   .     A
C737   F780    1.358   .     S
C738   C740    1.473   .     S
C738   C754    1.401   .     A
C739   H769    1.083   .     S
C739   C745    1.402   .     A
C739   C909    1.384   .     S
C740   O775    1.294   .     A
C740   O774    1.300   .     A
C741   C742    1.401   .     A
C741   H759    1.083   .     S
C742   C750    1.450   .     S
C742   C743    1.402   .     A
C743   H760    1.083   .     S
C744   H761    1.083   .     S
C744   C745    1.400   .     A
C744   C911    1.383   .     S
C746   N771    1.360   .     A
C746   H762    1.080   .     S
C746   C803    1.412   .     S
C747   N770    1.377   .     A
C747   Cl781   1.755   .     S
C748   N770    1.366   .     A
C748   H763    1.082   .     S
C749   F782    1.355   .     S
C749   N771    1.369   .     A
C749   C804    1.417   .     S
C750   O776    1.291   .     A
C750   O777    1.293   .     A
C751   O779    1.300   .     A
C751   C753    1.471   .     S
C751   O778    1.293   .     A
C754   C755    1.387   .     A
C754   H766    1.083   .     S
C755   H767    1.083   .     S
C755   C252    1.394   1_556 S
C756   Cl784   1.768   .     S
Cu757  O774    1.966   .     S
Cu757  Cu758   2.680   .     S
Cu757  O778    1.954   .     S
Cu757  O772    1.966   .     S
Cu757  N770    2.014   .     S
Cu757  O776    1.964   .     S
Cu758  O779    1.966   .     S
Cu758  O773    1.964   .     S
Cu758  O777    1.966   .     S
Cu758  N771    2.014   .     S
Cu758  O775    1.954   .     S
H765   C248    1.084   1_556 S
C785   O829    1.291   .     A
C785   O828    1.293   .     A
C785   C801    1.450   .     S
C786   C787    1.420   .     A
C786   C284    1.423   1_556 S
C786   C308    1.427   1_556 S
C787   C794    1.419   .     A
C787   C791    1.413   .     A
C788   C792    1.398   .     A
C789   C790    1.390   .     A
C789   C284    1.415   1_556 S
C789   C304    1.400   1_556 S
C790   C791    1.387   .     A
C790   H820    1.083   .     S
C791   H824    1.079   .     S
C792   C809    1.409   .     A
C792   F839    1.359   .     S
C793   C808    1.393   .     A
C793   C809    1.407   .     A
C793   F836    1.358   .     S
C794   C796    1.473   .     S
C794   C810    1.401   .     A
C795   H825    1.083   .     S
C795   C801    1.402   .     A
C795   C965    1.384   .     S
C796   O831    1.294   .     A
C796   O830    1.300   .     A
C797   C798    1.401   .     A
C797   H815    1.083   .     S
C798   C806    1.450   .     S
C798   C799    1.402   .     A
C799   H816    1.083   .     S
C800   H817    1.083   .     S
C800   C801    1.400   .     A
C800   C967    1.383   .     S
C802   N827    1.360   .     A
C802   H818    1.080   .     S
C802   C691    1.412   1_655 S
C803   N826    1.377   .     A
C803   Cl837   1.755   .     S
C804   N826    1.366   .     A
C804   H819    1.082   .     S
C805   F838    1.355   .     S
C805   N827    1.369   .     A
C805   C692    1.417   1_655 S
C806   O832    1.291   .     A
C806   O833    1.293   .     A
C807   O835    1.300   .     A
C807   C809    1.471   .     S
C807   O834    1.293   .     A
C810   C811    1.387   .     A
C810   H822    1.083   .     S
C811   H823    1.083   .     S
C811   C308    1.394   1_556 S
C812   Cl840   1.768   .     S
Cu813  O830    1.966   .     S
Cu813  Cu814   2.680   .     S
Cu813  O834    1.954   .     S
Cu813  O828    1.966   .     S
Cu813  N826    2.014   .     S
Cu813  O832    1.964   .     S
Cu814  O835    1.966   .     S
Cu814  O829    1.964   .     S
Cu814  O833    1.966   .     S
Cu814  N827    2.014   .     S
Cu814  O831    1.954   .     S
H821   C304    1.084   1_556 S
C841   O885    1.291   .     A
C841   O884    1.293   .     A
C841   C857    1.450   .     S
C842   C843    1.420   .     A
C842   C340    1.423   1_556 S
C842   C364    1.427   1_556 S
C843   C850    1.419   .     A
C843   C847    1.413   .     A
C844   C848    1.398   .     A
C845   C846    1.390   .     A
C845   C340    1.415   1_556 S
C845   C360    1.400   1_556 S
C846   C847    1.387   .     A
C846   H876    1.083   .     S
C847   H880    1.079   .     S
C848   C865    1.409   .     A
C848   F895    1.359   .     S
C849   C864    1.393   .     A
C849   C865    1.407   .     A
C849   F892    1.358   .     S
C850   C852    1.473   .     S
C850   C866    1.401   .     A
C851   H881    1.083   .     S
C851   C857    1.402   .     A
C851   C517    1.384   1_565 S
C852   O887    1.294   .     A
C852   O886    1.300   .     A
C853   C854    1.401   .     A
C853   H871    1.083   .     S
C854   C862    1.450   .     S
C854   C855    1.402   .     A
C855   H872    1.083   .     S
C856   H873    1.083   .     S
C856   C857    1.400   .     A
C856   C519    1.383   1_565 S
C858   N883    1.360   .     A
C858   H874    1.080   .     S
C858   C915    1.412   .     S
C859   N882    1.377   .     A
C859   Cl893   1.755   .     S
C859   C970    1.412   1_455 S
C860   N882    1.366   .     A
C860   H875    1.082   .     S
C860   C973    1.417   1_455 S
C861   F894    1.355   .     S
C861   N883    1.369   .     A
C861   C916    1.417   .     S
C862   O888    1.291   .     A
C862   O889    1.293   .     A
C863   O891    1.300   .     A
C863   C865    1.471   .     S
C863   O890    1.293   .     A
C866   C867    1.387   .     A
C866   H878    1.083   .     S
C867   H879    1.083   .     S
C867   C364    1.394   1_556 S
C868   Cl896   1.768   .     S
Cu869  O886    1.966   .     S
Cu869  Cu870   2.680   .     S
Cu869  O890    1.954   .     S
Cu869  O884    1.966   .     S
Cu869  N882    2.014   .     S
Cu869  O888    1.964   .     S
Cu870  O891    1.966   .     S
Cu870  O885    1.964   .     S
Cu870  O889    1.966   .     S
Cu870  N883    2.014   .     S
Cu870  O887    1.954   .     S
H877   C360    1.084   1_556 S
C897   O941    1.291   .     A
C897   O940    1.293   .     A
C897   C913    1.450   .     S
C898   C899    1.420   .     A
C898   C396    1.423   1_556 S
C898   C420    1.427   1_556 S
C899   C906    1.419   .     A
C899   C903    1.413   .     A
C900   C904    1.398   .     A
C901   C902    1.390   .     A
C901   C396    1.415   1_556 S
C901   C416    1.400   1_556 S
C902   C903    1.387   .     A
C902   H932    1.083   .     S
C903   H936    1.079   .     S
C904   C921    1.409   .     A
C904   F951    1.359   .     S
C905   C920    1.393   .     A
C905   C921    1.407   .     A
C905   F948    1.358   .     S
C906   C908    1.473   .     S
C906   C922    1.401   .     A
C907   H937    1.083   .     S
C907   C913    1.402   .     A
C907   C573    1.384   1_565 S
C908   O943    1.294   .     A
C908   O942    1.300   .     A
C909   C910    1.401   .     A
C909   H927    1.083   .     S
C910   C918    1.450   .     S
C910   C911    1.402   .     A
C911   H928    1.083   .     S
C912   H929    1.083   .     S
C912   C913    1.400   .     A
C912   C575    1.383   1_565 S
C914   N939    1.360   .     A
C914   H930    1.080   .     S
C914   C971    1.412   .     S
C915   N938    1.377   .     A
C915   Cl949   1.755   .     S
C916   N938    1.366   .     A
C916   H931    1.082   .     S
C917   F950    1.355   .     S
C917   N939    1.369   .     A
C917   C972    1.417   .     S
C918   O944    1.291   .     A
C918   O945    1.293   .     A
C919   O947    1.300   .     A
C919   C921    1.471   .     S
C919   O946    1.293   .     A
C922   C923    1.387   .     A
C922   H934    1.083   .     S
C923   H935    1.083   .     S
C923   C420    1.394   1_556 S
C924   Cl952   1.768   .     S
Cu925  O942    1.966   .     S
Cu925  Cu926   2.680   .     S
Cu925  O946    1.954   .     S
Cu925  O940    1.966   .     S
Cu925  N938    2.014   .     S
Cu925  O944    1.964   .     S
Cu926  O947    1.966   .     S
Cu926  O941    1.964   .     S
Cu926  O945    1.966   .     S
Cu926  N939    2.014   .     S
Cu926  O943    1.954   .     S
H933   C416    1.084   1_556 S
C953   O997    1.291   .     A
C953   O996    1.293   .     A
C953   C969    1.450   .     S
C954   C955    1.420   .     A
C954   C452    1.423   1_556 S
C954   C476    1.427   1_556 S
C955   C962    1.419   .     A
C955   C959    1.413   .     A
C956   C960    1.398   .     A
C957   C958    1.390   .     A
C957   C452    1.415   1_556 S
C957   C472    1.400   1_556 S
C958   C959    1.387   .     A
C958   H988    1.083   .     S
C959   H992    1.079   .     S
C960   C977    1.409   .     A
C960   F1007   1.359   .     S
C961   C976    1.393   .     A
C961   C977    1.407   .     A
C961   F1004   1.358   .     S
C962   C964    1.473   .     S
C962   C978    1.401   .     A
C963   H993    1.083   .     S
C963   C969    1.402   .     A
C963   C629    1.384   1_565 S
C964   O999    1.294   .     A
C964   O998    1.300   .     A
C965   C966    1.401   .     A
C965   H983    1.083   .     S
C966   C974    1.450   .     S
C966   C967    1.402   .     A
C967   H984    1.083   .     S
C968   H985    1.083   .     S
C968   C969    1.400   .     A
C968   C631    1.383   1_565 S
C970   N995    1.360   .     A
C970   H986    1.080   .     S
C970   C859    1.412   1_655 S
C971   N994    1.377   .     A
C971   Cl1005  1.755   .     S
C972   N994    1.366   .     A
C972   H987    1.082   .     S
C973   F1006   1.355   .     S
C973   N995    1.369   .     A
C973   C860    1.417   1_655 S
C974   O1000   1.291   .     A
C974   O1001   1.293   .     A
C975   O1003   1.300   .     A
C975   C977    1.471   .     S
C975   O1002   1.293   .     A
C978   C979    1.387   .     A
C978   H990    1.083   .     S
C979   H991    1.083   .     S
C979   C476    1.394   1_556 S
C980   Cl1008  1.768   .     S
Cu981  O998    1.966   .     S
Cu981  Cu982   2.680   .     S
Cu981  O1002   1.954   .     S
Cu981  O996    1.966   .     S
Cu981  N994    2.014   .     S
Cu981  O1000   1.964   .     S
Cu982  O1003   1.966   .     S
Cu982  O997    1.964   .     S
Cu982  O1001   1.966   .     S
Cu982  N995    2.014   .     S
Cu982  O999    1.954   .     S
H989   C472    1.084   1_556 S
