data_str_m1_o10_o18_pcu_sym.50
_audit_creation_date              2020-01-03
_audit_creation_method            'Materials Studio'
_symmetry_space_group_name_H-M    'P1'
_symmetry_Int_Tables_number       1
_symmetry_cell_setting            triclinic
loop_
_symmetry_equiv_pos_as_xyz
  x,y,z
_cell_length_a                    32.5865
_cell_length_b                    32.5195
_cell_length_c                    35.8543
_cell_angle_alpha                 98.1823
_cell_angle_beta                  72.7220
_cell_angle_gamma                 98.6648
loop_
_atom_site_label
_atom_site_type_symbol
_atom_site_fract_x
_atom_site_fract_y
_atom_site_fract_z
_atom_site_U_iso_or_equiv
_atom_site_adp_type
_atom_site_occupancy
Br1    Br    0.03445   0.20484   0.19478   0.00000  Uiso   1.00
C2     C     0.05245   0.15985   0.25896   0.00000  Uiso   1.00
C3     C     0.20940   0.14512   0.45960   0.00000  Uiso   1.00
C4     C     0.23151   0.12696   0.47929   0.00000  Uiso   1.00
C5     C     0.28114   0.17358   0.24102   0.00000  Uiso   1.00
C6     C     0.21947   0.13049   0.02004   0.00000  Uiso   1.00
C7     C     0.18453   0.15325   0.04197   0.00000  Uiso   1.00
C8     C     0.24284   0.11207   0.03910   0.00000  Uiso   1.00
C9     C     0.23229   0.11624   0.07984   0.00000  Uiso   1.00
C10    C     0.17333   0.15527   0.08330   0.00000  Uiso   1.00
C11    C     0.32738   0.17607   0.23670   0.00000  Uiso   1.00
C12    C     0.00723   0.15819   0.26190   0.00000  Uiso   1.00
C13    C     0.10642   0.22438   0.42004   0.00000  Uiso   1.00
C14    C     0.18094   0.32219   0.23805   0.00000  Uiso   1.00
C15    C     0.15151   0.01209   0.26203   0.00000  Uiso   1.00
C16    C     0.15594   0.05615   0.25885   0.00000  Uiso   1.00
C17    C     0.17687   0.27770   0.24132   0.00000  Uiso   1.00
C18    C     0.18842   0.14524   0.14412   0.00000  Uiso   1.00
C19    C     0.14536   0.18777   0.35612   0.00000  Uiso   1.00
C20    C     0.13618   0.19676   0.39901   0.00000  Uiso   1.00
C21    C     0.19749   0.13768   0.10177   0.00000  Uiso   1.00
C22    C     0.09752   0.23193   0.46064   0.00000  Uiso   1.00
C23    C     0.07593   0.24800   0.04644   0.00000  Uiso   1.00
C24    C     0.15742   0.17732   0.41900   0.00000  Uiso   1.00
C25    C     0.15061   0.18581   0.45993   0.00000  Uiso   1.00
C26    C     0.11893   0.21268   0.48122   0.00000  Uiso   1.00
C27    C     0.17401   0.16770   0.48005   0.00000  Uiso   1.00
C28    C     0.16255   0.17331   0.02181   0.00000  Uiso   1.00
C29    C     0.13055   0.19975   0.04205   0.00000  Uiso   1.00
C30    C     0.10925   0.21968   0.02246   0.00000  Uiso   1.00
H31    H     0.26982   0.09509   0.02243   0.00000  Uiso   1.00
H32    H     0.17838   0.15477   0.40187   0.00000  Uiso   1.00
H33    H     0.12216   0.20666   0.07343   0.00000  Uiso   1.00
H34    H     0.22216   0.14200   0.42813   0.00000  Uiso   1.00
H35    H     0.07230   0.24983   0.07842   0.00000  Uiso   1.00
H36    H     0.08571   0.28020   0.03758   0.00000  Uiso   1.00
H37    H     0.04386   0.23601   0.04183   0.00000  Uiso   1.00
H38    H     0.31775   0.14241   0.28576   0.00000  Uiso   1.00
H39    H     0.20815   0.00284   0.21598   0.00000  Uiso   1.00
H40    H     0.12392   0.33220   0.28417   0.00000  Uiso   1.00
H41    H     0.14646   0.17062   0.10226   0.00000  Uiso   1.00
H42    H     0.25131   0.10296   0.09428   0.00000  Uiso   1.00
H43    H     0.25859   0.11020   0.46235   0.00000  Uiso   1.00
H44    H     0.07365   0.25299   0.47558   0.00000  Uiso   1.00
H45    H     0.08947   0.23978   0.40519   0.00000  Uiso   1.00
O46    O     0.16667   0.16667   0.25000   0.00000  Uiso   1.00
O47    O     0.15693   0.12393   0.16625   0.00000  Uiso   1.00
O48    O     0.12687   0.20646   0.33749   0.00000  Uiso   1.00
O49    O     0.21088   0.17493   0.15877   0.00000  Uiso   1.00
O50    O     0.17198   0.16135   0.33749   0.00000  Uiso   1.00
O51    O     0.17849   0.08101   0.27820   0.00000  Uiso   1.00
O52    O     0.14581   0.26136   0.26767   0.00000  Uiso   1.00
O53    O     0.07452   0.13251   0.23607   0.00000  Uiso   1.00
O54    O     0.26785   0.19179   0.21805   0.00000  Uiso   1.00
O55    O     0.06990   0.18960   0.27820   0.00000  Uiso   1.00
O56    O     0.25440   0.15277   0.26767   0.00000  Uiso   1.00
O57    O     0.13800   0.06903   0.23607   0.00000  Uiso   1.00
O58    O     0.20437   0.25527   0.21805   0.00000  Uiso   1.00
Zn59   Zn    0.19244   0.14090   0.28277   0.00000  Uiso   1.00
Zn60   Zn    0.13459   0.12378   0.22257   0.00000  Uiso   1.00
Zn61   Zn    0.21166   0.19664   0.21188   0.00000  Uiso   1.00
Zn62   Zn    0.12798   0.20535   0.28277   0.00000  Uiso   1.00
Br63   Br    0.36778   0.20484   0.19478   0.00000  Uiso   1.00
C64    C     0.38579   0.15985   0.25896   0.00000  Uiso   1.00
C65    C     0.54273   0.14512   0.45960   0.00000  Uiso   1.00
C66    C     0.56485   0.12696   0.47929   0.00000  Uiso   1.00
C67    C     0.61447   0.17358   0.24102   0.00000  Uiso   1.00
C68    C     0.55281   0.13049   0.02004   0.00000  Uiso   1.00
C69    C     0.51786   0.15325   0.04197   0.00000  Uiso   1.00
C70    C     0.57618   0.11207   0.03910   0.00000  Uiso   1.00
C71    C     0.56562   0.11624   0.07984   0.00000  Uiso   1.00
C72    C     0.50667   0.15527   0.08330   0.00000  Uiso   1.00
C73    C     0.66071   0.17607   0.23670   0.00000  Uiso   1.00
C74    C     0.34056   0.15819   0.26190   0.00000  Uiso   1.00
C75    C     0.43975   0.22438   0.42004   0.00000  Uiso   1.00
C76    C     0.51428   0.32219   0.23805   0.00000  Uiso   1.00
C77    C     0.48484   0.01209   0.26203   0.00000  Uiso   1.00
C78    C     0.48927   0.05615   0.25885   0.00000  Uiso   1.00
C79    C     0.51021   0.27770   0.24132   0.00000  Uiso   1.00
C80    C     0.52175   0.14524   0.14412   0.00000  Uiso   1.00
C81    C     0.47869   0.18777   0.35612   0.00000  Uiso   1.00
C82    C     0.46951   0.19676   0.39901   0.00000  Uiso   1.00
C83    C     0.53082   0.13768   0.10177   0.00000  Uiso   1.00
C84    C     0.43085   0.23193   0.46064   0.00000  Uiso   1.00
C85    C     0.40926   0.24800   0.04644   0.00000  Uiso   1.00
C86    C     0.49075   0.17732   0.41900   0.00000  Uiso   1.00
C87    C     0.48395   0.18581   0.45993   0.00000  Uiso   1.00
C88    C     0.45227   0.21268   0.48122   0.00000  Uiso   1.00
C89    C     0.50734   0.16770   0.48005   0.00000  Uiso   1.00
C90    C     0.49589   0.17331   0.02181   0.00000  Uiso   1.00
C91    C     0.46388   0.19975   0.04205   0.00000  Uiso   1.00
C92    C     0.44258   0.21968   0.02246   0.00000  Uiso   1.00
H93    H     0.60315   0.09509   0.02243   0.00000  Uiso   1.00
H94    H     0.51172   0.15477   0.40187   0.00000  Uiso   1.00
H95    H     0.45549   0.20666   0.07343   0.00000  Uiso   1.00
H96    H     0.55549   0.14200   0.42813   0.00000  Uiso   1.00
H97    H     0.40564   0.24983   0.07842   0.00000  Uiso   1.00
H98    H     0.41904   0.28020   0.03758   0.00000  Uiso   1.00
H99    H     0.37719   0.23601   0.04183   0.00000  Uiso   1.00
H100   H     0.65109   0.14241   0.28576   0.00000  Uiso   1.00
H101   H     0.54149   0.00284   0.21598   0.00000  Uiso   1.00
H102   H     0.45725   0.33220   0.28417   0.00000  Uiso   1.00
H103   H     0.47980   0.17062   0.10226   0.00000  Uiso   1.00
H104   H     0.58465   0.10296   0.09428   0.00000  Uiso   1.00
H105   H     0.59192   0.11020   0.46235   0.00000  Uiso   1.00
H106   H     0.40698   0.25299   0.47558   0.00000  Uiso   1.00
H107   H     0.42281   0.23978   0.40519   0.00000  Uiso   1.00
O108   O     0.50000   0.16667   0.25000   0.00000  Uiso   1.00
O109   O     0.49027   0.12393   0.16625   0.00000  Uiso   1.00
O110   O     0.46020   0.20646   0.33749   0.00000  Uiso   1.00
O111   O     0.54421   0.17493   0.15877   0.00000  Uiso   1.00
O112   O     0.50532   0.16135   0.33749   0.00000  Uiso   1.00
O113   O     0.51182   0.08101   0.27820   0.00000  Uiso   1.00
O114   O     0.47914   0.26136   0.26767   0.00000  Uiso   1.00
O115   O     0.40785   0.13251   0.23607   0.00000  Uiso   1.00
O116   O     0.60119   0.19179   0.21805   0.00000  Uiso   1.00
O117   O     0.40323   0.18960   0.27820   0.00000  Uiso   1.00
O118   O     0.58773   0.15277   0.26767   0.00000  Uiso   1.00
O119   O     0.47133   0.06903   0.23607   0.00000  Uiso   1.00
O120   O     0.53771   0.25527   0.21805   0.00000  Uiso   1.00
Zn121  Zn    0.52577   0.14090   0.28277   0.00000  Uiso   1.00
Zn122  Zn    0.46792   0.12378   0.22257   0.00000  Uiso   1.00
Zn123  Zn    0.54500   0.19664   0.21188   0.00000  Uiso   1.00
Zn124  Zn    0.46131   0.20535   0.28277   0.00000  Uiso   1.00
Br125  Br    0.70112   0.20484   0.19478   0.00000  Uiso   1.00
C126   C     0.71912   0.15985   0.25896   0.00000  Uiso   1.00
C127   C     0.87607   0.14512   0.45960   0.00000  Uiso   1.00
C128   C     0.89818   0.12696   0.47929   0.00000  Uiso   1.00
C129   C     0.94780   0.17358   0.24102   0.00000  Uiso   1.00
C130   C     0.88614   0.13049   0.02004   0.00000  Uiso   1.00
C131   C     0.85119   0.15325   0.04197   0.00000  Uiso   1.00
C132   C     0.90951   0.11207   0.03910   0.00000  Uiso   1.00
C133   C     0.89895   0.11624   0.07984   0.00000  Uiso   1.00
C134   C     0.84000   0.15527   0.08330   0.00000  Uiso   1.00
C135   C     0.99405   0.17607   0.23670   0.00000  Uiso   1.00
C136   C     0.67389   0.15819   0.26190   0.00000  Uiso   1.00
C137   C     0.77308   0.22438   0.42004   0.00000  Uiso   1.00
C138   C     0.84761   0.32219   0.23805   0.00000  Uiso   1.00
C139   C     0.81818   0.01209   0.26203   0.00000  Uiso   1.00
C140   C     0.82261   0.05615   0.25885   0.00000  Uiso   1.00
C141   C     0.84354   0.27770   0.24132   0.00000  Uiso   1.00
C142   C     0.85509   0.14524   0.14412   0.00000  Uiso   1.00
C143   C     0.81202   0.18777   0.35612   0.00000  Uiso   1.00
C144   C     0.80285   0.19676   0.39901   0.00000  Uiso   1.00
C145   C     0.86416   0.13768   0.10177   0.00000  Uiso   1.00
C146   C     0.76418   0.23193   0.46064   0.00000  Uiso   1.00
C147   C     0.74260   0.24800   0.04644   0.00000  Uiso   1.00
C148   C     0.82409   0.17732   0.41900   0.00000  Uiso   1.00
C149   C     0.81728   0.18581   0.45993   0.00000  Uiso   1.00
C150   C     0.78560   0.21268   0.48122   0.00000  Uiso   1.00
C151   C     0.84067   0.16770   0.48005   0.00000  Uiso   1.00
C152   C     0.82922   0.17331   0.02181   0.00000  Uiso   1.00
C153   C     0.79721   0.19975   0.04205   0.00000  Uiso   1.00
C154   C     0.77591   0.21968   0.02246   0.00000  Uiso   1.00
H155   H     0.93648   0.09509   0.02243   0.00000  Uiso   1.00
H156   H     0.84505   0.15477   0.40187   0.00000  Uiso   1.00
H157   H     0.78883   0.20666   0.07343   0.00000  Uiso   1.00
H158   H     0.88883   0.14200   0.42813   0.00000  Uiso   1.00
H159   H     0.73897   0.24983   0.07842   0.00000  Uiso   1.00
H160   H     0.75238   0.28020   0.03758   0.00000  Uiso   1.00
H161   H     0.71053   0.23601   0.04183   0.00000  Uiso   1.00
H162   H     0.98442   0.14241   0.28576   0.00000  Uiso   1.00
H163   H     0.87482   0.00284   0.21598   0.00000  Uiso   1.00
H164   H     0.79059   0.33220   0.28417   0.00000  Uiso   1.00
H165   H     0.81313   0.17062   0.10226   0.00000  Uiso   1.00
H166   H     0.91798   0.10296   0.09428   0.00000  Uiso   1.00
H167   H     0.92525   0.11020   0.46235   0.00000  Uiso   1.00
H168   H     0.74032   0.25299   0.47558   0.00000  Uiso   1.00
H169   H     0.75614   0.23978   0.40519   0.00000  Uiso   1.00
O170   O     0.83333   0.16667   0.25000   0.00000  Uiso   1.00
O171   O     0.82360   0.12393   0.16625   0.00000  Uiso   1.00
O172   O     0.79354   0.20646   0.33749   0.00000  Uiso   1.00
O173   O     0.87755   0.17493   0.15877   0.00000  Uiso   1.00
O174   O     0.83865   0.16135   0.33749   0.00000  Uiso   1.00
O175   O     0.84515   0.08101   0.27820   0.00000  Uiso   1.00
O176   O     0.81247   0.26136   0.26767   0.00000  Uiso   1.00
O177   O     0.74119   0.13251   0.23607   0.00000  Uiso   1.00
O178   O     0.93452   0.19179   0.21805   0.00000  Uiso   1.00
O179   O     0.73656   0.18960   0.27820   0.00000  Uiso   1.00
O180   O     0.92106   0.15277   0.26767   0.00000  Uiso   1.00
O181   O     0.80467   0.06903   0.23607   0.00000  Uiso   1.00
O182   O     0.87104   0.25527   0.21805   0.00000  Uiso   1.00
Zn183  Zn    0.85910   0.14090   0.28277   0.00000  Uiso   1.00
Zn184  Zn    0.80125   0.12378   0.22257   0.00000  Uiso   1.00
Zn185  Zn    0.87833   0.19664   0.21188   0.00000  Uiso   1.00
Zn186  Zn    0.79465   0.20535   0.28277   0.00000  Uiso   1.00
Br187  Br    0.03445   0.53818   0.19478   0.00000  Uiso   1.00
C188   C     0.05245   0.49318   0.25896   0.00000  Uiso   1.00
C189   C     0.20940   0.47845   0.45960   0.00000  Uiso   1.00
C190   C     0.23151   0.46029   0.47929   0.00000  Uiso   1.00
C191   C     0.28114   0.50691   0.24102   0.00000  Uiso   1.00
C192   C     0.21947   0.46383   0.02004   0.00000  Uiso   1.00
C193   C     0.18453   0.48658   0.04197   0.00000  Uiso   1.00
C194   C     0.24284   0.44540   0.03910   0.00000  Uiso   1.00
C195   C     0.23229   0.44958   0.07984   0.00000  Uiso   1.00
C196   C     0.17333   0.48860   0.08330   0.00000  Uiso   1.00
C197   C     0.32738   0.50940   0.23670   0.00000  Uiso   1.00
C198   C     0.00723   0.49152   0.26190   0.00000  Uiso   1.00
C199   C     0.10642   0.55771   0.42004   0.00000  Uiso   1.00
C200   C     0.18094   0.65553   0.23805   0.00000  Uiso   1.00
C201   C     0.15151   0.34542   0.26203   0.00000  Uiso   1.00
C202   C     0.15594   0.38948   0.25885   0.00000  Uiso   1.00
C203   C     0.17687   0.61103   0.24132   0.00000  Uiso   1.00
C204   C     0.18842   0.47857   0.14412   0.00000  Uiso   1.00
C205   C     0.14536   0.52110   0.35612   0.00000  Uiso   1.00
C206   C     0.13618   0.53010   0.39901   0.00000  Uiso   1.00
C207   C     0.19749   0.47101   0.10177   0.00000  Uiso   1.00
C208   C     0.09752   0.56527   0.46064   0.00000  Uiso   1.00
C209   C     0.07593   0.58134   0.04644   0.00000  Uiso   1.00
C210   C     0.15742   0.51066   0.41900   0.00000  Uiso   1.00
C211   C     0.15061   0.51915   0.45993   0.00000  Uiso   1.00
C212   C     0.11893   0.54602   0.48122   0.00000  Uiso   1.00
C213   C     0.17401   0.50103   0.48005   0.00000  Uiso   1.00
C214   C     0.16255   0.50664   0.02181   0.00000  Uiso   1.00
C215   C     0.13055   0.53308   0.04205   0.00000  Uiso   1.00
C216   C     0.10925   0.55301   0.02246   0.00000  Uiso   1.00
H217   H     0.26982   0.42842   0.02243   0.00000  Uiso   1.00
H218   H     0.17838   0.48810   0.40187   0.00000  Uiso   1.00
H219   H     0.12216   0.54000   0.07343   0.00000  Uiso   1.00
H220   H     0.22216   0.47534   0.42813   0.00000  Uiso   1.00
H221   H     0.07230   0.58317   0.07842   0.00000  Uiso   1.00
H222   H     0.08571   0.61354   0.03758   0.00000  Uiso   1.00
H223   H     0.04386   0.56934   0.04183   0.00000  Uiso   1.00
H224   H     0.31775   0.47574   0.28576   0.00000  Uiso   1.00
H225   H     0.20815   0.33617   0.21598   0.00000  Uiso   1.00
H226   H     0.12392   0.66553   0.28417   0.00000  Uiso   1.00
H227   H     0.14646   0.50395   0.10226   0.00000  Uiso   1.00
H228   H     0.25131   0.43630   0.09428   0.00000  Uiso   1.00
H229   H     0.25859   0.44354   0.46235   0.00000  Uiso   1.00
H230   H     0.07365   0.58633   0.47558   0.00000  Uiso   1.00
H231   H     0.08947   0.57311   0.40519   0.00000  Uiso   1.00
O232   O     0.16667   0.50000   0.25000   0.00000  Uiso   1.00
O233   O     0.15693   0.45726   0.16625   0.00000  Uiso   1.00
O234   O     0.12687   0.53979   0.33749   0.00000  Uiso   1.00
O235   O     0.21088   0.50826   0.15877   0.00000  Uiso   1.00
O236   O     0.17198   0.49468   0.33749   0.00000  Uiso   1.00
O237   O     0.17849   0.41434   0.27820   0.00000  Uiso   1.00
O238   O     0.14581   0.59469   0.26767   0.00000  Uiso   1.00
O239   O     0.07452   0.46584   0.23607   0.00000  Uiso   1.00
O240   O     0.26785   0.52512   0.21805   0.00000  Uiso   1.00
O241   O     0.06990   0.52293   0.27820   0.00000  Uiso   1.00
O242   O     0.25440   0.48610   0.26767   0.00000  Uiso   1.00
O243   O     0.13800   0.40236   0.23607   0.00000  Uiso   1.00
O244   O     0.20437   0.58860   0.21805   0.00000  Uiso   1.00
Zn245  Zn    0.19244   0.47423   0.28277   0.00000  Uiso   1.00
Zn246  Zn    0.13459   0.45711   0.22257   0.00000  Uiso   1.00
Zn247  Zn    0.21166   0.52997   0.21188   0.00000  Uiso   1.00
Zn248  Zn    0.12798   0.53868   0.28277   0.00000  Uiso   1.00
Br249  Br    0.36778   0.53818   0.19478   0.00000  Uiso   1.00
C250   C     0.38579   0.49318   0.25896   0.00000  Uiso   1.00
C251   C     0.54273   0.47845   0.45960   0.00000  Uiso   1.00
C252   C     0.56485   0.46029   0.47929   0.00000  Uiso   1.00
C253   C     0.61447   0.50691   0.24102   0.00000  Uiso   1.00
C254   C     0.55281   0.46383   0.02004   0.00000  Uiso   1.00
C255   C     0.51786   0.48658   0.04197   0.00000  Uiso   1.00
C256   C     0.57618   0.44540   0.03910   0.00000  Uiso   1.00
C257   C     0.56562   0.44958   0.07984   0.00000  Uiso   1.00
C258   C     0.50667   0.48860   0.08330   0.00000  Uiso   1.00
C259   C     0.66071   0.50940   0.23670   0.00000  Uiso   1.00
C260   C     0.34056   0.49152   0.26190   0.00000  Uiso   1.00
C261   C     0.43975   0.55771   0.42004   0.00000  Uiso   1.00
C262   C     0.51428   0.65553   0.23805   0.00000  Uiso   1.00
C263   C     0.48484   0.34542   0.26203   0.00000  Uiso   1.00
C264   C     0.48927   0.38948   0.25885   0.00000  Uiso   1.00
C265   C     0.51021   0.61103   0.24132   0.00000  Uiso   1.00
C266   C     0.52175   0.47857   0.14412   0.00000  Uiso   1.00
C267   C     0.47869   0.52110   0.35612   0.00000  Uiso   1.00
C268   C     0.46951   0.53010   0.39901   0.00000  Uiso   1.00
C269   C     0.53082   0.47101   0.10177   0.00000  Uiso   1.00
C270   C     0.43085   0.56527   0.46064   0.00000  Uiso   1.00
C271   C     0.40926   0.58134   0.04644   0.00000  Uiso   1.00
C272   C     0.49075   0.51066   0.41900   0.00000  Uiso   1.00
C273   C     0.48395   0.51915   0.45993   0.00000  Uiso   1.00
C274   C     0.45227   0.54602   0.48122   0.00000  Uiso   1.00
C275   C     0.50734   0.50103   0.48005   0.00000  Uiso   1.00
C276   C     0.49589   0.50664   0.02181   0.00000  Uiso   1.00
C277   C     0.46388   0.53308   0.04205   0.00000  Uiso   1.00
C278   C     0.44258   0.55301   0.02246   0.00000  Uiso   1.00
H279   H     0.60315   0.42842   0.02243   0.00000  Uiso   1.00
H280   H     0.51172   0.48810   0.40187   0.00000  Uiso   1.00
H281   H     0.45549   0.54000   0.07343   0.00000  Uiso   1.00
H282   H     0.55549   0.47534   0.42813   0.00000  Uiso   1.00
H283   H     0.40564   0.58317   0.07842   0.00000  Uiso   1.00
H284   H     0.41904   0.61354   0.03758   0.00000  Uiso   1.00
H285   H     0.37719   0.56934   0.04183   0.00000  Uiso   1.00
H286   H     0.65109   0.47574   0.28576   0.00000  Uiso   1.00
H287   H     0.54149   0.33617   0.21598   0.00000  Uiso   1.00
H288   H     0.45725   0.66553   0.28417   0.00000  Uiso   1.00
H289   H     0.47980   0.50395   0.10226   0.00000  Uiso   1.00
H290   H     0.58465   0.43630   0.09428   0.00000  Uiso   1.00
H291   H     0.59192   0.44354   0.46235   0.00000  Uiso   1.00
H292   H     0.40698   0.58633   0.47558   0.00000  Uiso   1.00
H293   H     0.42281   0.57311   0.40519   0.00000  Uiso   1.00
O294   O     0.50000   0.50000   0.25000   0.00000  Uiso   1.00
O295   O     0.49027   0.45726   0.16625   0.00000  Uiso   1.00
O296   O     0.46020   0.53979   0.33749   0.00000  Uiso   1.00
O297   O     0.54421   0.50826   0.15877   0.00000  Uiso   1.00
O298   O     0.50532   0.49468   0.33749   0.00000  Uiso   1.00
O299   O     0.51182   0.41434   0.27820   0.00000  Uiso   1.00
O300   O     0.47914   0.59469   0.26767   0.00000  Uiso   1.00
O301   O     0.40785   0.46584   0.23607   0.00000  Uiso   1.00
O302   O     0.60119   0.52512   0.21805   0.00000  Uiso   1.00
O303   O     0.40323   0.52293   0.27820   0.00000  Uiso   1.00
O304   O     0.58773   0.48610   0.26767   0.00000  Uiso   1.00
O305   O     0.47133   0.40236   0.23607   0.00000  Uiso   1.00
O306   O     0.53771   0.58860   0.21805   0.00000  Uiso   1.00
Zn307  Zn    0.52577   0.47423   0.28277   0.00000  Uiso   1.00
Zn308  Zn    0.46792   0.45711   0.22257   0.00000  Uiso   1.00
Zn309  Zn    0.54500   0.52997   0.21188   0.00000  Uiso   1.00
Zn310  Zn    0.46131   0.53868   0.28277   0.00000  Uiso   1.00
Br311  Br    0.70112   0.53818   0.19478   0.00000  Uiso   1.00
C312   C     0.71912   0.49318   0.25896   0.00000  Uiso   1.00
C313   C     0.87607   0.47845   0.45960   0.00000  Uiso   1.00
C314   C     0.89818   0.46029   0.47929   0.00000  Uiso   1.00
C315   C     0.94780   0.50691   0.24102   0.00000  Uiso   1.00
C316   C     0.88614   0.46383   0.02004   0.00000  Uiso   1.00
C317   C     0.85119   0.48658   0.04197   0.00000  Uiso   1.00
C318   C     0.90951   0.44540   0.03910   0.00000  Uiso   1.00
C319   C     0.89895   0.44958   0.07984   0.00000  Uiso   1.00
C320   C     0.84000   0.48860   0.08330   0.00000  Uiso   1.00
C321   C     0.99405   0.50940   0.23670   0.00000  Uiso   1.00
C322   C     0.67389   0.49152   0.26190   0.00000  Uiso   1.00
C323   C     0.77308   0.55771   0.42004   0.00000  Uiso   1.00
C324   C     0.84761   0.65553   0.23805   0.00000  Uiso   1.00
C325   C     0.81818   0.34542   0.26203   0.00000  Uiso   1.00
C326   C     0.82261   0.38948   0.25885   0.00000  Uiso   1.00
C327   C     0.84354   0.61103   0.24132   0.00000  Uiso   1.00
C328   C     0.85509   0.47857   0.14412   0.00000  Uiso   1.00
C329   C     0.81202   0.52110   0.35612   0.00000  Uiso   1.00
C330   C     0.80285   0.53010   0.39901   0.00000  Uiso   1.00
C331   C     0.86416   0.47101   0.10177   0.00000  Uiso   1.00
C332   C     0.76418   0.56527   0.46064   0.00000  Uiso   1.00
C333   C     0.74260   0.58134   0.04644   0.00000  Uiso   1.00
C334   C     0.82409   0.51066   0.41900   0.00000  Uiso   1.00
C335   C     0.81728   0.51915   0.45993   0.00000  Uiso   1.00
C336   C     0.78560   0.54602   0.48122   0.00000  Uiso   1.00
C337   C     0.84067   0.50103   0.48005   0.00000  Uiso   1.00
C338   C     0.82922   0.50664   0.02181   0.00000  Uiso   1.00
C339   C     0.79721   0.53308   0.04205   0.00000  Uiso   1.00
C340   C     0.77591   0.55301   0.02246   0.00000  Uiso   1.00
H341   H     0.93648   0.42842   0.02243   0.00000  Uiso   1.00
H342   H     0.84505   0.48810   0.40187   0.00000  Uiso   1.00
H343   H     0.78883   0.54000   0.07343   0.00000  Uiso   1.00
H344   H     0.88883   0.47534   0.42813   0.00000  Uiso   1.00
H345   H     0.73897   0.58317   0.07842   0.00000  Uiso   1.00
H346   H     0.75238   0.61354   0.03758   0.00000  Uiso   1.00
H347   H     0.71053   0.56934   0.04183   0.00000  Uiso   1.00
H348   H     0.98442   0.47574   0.28576   0.00000  Uiso   1.00
H349   H     0.87482   0.33617   0.21598   0.00000  Uiso   1.00
H350   H     0.79059   0.66553   0.28417   0.00000  Uiso   1.00
H351   H     0.81313   0.50395   0.10226   0.00000  Uiso   1.00
H352   H     0.91798   0.43630   0.09428   0.00000  Uiso   1.00
H353   H     0.92525   0.44354   0.46235   0.00000  Uiso   1.00
H354   H     0.74032   0.58633   0.47558   0.00000  Uiso   1.00
H355   H     0.75614   0.57311   0.40519   0.00000  Uiso   1.00
O356   O     0.83333   0.50000   0.25000   0.00000  Uiso   1.00
O357   O     0.82360   0.45726   0.16625   0.00000  Uiso   1.00
O358   O     0.79354   0.53979   0.33749   0.00000  Uiso   1.00
O359   O     0.87755   0.50826   0.15877   0.00000  Uiso   1.00
O360   O     0.83865   0.49468   0.33749   0.00000  Uiso   1.00
O361   O     0.84515   0.41434   0.27820   0.00000  Uiso   1.00
O362   O     0.81247   0.59469   0.26767   0.00000  Uiso   1.00
O363   O     0.74119   0.46584   0.23607   0.00000  Uiso   1.00
O364   O     0.93452   0.52512   0.21805   0.00000  Uiso   1.00
O365   O     0.73656   0.52293   0.27820   0.00000  Uiso   1.00
O366   O     0.92106   0.48610   0.26767   0.00000  Uiso   1.00
O367   O     0.80467   0.40236   0.23607   0.00000  Uiso   1.00
O368   O     0.87104   0.58860   0.21805   0.00000  Uiso   1.00
Zn369  Zn    0.85910   0.47423   0.28277   0.00000  Uiso   1.00
Zn370  Zn    0.80125   0.45711   0.22257   0.00000  Uiso   1.00
Zn371  Zn    0.87833   0.52997   0.21188   0.00000  Uiso   1.00
Zn372  Zn    0.79465   0.53868   0.28277   0.00000  Uiso   1.00
Br373  Br    0.03445   0.87151   0.19478   0.00000  Uiso   1.00
C374   C     0.05245   0.82651   0.25896   0.00000  Uiso   1.00
C375   C     0.20940   0.81179   0.45960   0.00000  Uiso   1.00
C376   C     0.23151   0.79362   0.47929   0.00000  Uiso   1.00
C377   C     0.28114   0.84025   0.24102   0.00000  Uiso   1.00
C378   C     0.21947   0.79716   0.02004   0.00000  Uiso   1.00
C379   C     0.18453   0.81992   0.04197   0.00000  Uiso   1.00
C380   C     0.24284   0.77874   0.03910   0.00000  Uiso   1.00
C381   C     0.23229   0.78291   0.07984   0.00000  Uiso   1.00
C382   C     0.17333   0.82194   0.08330   0.00000  Uiso   1.00
C383   C     0.32738   0.84274   0.23670   0.00000  Uiso   1.00
C384   C     0.00723   0.82485   0.26190   0.00000  Uiso   1.00
C385   C     0.10642   0.89105   0.42004   0.00000  Uiso   1.00
C386   C     0.18094   0.98886   0.23805   0.00000  Uiso   1.00
C387   C     0.15151   0.67876   0.26203   0.00000  Uiso   1.00
C388   C     0.15594   0.72282   0.25885   0.00000  Uiso   1.00
C389   C     0.17687   0.94436   0.24132   0.00000  Uiso   1.00
C390   C     0.18842   0.81191   0.14412   0.00000  Uiso   1.00
C391   C     0.14536   0.85444   0.35612   0.00000  Uiso   1.00
C392   C     0.13618   0.86343   0.39901   0.00000  Uiso   1.00
C393   C     0.19749   0.80435   0.10177   0.00000  Uiso   1.00
C394   C     0.09752   0.89860   0.46064   0.00000  Uiso   1.00
C395   C     0.07593   0.91467   0.04644   0.00000  Uiso   1.00
C396   C     0.15742   0.84399   0.41900   0.00000  Uiso   1.00
C397   C     0.15061   0.85248   0.45993   0.00000  Uiso   1.00
C398   C     0.11893   0.87935   0.48122   0.00000  Uiso   1.00
C399   C     0.17401   0.83436   0.48005   0.00000  Uiso   1.00
C400   C     0.16255   0.83998   0.02181   0.00000  Uiso   1.00
C401   C     0.13055   0.86642   0.04205   0.00000  Uiso   1.00
C402   C     0.10925   0.88634   0.02246   0.00000  Uiso   1.00
H403   H     0.26982   0.76175   0.02243   0.00000  Uiso   1.00
H404   H     0.17838   0.82143   0.40187   0.00000  Uiso   1.00
H405   H     0.12216   0.87333   0.07343   0.00000  Uiso   1.00
H406   H     0.22216   0.80867   0.42813   0.00000  Uiso   1.00
H407   H     0.07230   0.91650   0.07842   0.00000  Uiso   1.00
H408   H     0.08571   0.94687   0.03758   0.00000  Uiso   1.00
H409   H     0.04386   0.90268   0.04183   0.00000  Uiso   1.00
H410   H     0.31775   0.80908   0.28576   0.00000  Uiso   1.00
H411   H     0.20815   0.66951   0.21598   0.00000  Uiso   1.00
H412   H     0.12392   0.99886   0.28417   0.00000  Uiso   1.00
H413   H     0.14646   0.83729   0.10226   0.00000  Uiso   1.00
H414   H     0.25131   0.76963   0.09428   0.00000  Uiso   1.00
H415   H     0.25859   0.77687   0.46235   0.00000  Uiso   1.00
H416   H     0.07365   0.91966   0.47558   0.00000  Uiso   1.00
H417   H     0.08947   0.90645   0.40519   0.00000  Uiso   1.00
O418   O     0.16667   0.83333   0.25000   0.00000  Uiso   1.00
O419   O     0.15693   0.79060   0.16625   0.00000  Uiso   1.00
O420   O     0.12687   0.87313   0.33749   0.00000  Uiso   1.00
O421   O     0.21088   0.84159   0.15877   0.00000  Uiso   1.00
O422   O     0.17198   0.82802   0.33749   0.00000  Uiso   1.00
O423   O     0.17849   0.74768   0.27820   0.00000  Uiso   1.00
O424   O     0.14581   0.92803   0.26767   0.00000  Uiso   1.00
O425   O     0.07452   0.79917   0.23607   0.00000  Uiso   1.00
O426   O     0.26785   0.85845   0.21805   0.00000  Uiso   1.00
O427   O     0.06990   0.85627   0.27820   0.00000  Uiso   1.00
O428   O     0.25440   0.81944   0.26767   0.00000  Uiso   1.00
O429   O     0.13800   0.73570   0.23607   0.00000  Uiso   1.00
O430   O     0.20437   0.92193   0.21805   0.00000  Uiso   1.00
Zn431  Zn    0.19244   0.80756   0.28277   0.00000  Uiso   1.00
Zn432  Zn    0.13459   0.79044   0.22257   0.00000  Uiso   1.00
Zn433  Zn    0.21166   0.86331   0.21188   0.00000  Uiso   1.00
Zn434  Zn    0.12798   0.87202   0.28277   0.00000  Uiso   1.00
Br435  Br    0.36778   0.87151   0.19478   0.00000  Uiso   1.00
C436   C     0.38579   0.82651   0.25896   0.00000  Uiso   1.00
C437   C     0.54273   0.81179   0.45960   0.00000  Uiso   1.00
C438   C     0.56485   0.79362   0.47929   0.00000  Uiso   1.00
C439   C     0.61447   0.84025   0.24102   0.00000  Uiso   1.00
C440   C     0.55281   0.79716   0.02004   0.00000  Uiso   1.00
C441   C     0.51786   0.81992   0.04197   0.00000  Uiso   1.00
C442   C     0.57618   0.77874   0.03910   0.00000  Uiso   1.00
C443   C     0.56562   0.78291   0.07984   0.00000  Uiso   1.00
C444   C     0.50667   0.82194   0.08330   0.00000  Uiso   1.00
C445   C     0.66071   0.84274   0.23670   0.00000  Uiso   1.00
C446   C     0.34056   0.82485   0.26190   0.00000  Uiso   1.00
C447   C     0.43975   0.89105   0.42004   0.00000  Uiso   1.00
C448   C     0.51428   0.98886   0.23805   0.00000  Uiso   1.00
C449   C     0.48484   0.67876   0.26203   0.00000  Uiso   1.00
C450   C     0.48927   0.72282   0.25885   0.00000  Uiso   1.00
C451   C     0.51021   0.94436   0.24132   0.00000  Uiso   1.00
C452   C     0.52175   0.81191   0.14412   0.00000  Uiso   1.00
C453   C     0.47869   0.85444   0.35612   0.00000  Uiso   1.00
C454   C     0.46951   0.86343   0.39901   0.00000  Uiso   1.00
C455   C     0.53082   0.80435   0.10177   0.00000  Uiso   1.00
C456   C     0.43085   0.89860   0.46064   0.00000  Uiso   1.00
C457   C     0.40926   0.91467   0.04644   0.00000  Uiso   1.00
C458   C     0.49075   0.84399   0.41900   0.00000  Uiso   1.00
C459   C     0.48395   0.85248   0.45993   0.00000  Uiso   1.00
C460   C     0.45227   0.87935   0.48122   0.00000  Uiso   1.00
C461   C     0.50734   0.83436   0.48005   0.00000  Uiso   1.00
C462   C     0.49589   0.83998   0.02181   0.00000  Uiso   1.00
C463   C     0.46388   0.86642   0.04205   0.00000  Uiso   1.00
C464   C     0.44258   0.88634   0.02246   0.00000  Uiso   1.00
H465   H     0.60315   0.76175   0.02243   0.00000  Uiso   1.00
H466   H     0.51172   0.82143   0.40187   0.00000  Uiso   1.00
H467   H     0.45549   0.87333   0.07343   0.00000  Uiso   1.00
H468   H     0.55549   0.80867   0.42813   0.00000  Uiso   1.00
H469   H     0.40564   0.91650   0.07842   0.00000  Uiso   1.00
H470   H     0.41904   0.94687   0.03758   0.00000  Uiso   1.00
H471   H     0.37719   0.90268   0.04183   0.00000  Uiso   1.00
H472   H     0.65109   0.80908   0.28576   0.00000  Uiso   1.00
H473   H     0.54149   0.66951   0.21598   0.00000  Uiso   1.00
H474   H     0.45725   0.99886   0.28417   0.00000  Uiso   1.00
H475   H     0.47980   0.83729   0.10226   0.00000  Uiso   1.00
H476   H     0.58465   0.76963   0.09428   0.00000  Uiso   1.00
H477   H     0.59192   0.77687   0.46235   0.00000  Uiso   1.00
H478   H     0.40698   0.91966   0.47558   0.00000  Uiso   1.00
H479   H     0.42281   0.90645   0.40519   0.00000  Uiso   1.00
O480   O     0.50000   0.83333   0.25000   0.00000  Uiso   1.00
O481   O     0.49027   0.79060   0.16625   0.00000  Uiso   1.00
O482   O     0.46020   0.87313   0.33749   0.00000  Uiso   1.00
O483   O     0.54421   0.84159   0.15877   0.00000  Uiso   1.00
O484   O     0.50532   0.82802   0.33749   0.00000  Uiso   1.00
O485   O     0.51182   0.74768   0.27820   0.00000  Uiso   1.00
O486   O     0.47914   0.92803   0.26767   0.00000  Uiso   1.00
O487   O     0.40785   0.79917   0.23607   0.00000  Uiso   1.00
O488   O     0.60119   0.85845   0.21805   0.00000  Uiso   1.00
O489   O     0.40323   0.85627   0.27820   0.00000  Uiso   1.00
O490   O     0.58773   0.81944   0.26767   0.00000  Uiso   1.00
O491   O     0.47133   0.73570   0.23607   0.00000  Uiso   1.00
O492   O     0.53771   0.92193   0.21805   0.00000  Uiso   1.00
Zn493  Zn    0.52577   0.80756   0.28277   0.00000  Uiso   1.00
Zn494  Zn    0.46792   0.79044   0.22257   0.00000  Uiso   1.00
Zn495  Zn    0.54500   0.86331   0.21188   0.00000  Uiso   1.00
Zn496  Zn    0.46131   0.87202   0.28277   0.00000  Uiso   1.00
Br497  Br    0.70112   0.87151   0.19478   0.00000  Uiso   1.00
C498   C     0.71912   0.82651   0.25896   0.00000  Uiso   1.00
C499   C     0.87607   0.81179   0.45960   0.00000  Uiso   1.00
C500   C     0.89818   0.79362   0.47929   0.00000  Uiso   1.00
C501   C     0.94780   0.84025   0.24102   0.00000  Uiso   1.00
C502   C     0.88614   0.79716   0.02004   0.00000  Uiso   1.00
C503   C     0.85119   0.81992   0.04197   0.00000  Uiso   1.00
C504   C     0.90951   0.77874   0.03910   0.00000  Uiso   1.00
C505   C     0.89895   0.78291   0.07984   0.00000  Uiso   1.00
C506   C     0.84000   0.82194   0.08330   0.00000  Uiso   1.00
C507   C     0.99405   0.84274   0.23670   0.00000  Uiso   1.00
C508   C     0.67389   0.82485   0.26190   0.00000  Uiso   1.00
C509   C     0.77308   0.89105   0.42004   0.00000  Uiso   1.00
C510   C     0.84761   0.98886   0.23805   0.00000  Uiso   1.00
C511   C     0.81818   0.67876   0.26203   0.00000  Uiso   1.00
C512   C     0.82261   0.72282   0.25885   0.00000  Uiso   1.00
C513   C     0.84354   0.94436   0.24132   0.00000  Uiso   1.00
C514   C     0.85509   0.81191   0.14412   0.00000  Uiso   1.00
C515   C     0.81202   0.85444   0.35612   0.00000  Uiso   1.00
C516   C     0.80285   0.86343   0.39901   0.00000  Uiso   1.00
C517   C     0.86416   0.80435   0.10177   0.00000  Uiso   1.00
C518   C     0.76418   0.89860   0.46064   0.00000  Uiso   1.00
C519   C     0.74260   0.91467   0.04644   0.00000  Uiso   1.00
C520   C     0.82409   0.84399   0.41900   0.00000  Uiso   1.00
C521   C     0.81728   0.85248   0.45993   0.00000  Uiso   1.00
C522   C     0.78560   0.87935   0.48122   0.00000  Uiso   1.00
C523   C     0.84067   0.83436   0.48005   0.00000  Uiso   1.00
C524   C     0.82922   0.83998   0.02181   0.00000  Uiso   1.00
C525   C     0.79721   0.86642   0.04205   0.00000  Uiso   1.00
C526   C     0.77591   0.88634   0.02246   0.00000  Uiso   1.00
H527   H     0.93648   0.76175   0.02243   0.00000  Uiso   1.00
H528   H     0.84505   0.82143   0.40187   0.00000  Uiso   1.00
H529   H     0.78883   0.87333   0.07343   0.00000  Uiso   1.00
H530   H     0.88883   0.80867   0.42813   0.00000  Uiso   1.00
H531   H     0.73897   0.91650   0.07842   0.00000  Uiso   1.00
H532   H     0.75238   0.94687   0.03758   0.00000  Uiso   1.00
H533   H     0.71053   0.90268   0.04183   0.00000  Uiso   1.00
H534   H     0.98442   0.80908   0.28576   0.00000  Uiso   1.00
H535   H     0.87482   0.66951   0.21598   0.00000  Uiso   1.00
H536   H     0.79059   0.99886   0.28417   0.00000  Uiso   1.00
H537   H     0.81313   0.83729   0.10226   0.00000  Uiso   1.00
H538   H     0.91798   0.76963   0.09428   0.00000  Uiso   1.00
H539   H     0.92525   0.77687   0.46235   0.00000  Uiso   1.00
H540   H     0.74032   0.91966   0.47558   0.00000  Uiso   1.00
H541   H     0.75614   0.90645   0.40519   0.00000  Uiso   1.00
O542   O     0.83333   0.83333   0.25000   0.00000  Uiso   1.00
O543   O     0.82360   0.79060   0.16625   0.00000  Uiso   1.00
O544   O     0.79354   0.87313   0.33749   0.00000  Uiso   1.00
O545   O     0.87755   0.84159   0.15877   0.00000  Uiso   1.00
O546   O     0.83865   0.82802   0.33749   0.00000  Uiso   1.00
O547   O     0.84515   0.74768   0.27820   0.00000  Uiso   1.00
O548   O     0.81247   0.92803   0.26767   0.00000  Uiso   1.00
O549   O     0.74119   0.79917   0.23607   0.00000  Uiso   1.00
O550   O     0.93452   0.85845   0.21805   0.00000  Uiso   1.00
O551   O     0.73656   0.85627   0.27820   0.00000  Uiso   1.00
O552   O     0.92106   0.81944   0.26767   0.00000  Uiso   1.00
O553   O     0.80467   0.73570   0.23607   0.00000  Uiso   1.00
O554   O     0.87104   0.92193   0.21805   0.00000  Uiso   1.00
Zn555  Zn    0.85910   0.80756   0.28277   0.00000  Uiso   1.00
Zn556  Zn    0.80125   0.79044   0.22257   0.00000  Uiso   1.00
Zn557  Zn    0.87833   0.86331   0.21188   0.00000  Uiso   1.00
Zn558  Zn    0.79465   0.87202   0.28277   0.00000  Uiso   1.00
Br559  Br    0.03445   0.20484   0.69478   0.00000  Uiso   1.00
C560   C     0.05245   0.15985   0.75896   0.00000  Uiso   1.00
C561   C     0.20940   0.14512   0.95960   0.00000  Uiso   1.00
C562   C     0.23151   0.12696   0.97929   0.00000  Uiso   1.00
C563   C     0.28114   0.17358   0.74102   0.00000  Uiso   1.00
C564   C     0.21947   0.13049   0.52004   0.00000  Uiso   1.00
C565   C     0.18453   0.15325   0.54197   0.00000  Uiso   1.00
C566   C     0.24284   0.11207   0.53910   0.00000  Uiso   1.00
C567   C     0.23229   0.11624   0.57984   0.00000  Uiso   1.00
C568   C     0.17333   0.15527   0.58330   0.00000  Uiso   1.00
C569   C     0.32738   0.17607   0.73670   0.00000  Uiso   1.00
C570   C     0.00723   0.15819   0.76190   0.00000  Uiso   1.00
C571   C     0.10642   0.22438   0.92004   0.00000  Uiso   1.00
C572   C     0.18094   0.32219   0.73805   0.00000  Uiso   1.00
C573   C     0.15151   0.01209   0.76203   0.00000  Uiso   1.00
C574   C     0.15594   0.05615   0.75885   0.00000  Uiso   1.00
C575   C     0.17687   0.27770   0.74132   0.00000  Uiso   1.00
C576   C     0.18842   0.14524   0.64412   0.00000  Uiso   1.00
C577   C     0.14536   0.18777   0.85612   0.00000  Uiso   1.00
C578   C     0.13618   0.19676   0.89901   0.00000  Uiso   1.00
C579   C     0.19749   0.13768   0.60177   0.00000  Uiso   1.00
C580   C     0.09752   0.23193   0.96064   0.00000  Uiso   1.00
C581   C     0.07593   0.24800   0.54644   0.00000  Uiso   1.00
C582   C     0.15742   0.17732   0.91900   0.00000  Uiso   1.00
C583   C     0.15061   0.18581   0.95993   0.00000  Uiso   1.00
C584   C     0.11893   0.21268   0.98122   0.00000  Uiso   1.00
C585   C     0.17401   0.16770   0.98005   0.00000  Uiso   1.00
C586   C     0.16255   0.17331   0.52181   0.00000  Uiso   1.00
C587   C     0.13055   0.19975   0.54205   0.00000  Uiso   1.00
C588   C     0.10925   0.21968   0.52246   0.00000  Uiso   1.00
H589   H     0.26982   0.09509   0.52243   0.00000  Uiso   1.00
H590   H     0.17838   0.15477   0.90187   0.00000  Uiso   1.00
H591   H     0.12216   0.20666   0.57343   0.00000  Uiso   1.00
H592   H     0.22216   0.14200   0.92813   0.00000  Uiso   1.00
H593   H     0.07230   0.24983   0.57842   0.00000  Uiso   1.00
H594   H     0.08571   0.28020   0.53758   0.00000  Uiso   1.00
H595   H     0.04386   0.23601   0.54183   0.00000  Uiso   1.00
H596   H     0.31775   0.14241   0.78576   0.00000  Uiso   1.00
H597   H     0.20815   0.00284   0.71598   0.00000  Uiso   1.00
H598   H     0.12392   0.33220   0.78417   0.00000  Uiso   1.00
H599   H     0.14646   0.17062   0.60226   0.00000  Uiso   1.00
H600   H     0.25131   0.10296   0.59428   0.00000  Uiso   1.00
H601   H     0.25859   0.11020   0.96235   0.00000  Uiso   1.00
H602   H     0.07365   0.25299   0.97558   0.00000  Uiso   1.00
H603   H     0.08947   0.23978   0.90519   0.00000  Uiso   1.00
O604   O     0.16667   0.16667   0.75000   0.00000  Uiso   1.00
O605   O     0.15693   0.12393   0.66625   0.00000  Uiso   1.00
O606   O     0.12687   0.20646   0.83749   0.00000  Uiso   1.00
O607   O     0.21088   0.17493   0.65877   0.00000  Uiso   1.00
O608   O     0.17198   0.16135   0.83749   0.00000  Uiso   1.00
O609   O     0.17849   0.08101   0.77820   0.00000  Uiso   1.00
O610   O     0.14581   0.26136   0.76767   0.00000  Uiso   1.00
O611   O     0.07452   0.13251   0.73607   0.00000  Uiso   1.00
O612   O     0.26785   0.19179   0.71805   0.00000  Uiso   1.00
O613   O     0.06990   0.18960   0.77820   0.00000  Uiso   1.00
O614   O     0.25440   0.15277   0.76767   0.00000  Uiso   1.00
O615   O     0.13800   0.06903   0.73607   0.00000  Uiso   1.00
O616   O     0.20437   0.25527   0.71805   0.00000  Uiso   1.00
Zn617  Zn    0.19244   0.14090   0.78277   0.00000  Uiso   1.00
Zn618  Zn    0.13459   0.12378   0.72257   0.00000  Uiso   1.00
Zn619  Zn    0.21166   0.19664   0.71188   0.00000  Uiso   1.00
Zn620  Zn    0.12798   0.20535   0.78277   0.00000  Uiso   1.00
Br621  Br    0.36778   0.20484   0.69478   0.00000  Uiso   1.00
C622   C     0.38579   0.15985   0.75896   0.00000  Uiso   1.00
C623   C     0.54273   0.14512   0.95960   0.00000  Uiso   1.00
C624   C     0.56485   0.12696   0.97929   0.00000  Uiso   1.00
C625   C     0.61447   0.17358   0.74102   0.00000  Uiso   1.00
C626   C     0.55281   0.13049   0.52004   0.00000  Uiso   1.00
C627   C     0.51786   0.15325   0.54197   0.00000  Uiso   1.00
C628   C     0.57618   0.11207   0.53910   0.00000  Uiso   1.00
C629   C     0.56562   0.11624   0.57984   0.00000  Uiso   1.00
C630   C     0.50667   0.15527   0.58330   0.00000  Uiso   1.00
C631   C     0.66071   0.17607   0.73670   0.00000  Uiso   1.00
C632   C     0.34056   0.15819   0.76190   0.00000  Uiso   1.00
C633   C     0.43975   0.22438   0.92004   0.00000  Uiso   1.00
C634   C     0.51428   0.32219   0.73805   0.00000  Uiso   1.00
C635   C     0.48484   0.01209   0.76203   0.00000  Uiso   1.00
C636   C     0.48927   0.05615   0.75885   0.00000  Uiso   1.00
C637   C     0.51021   0.27770   0.74132   0.00000  Uiso   1.00
C638   C     0.52175   0.14524   0.64412   0.00000  Uiso   1.00
C639   C     0.47869   0.18777   0.85612   0.00000  Uiso   1.00
C640   C     0.46951   0.19676   0.89901   0.00000  Uiso   1.00
C641   C     0.53082   0.13768   0.60177   0.00000  Uiso   1.00
C642   C     0.43085   0.23193   0.96064   0.00000  Uiso   1.00
C643   C     0.40926   0.24800   0.54644   0.00000  Uiso   1.00
C644   C     0.49075   0.17732   0.91900   0.00000  Uiso   1.00
C645   C     0.48395   0.18581   0.95993   0.00000  Uiso   1.00
C646   C     0.45227   0.21268   0.98122   0.00000  Uiso   1.00
C647   C     0.50734   0.16770   0.98005   0.00000  Uiso   1.00
C648   C     0.49589   0.17331   0.52181   0.00000  Uiso   1.00
C649   C     0.46388   0.19975   0.54205   0.00000  Uiso   1.00
C650   C     0.44258   0.21968   0.52246   0.00000  Uiso   1.00
H651   H     0.60315   0.09509   0.52243   0.00000  Uiso   1.00
H652   H     0.51172   0.15477   0.90187   0.00000  Uiso   1.00
H653   H     0.45549   0.20666   0.57343   0.00000  Uiso   1.00
H654   H     0.55549   0.14200   0.92813   0.00000  Uiso   1.00
H655   H     0.40564   0.24983   0.57842   0.00000  Uiso   1.00
H656   H     0.41904   0.28020   0.53758   0.00000  Uiso   1.00
H657   H     0.37719   0.23601   0.54183   0.00000  Uiso   1.00
H658   H     0.65109   0.14241   0.78576   0.00000  Uiso   1.00
H659   H     0.54149   0.00284   0.71598   0.00000  Uiso   1.00
H660   H     0.45725   0.33220   0.78417   0.00000  Uiso   1.00
H661   H     0.47980   0.17062   0.60226   0.00000  Uiso   1.00
H662   H     0.58465   0.10296   0.59428   0.00000  Uiso   1.00
H663   H     0.59192   0.11020   0.96235   0.00000  Uiso   1.00
H664   H     0.40698   0.25299   0.97558   0.00000  Uiso   1.00
H665   H     0.42281   0.23978   0.90519   0.00000  Uiso   1.00
O666   O     0.50000   0.16667   0.75000   0.00000  Uiso   1.00
O667   O     0.49027   0.12393   0.66625   0.00000  Uiso   1.00
O668   O     0.46020   0.20646   0.83749   0.00000  Uiso   1.00
O669   O     0.54421   0.17493   0.65877   0.00000  Uiso   1.00
O670   O     0.50532   0.16135   0.83749   0.00000  Uiso   1.00
O671   O     0.51182   0.08101   0.77820   0.00000  Uiso   1.00
O672   O     0.47914   0.26136   0.76767   0.00000  Uiso   1.00
O673   O     0.40785   0.13251   0.73607   0.00000  Uiso   1.00
O674   O     0.60119   0.19179   0.71805   0.00000  Uiso   1.00
O675   O     0.40323   0.18960   0.77820   0.00000  Uiso   1.00
O676   O     0.58773   0.15277   0.76767   0.00000  Uiso   1.00
O677   O     0.47133   0.06903   0.73607   0.00000  Uiso   1.00
O678   O     0.53771   0.25527   0.71805   0.00000  Uiso   1.00
Zn679  Zn    0.52577   0.14090   0.78277   0.00000  Uiso   1.00
Zn680  Zn    0.46792   0.12378   0.72257   0.00000  Uiso   1.00
Zn681  Zn    0.54500   0.19664   0.71188   0.00000  Uiso   1.00
Zn682  Zn    0.46131   0.20535   0.78277   0.00000  Uiso   1.00
Br683  Br    0.70112   0.20484   0.69478   0.00000  Uiso   1.00
C684   C     0.71912   0.15985   0.75896   0.00000  Uiso   1.00
C685   C     0.87607   0.14512   0.95960   0.00000  Uiso   1.00
C686   C     0.89818   0.12696   0.97929   0.00000  Uiso   1.00
C687   C     0.94780   0.17358   0.74102   0.00000  Uiso   1.00
C688   C     0.88614   0.13049   0.52004   0.00000  Uiso   1.00
C689   C     0.85119   0.15325   0.54197   0.00000  Uiso   1.00
C690   C     0.90951   0.11207   0.53910   0.00000  Uiso   1.00
C691   C     0.89895   0.11624   0.57984   0.00000  Uiso   1.00
C692   C     0.84000   0.15527   0.58330   0.00000  Uiso   1.00
C693   C     0.99405   0.17607   0.73670   0.00000  Uiso   1.00
C694   C     0.67389   0.15819   0.76190   0.00000  Uiso   1.00
C695   C     0.77308   0.22438   0.92004   0.00000  Uiso   1.00
C696   C     0.84761   0.32219   0.73805   0.00000  Uiso   1.00
C697   C     0.81818   0.01209   0.76203   0.00000  Uiso   1.00
C698   C     0.82261   0.05615   0.75885   0.00000  Uiso   1.00
C699   C     0.84354   0.27770   0.74132   0.00000  Uiso   1.00
C700   C     0.85509   0.14524   0.64412   0.00000  Uiso   1.00
C701   C     0.81202   0.18777   0.85612   0.00000  Uiso   1.00
C702   C     0.80285   0.19676   0.89901   0.00000  Uiso   1.00
C703   C     0.86416   0.13768   0.60177   0.00000  Uiso   1.00
C704   C     0.76418   0.23193   0.96064   0.00000  Uiso   1.00
C705   C     0.74260   0.24800   0.54644   0.00000  Uiso   1.00
C706   C     0.82409   0.17732   0.91900   0.00000  Uiso   1.00
C707   C     0.81728   0.18581   0.95993   0.00000  Uiso   1.00
C708   C     0.78560   0.21268   0.98122   0.00000  Uiso   1.00
C709   C     0.84067   0.16770   0.98005   0.00000  Uiso   1.00
C710   C     0.82922   0.17331   0.52181   0.00000  Uiso   1.00
C711   C     0.79721   0.19975   0.54205   0.00000  Uiso   1.00
C712   C     0.77591   0.21968   0.52246   0.00000  Uiso   1.00
H713   H     0.93648   0.09509   0.52243   0.00000  Uiso   1.00
H714   H     0.84505   0.15477   0.90187   0.00000  Uiso   1.00
H715   H     0.78883   0.20666   0.57343   0.00000  Uiso   1.00
H716   H     0.88883   0.14200   0.92813   0.00000  Uiso   1.00
H717   H     0.73897   0.24983   0.57842   0.00000  Uiso   1.00
H718   H     0.75238   0.28020   0.53758   0.00000  Uiso   1.00
H719   H     0.71053   0.23601   0.54183   0.00000  Uiso   1.00
H720   H     0.98442   0.14241   0.78576   0.00000  Uiso   1.00
H721   H     0.87482   0.00284   0.71598   0.00000  Uiso   1.00
H722   H     0.79059   0.33220   0.78417   0.00000  Uiso   1.00
H723   H     0.81313   0.17062   0.60226   0.00000  Uiso   1.00
H724   H     0.91798   0.10296   0.59428   0.00000  Uiso   1.00
H725   H     0.92525   0.11020   0.96235   0.00000  Uiso   1.00
H726   H     0.74032   0.25299   0.97558   0.00000  Uiso   1.00
H727   H     0.75614   0.23978   0.90519   0.00000  Uiso   1.00
O728   O     0.83333   0.16667   0.75000   0.00000  Uiso   1.00
O729   O     0.82360   0.12393   0.66625   0.00000  Uiso   1.00
O730   O     0.79354   0.20646   0.83749   0.00000  Uiso   1.00
O731   O     0.87755   0.17493   0.65877   0.00000  Uiso   1.00
O732   O     0.83865   0.16135   0.83749   0.00000  Uiso   1.00
O733   O     0.84515   0.08101   0.77820   0.00000  Uiso   1.00
O734   O     0.81247   0.26136   0.76767   0.00000  Uiso   1.00
O735   O     0.74119   0.13251   0.73607   0.00000  Uiso   1.00
O736   O     0.93452   0.19179   0.71805   0.00000  Uiso   1.00
O737   O     0.73656   0.18960   0.77820   0.00000  Uiso   1.00
O738   O     0.92106   0.15277   0.76767   0.00000  Uiso   1.00
O739   O     0.80467   0.06903   0.73607   0.00000  Uiso   1.00
O740   O     0.87104   0.25527   0.71805   0.00000  Uiso   1.00
Zn741  Zn    0.85910   0.14090   0.78277   0.00000  Uiso   1.00
Zn742  Zn    0.80125   0.12378   0.72257   0.00000  Uiso   1.00
Zn743  Zn    0.87833   0.19664   0.71188   0.00000  Uiso   1.00
Zn744  Zn    0.79465   0.20535   0.78277   0.00000  Uiso   1.00
Br745  Br    0.03445   0.53818   0.69478   0.00000  Uiso   1.00
C746   C     0.05245   0.49318   0.75896   0.00000  Uiso   1.00
C747   C     0.20940   0.47845   0.95960   0.00000  Uiso   1.00
C748   C     0.23151   0.46029   0.97929   0.00000  Uiso   1.00
C749   C     0.28114   0.50691   0.74102   0.00000  Uiso   1.00
C750   C     0.21947   0.46383   0.52004   0.00000  Uiso   1.00
C751   C     0.18453   0.48658   0.54197   0.00000  Uiso   1.00
C752   C     0.24284   0.44540   0.53910   0.00000  Uiso   1.00
C753   C     0.23229   0.44958   0.57984   0.00000  Uiso   1.00
C754   C     0.17333   0.48860   0.58330   0.00000  Uiso   1.00
C755   C     0.32738   0.50940   0.73670   0.00000  Uiso   1.00
C756   C     0.00723   0.49152   0.76190   0.00000  Uiso   1.00
C757   C     0.10642   0.55771   0.92004   0.00000  Uiso   1.00
C758   C     0.18094   0.65553   0.73805   0.00000  Uiso   1.00
C759   C     0.15151   0.34542   0.76203   0.00000  Uiso   1.00
C760   C     0.15594   0.38948   0.75885   0.00000  Uiso   1.00
C761   C     0.17687   0.61103   0.74132   0.00000  Uiso   1.00
C762   C     0.18842   0.47857   0.64412   0.00000  Uiso   1.00
C763   C     0.14536   0.52110   0.85612   0.00000  Uiso   1.00
C764   C     0.13618   0.53010   0.89901   0.00000  Uiso   1.00
C765   C     0.19749   0.47101   0.60177   0.00000  Uiso   1.00
C766   C     0.09752   0.56527   0.96064   0.00000  Uiso   1.00
C767   C     0.07593   0.58134   0.54644   0.00000  Uiso   1.00
C768   C     0.15742   0.51066   0.91900   0.00000  Uiso   1.00
C769   C     0.15061   0.51915   0.95993   0.00000  Uiso   1.00
C770   C     0.11893   0.54602   0.98122   0.00000  Uiso   1.00
C771   C     0.17401   0.50103   0.98005   0.00000  Uiso   1.00
C772   C     0.16255   0.50664   0.52181   0.00000  Uiso   1.00
C773   C     0.13055   0.53308   0.54205   0.00000  Uiso   1.00
C774   C     0.10925   0.55301   0.52246   0.00000  Uiso   1.00
H775   H     0.26982   0.42842   0.52243   0.00000  Uiso   1.00
H776   H     0.17838   0.48810   0.90187   0.00000  Uiso   1.00
H777   H     0.12216   0.54000   0.57343   0.00000  Uiso   1.00
H778   H     0.22216   0.47534   0.92813   0.00000  Uiso   1.00
H779   H     0.07230   0.58317   0.57842   0.00000  Uiso   1.00
H780   H     0.08571   0.61354   0.53758   0.00000  Uiso   1.00
H781   H     0.04386   0.56934   0.54183   0.00000  Uiso   1.00
H782   H     0.31775   0.47574   0.78576   0.00000  Uiso   1.00
H783   H     0.20815   0.33617   0.71598   0.00000  Uiso   1.00
H784   H     0.12392   0.66553   0.78417   0.00000  Uiso   1.00
H785   H     0.14646   0.50395   0.60226   0.00000  Uiso   1.00
H786   H     0.25131   0.43630   0.59428   0.00000  Uiso   1.00
H787   H     0.25859   0.44354   0.96235   0.00000  Uiso   1.00
H788   H     0.07365   0.58633   0.97558   0.00000  Uiso   1.00
H789   H     0.08947   0.57311   0.90519   0.00000  Uiso   1.00
O790   O     0.16667   0.50000   0.75000   0.00000  Uiso   1.00
O791   O     0.15693   0.45726   0.66625   0.00000  Uiso   1.00
O792   O     0.12687   0.53979   0.83749   0.00000  Uiso   1.00
O793   O     0.21088   0.50826   0.65877   0.00000  Uiso   1.00
O794   O     0.17198   0.49468   0.83749   0.00000  Uiso   1.00
O795   O     0.17849   0.41434   0.77820   0.00000  Uiso   1.00
O796   O     0.14581   0.59469   0.76767   0.00000  Uiso   1.00
O797   O     0.07452   0.46584   0.73607   0.00000  Uiso   1.00
O798   O     0.26785   0.52512   0.71805   0.00000  Uiso   1.00
O799   O     0.06990   0.52293   0.77820   0.00000  Uiso   1.00
O800   O     0.25440   0.48610   0.76767   0.00000  Uiso   1.00
O801   O     0.13800   0.40236   0.73607   0.00000  Uiso   1.00
O802   O     0.20437   0.58860   0.71805   0.00000  Uiso   1.00
Zn803  Zn    0.19244   0.47423   0.78277   0.00000  Uiso   1.00
Zn804  Zn    0.13459   0.45711   0.72257   0.00000  Uiso   1.00
Zn805  Zn    0.21166   0.52997   0.71188   0.00000  Uiso   1.00
Zn806  Zn    0.12798   0.53868   0.78277   0.00000  Uiso   1.00
Br807  Br    0.36778   0.53818   0.69478   0.00000  Uiso   1.00
C808   C     0.38579   0.49318   0.75896   0.00000  Uiso   1.00
C809   C     0.54273   0.47845   0.95960   0.00000  Uiso   1.00
C810   C     0.56485   0.46029   0.97929   0.00000  Uiso   1.00
C811   C     0.61447   0.50691   0.74102   0.00000  Uiso   1.00
C812   C     0.55281   0.46383   0.52004   0.00000  Uiso   1.00
C813   C     0.51786   0.48658   0.54197   0.00000  Uiso   1.00
C814   C     0.57618   0.44540   0.53910   0.00000  Uiso   1.00
C815   C     0.56562   0.44958   0.57984   0.00000  Uiso   1.00
C816   C     0.50667   0.48860   0.58330   0.00000  Uiso   1.00
C817   C     0.66071   0.50940   0.73670   0.00000  Uiso   1.00
C818   C     0.34056   0.49152   0.76190   0.00000  Uiso   1.00
C819   C     0.43975   0.55771   0.92004   0.00000  Uiso   1.00
C820   C     0.51428   0.65553   0.73805   0.00000  Uiso   1.00
C821   C     0.48484   0.34542   0.76203   0.00000  Uiso   1.00
C822   C     0.48927   0.38948   0.75885   0.00000  Uiso   1.00
C823   C     0.51021   0.61103   0.74132   0.00000  Uiso   1.00
C824   C     0.52175   0.47857   0.64412   0.00000  Uiso   1.00
C825   C     0.47869   0.52110   0.85612   0.00000  Uiso   1.00
C826   C     0.46951   0.53010   0.89901   0.00000  Uiso   1.00
C827   C     0.53082   0.47101   0.60177   0.00000  Uiso   1.00
C828   C     0.43085   0.56527   0.96064   0.00000  Uiso   1.00
C829   C     0.40926   0.58134   0.54644   0.00000  Uiso   1.00
C830   C     0.49075   0.51066   0.91900   0.00000  Uiso   1.00
C831   C     0.48395   0.51915   0.95993   0.00000  Uiso   1.00
C832   C     0.45227   0.54602   0.98122   0.00000  Uiso   1.00
C833   C     0.50734   0.50103   0.98005   0.00000  Uiso   1.00
C834   C     0.49589   0.50664   0.52181   0.00000  Uiso   1.00
C835   C     0.46388   0.53308   0.54205   0.00000  Uiso   1.00
C836   C     0.44258   0.55301   0.52246   0.00000  Uiso   1.00
H837   H     0.60315   0.42842   0.52243   0.00000  Uiso   1.00
H838   H     0.51172   0.48810   0.90187   0.00000  Uiso   1.00
H839   H     0.45549   0.54000   0.57343   0.00000  Uiso   1.00
H840   H     0.55549   0.47534   0.92813   0.00000  Uiso   1.00
H841   H     0.40564   0.58317   0.57842   0.00000  Uiso   1.00
H842   H     0.41904   0.61354   0.53758   0.00000  Uiso   1.00
H843   H     0.37719   0.56934   0.54183   0.00000  Uiso   1.00
H844   H     0.65109   0.47574   0.78576   0.00000  Uiso   1.00
H845   H     0.54149   0.33617   0.71598   0.00000  Uiso   1.00
H846   H     0.45725   0.66553   0.78417   0.00000  Uiso   1.00
H847   H     0.47980   0.50395   0.60226   0.00000  Uiso   1.00
H848   H     0.58465   0.43630   0.59428   0.00000  Uiso   1.00
H849   H     0.59192   0.44354   0.96235   0.00000  Uiso   1.00
H850   H     0.40698   0.58633   0.97558   0.00000  Uiso   1.00
H851   H     0.42281   0.57311   0.90519   0.00000  Uiso   1.00
O852   O     0.50000   0.50000   0.75000   0.00000  Uiso   1.00
O853   O     0.49027   0.45726   0.66625   0.00000  Uiso   1.00
O854   O     0.46020   0.53979   0.83749   0.00000  Uiso   1.00
O855   O     0.54421   0.50826   0.65877   0.00000  Uiso   1.00
O856   O     0.50532   0.49468   0.83749   0.00000  Uiso   1.00
O857   O     0.51182   0.41434   0.77820   0.00000  Uiso   1.00
O858   O     0.47914   0.59469   0.76767   0.00000  Uiso   1.00
O859   O     0.40785   0.46584   0.73607   0.00000  Uiso   1.00
O860   O     0.60119   0.52512   0.71805   0.00000  Uiso   1.00
O861   O     0.40323   0.52293   0.77820   0.00000  Uiso   1.00
O862   O     0.58773   0.48610   0.76767   0.00000  Uiso   1.00
O863   O     0.47133   0.40236   0.73607   0.00000  Uiso   1.00
O864   O     0.53771   0.58860   0.71805   0.00000  Uiso   1.00
Zn865  Zn    0.52577   0.47423   0.78277   0.00000  Uiso   1.00
Zn866  Zn    0.46792   0.45711   0.72257   0.00000  Uiso   1.00
Zn867  Zn    0.54500   0.52997   0.71188   0.00000  Uiso   1.00
Zn868  Zn    0.46131   0.53868   0.78277   0.00000  Uiso   1.00
Br869  Br    0.70112   0.53818   0.69478   0.00000  Uiso   1.00
C870   C     0.71912   0.49318   0.75896   0.00000  Uiso   1.00
C871   C     0.87607   0.47845   0.95960   0.00000  Uiso   1.00
C872   C     0.89818   0.46029   0.97929   0.00000  Uiso   1.00
C873   C     0.94780   0.50691   0.74102   0.00000  Uiso   1.00
C874   C     0.88614   0.46383   0.52004   0.00000  Uiso   1.00
C875   C     0.85119   0.48658   0.54197   0.00000  Uiso   1.00
C876   C     0.90951   0.44540   0.53910   0.00000  Uiso   1.00
C877   C     0.89895   0.44958   0.57984   0.00000  Uiso   1.00
C878   C     0.84000   0.48860   0.58330   0.00000  Uiso   1.00
C879   C     0.99405   0.50940   0.73670   0.00000  Uiso   1.00
C880   C     0.67389   0.49152   0.76190   0.00000  Uiso   1.00
C881   C     0.77308   0.55771   0.92004   0.00000  Uiso   1.00
C882   C     0.84761   0.65553   0.73805   0.00000  Uiso   1.00
C883   C     0.81818   0.34542   0.76203   0.00000  Uiso   1.00
C884   C     0.82261   0.38948   0.75885   0.00000  Uiso   1.00
C885   C     0.84354   0.61103   0.74132   0.00000  Uiso   1.00
C886   C     0.85509   0.47857   0.64412   0.00000  Uiso   1.00
C887   C     0.81202   0.52110   0.85612   0.00000  Uiso   1.00
C888   C     0.80285   0.53010   0.89901   0.00000  Uiso   1.00
C889   C     0.86416   0.47101   0.60177   0.00000  Uiso   1.00
C890   C     0.76418   0.56527   0.96064   0.00000  Uiso   1.00
C891   C     0.74260   0.58134   0.54644   0.00000  Uiso   1.00
C892   C     0.82409   0.51066   0.91900   0.00000  Uiso   1.00
C893   C     0.81728   0.51915   0.95993   0.00000  Uiso   1.00
C894   C     0.78560   0.54602   0.98122   0.00000  Uiso   1.00
C895   C     0.84067   0.50103   0.98005   0.00000  Uiso   1.00
C896   C     0.82922   0.50664   0.52181   0.00000  Uiso   1.00
C897   C     0.79721   0.53308   0.54205   0.00000  Uiso   1.00
C898   C     0.77591   0.55301   0.52246   0.00000  Uiso   1.00
H899   H     0.93648   0.42842   0.52243   0.00000  Uiso   1.00
H900   H     0.84505   0.48810   0.90187   0.00000  Uiso   1.00
H901   H     0.78883   0.54000   0.57343   0.00000  Uiso   1.00
H902   H     0.88883   0.47534   0.92813   0.00000  Uiso   1.00
H903   H     0.73897   0.58317   0.57842   0.00000  Uiso   1.00
H904   H     0.75238   0.61354   0.53758   0.00000  Uiso   1.00
H905   H     0.71053   0.56934   0.54183   0.00000  Uiso   1.00
H906   H     0.98442   0.47574   0.78576   0.00000  Uiso   1.00
H907   H     0.87482   0.33617   0.71598   0.00000  Uiso   1.00
H908   H     0.79059   0.66553   0.78417   0.00000  Uiso   1.00
H909   H     0.81313   0.50395   0.60226   0.00000  Uiso   1.00
H910   H     0.91798   0.43630   0.59428   0.00000  Uiso   1.00
H911   H     0.92525   0.44354   0.96235   0.00000  Uiso   1.00
H912   H     0.74032   0.58633   0.97558   0.00000  Uiso   1.00
H913   H     0.75614   0.57311   0.90519   0.00000  Uiso   1.00
O914   O     0.83333   0.50000   0.75000   0.00000  Uiso   1.00
O915   O     0.82360   0.45726   0.66625   0.00000  Uiso   1.00
O916   O     0.79354   0.53979   0.83749   0.00000  Uiso   1.00
O917   O     0.87755   0.50826   0.65877   0.00000  Uiso   1.00
O918   O     0.83865   0.49468   0.83749   0.00000  Uiso   1.00
O919   O     0.84515   0.41434   0.77820   0.00000  Uiso   1.00
O920   O     0.81247   0.59469   0.76767   0.00000  Uiso   1.00
O921   O     0.74119   0.46584   0.73607   0.00000  Uiso   1.00
O922   O     0.93452   0.52512   0.71805   0.00000  Uiso   1.00
O923   O     0.73656   0.52293   0.77820   0.00000  Uiso   1.00
O924   O     0.92106   0.48610   0.76767   0.00000  Uiso   1.00
O925   O     0.80467   0.40236   0.73607   0.00000  Uiso   1.00
O926   O     0.87104   0.58860   0.71805   0.00000  Uiso   1.00
Zn927  Zn    0.85910   0.47423   0.78277   0.00000  Uiso   1.00
Zn928  Zn    0.80125   0.45711   0.72257   0.00000  Uiso   1.00
Zn929  Zn    0.87833   0.52997   0.71188   0.00000  Uiso   1.00
Zn930  Zn    0.79465   0.53868   0.78277   0.00000  Uiso   1.00
Br931  Br    0.03445   0.87151   0.69478   0.00000  Uiso   1.00
C932   C     0.05245   0.82651   0.75896   0.00000  Uiso   1.00
C933   C     0.20940   0.81179   0.95960   0.00000  Uiso   1.00
C934   C     0.23151   0.79362   0.97929   0.00000  Uiso   1.00
C935   C     0.28114   0.84025   0.74102   0.00000  Uiso   1.00
C936   C     0.21947   0.79716   0.52004   0.00000  Uiso   1.00
C937   C     0.18453   0.81992   0.54197   0.00000  Uiso   1.00
C938   C     0.24284   0.77874   0.53910   0.00000  Uiso   1.00
C939   C     0.23229   0.78291   0.57984   0.00000  Uiso   1.00
C940   C     0.17333   0.82194   0.58330   0.00000  Uiso   1.00
C941   C     0.32738   0.84274   0.73670   0.00000  Uiso   1.00
C942   C     0.00723   0.82485   0.76190   0.00000  Uiso   1.00
C943   C     0.10642   0.89105   0.92004   0.00000  Uiso   1.00
C944   C     0.18094   0.98886   0.73805   0.00000  Uiso   1.00
C945   C     0.15151   0.67876   0.76203   0.00000  Uiso   1.00
C946   C     0.15594   0.72282   0.75885   0.00000  Uiso   1.00
C947   C     0.17687   0.94436   0.74132   0.00000  Uiso   1.00
C948   C     0.18842   0.81191   0.64412   0.00000  Uiso   1.00
C949   C     0.14536   0.85444   0.85612   0.00000  Uiso   1.00
C950   C     0.13618   0.86343   0.89901   0.00000  Uiso   1.00
C951   C     0.19749   0.80435   0.60177   0.00000  Uiso   1.00
C952   C     0.09752   0.89860   0.96064   0.00000  Uiso   1.00
C953   C     0.07593   0.91467   0.54644   0.00000  Uiso   1.00
C954   C     0.15742   0.84399   0.91900   0.00000  Uiso   1.00
C955   C     0.15061   0.85248   0.95993   0.00000  Uiso   1.00
C956   C     0.11893   0.87935   0.98122   0.00000  Uiso   1.00
C957   C     0.17401   0.83436   0.98005   0.00000  Uiso   1.00
C958   C     0.16255   0.83998   0.52181   0.00000  Uiso   1.00
C959   C     0.13055   0.86642   0.54205   0.00000  Uiso   1.00
C960   C     0.10925   0.88634   0.52246   0.00000  Uiso   1.00
H961   H     0.26982   0.76175   0.52243   0.00000  Uiso   1.00
H962   H     0.17838   0.82143   0.90187   0.00000  Uiso   1.00
H963   H     0.12216   0.87333   0.57343   0.00000  Uiso   1.00
H964   H     0.22216   0.80867   0.92813   0.00000  Uiso   1.00
H965   H     0.07230   0.91650   0.57842   0.00000  Uiso   1.00
H966   H     0.08571   0.94687   0.53758   0.00000  Uiso   1.00
H967   H     0.04386   0.90268   0.54183   0.00000  Uiso   1.00
H968   H     0.31775   0.80908   0.78576   0.00000  Uiso   1.00
H969   H     0.20815   0.66951   0.71598   0.00000  Uiso   1.00
H970   H     0.12392   0.99886   0.78417   0.00000  Uiso   1.00
H971   H     0.14646   0.83729   0.60226   0.00000  Uiso   1.00
H972   H     0.25131   0.76963   0.59428   0.00000  Uiso   1.00
H973   H     0.25859   0.77687   0.96235   0.00000  Uiso   1.00
H974   H     0.07365   0.91966   0.97558   0.00000  Uiso   1.00
H975   H     0.08947   0.90645   0.90519   0.00000  Uiso   1.00
O976   O     0.16667   0.83333   0.75000   0.00000  Uiso   1.00
O977   O     0.15693   0.79060   0.66625   0.00000  Uiso   1.00
O978   O     0.12687   0.87313   0.83749   0.00000  Uiso   1.00
O979   O     0.21088   0.84159   0.65877   0.00000  Uiso   1.00
O980   O     0.17198   0.82802   0.83749   0.00000  Uiso   1.00
O981   O     0.17849   0.74768   0.77820   0.00000  Uiso   1.00
O982   O     0.14581   0.92803   0.76767   0.00000  Uiso   1.00
O983   O     0.07452   0.79917   0.73607   0.00000  Uiso   1.00
O984   O     0.26785   0.85845   0.71805   0.00000  Uiso   1.00
O985   O     0.06990   0.85627   0.77820   0.00000  Uiso   1.00
O986   O     0.25440   0.81944   0.76767   0.00000  Uiso   1.00
O987   O     0.13800   0.73570   0.73607   0.00000  Uiso   1.00
O988   O     0.20437   0.92193   0.71805   0.00000  Uiso   1.00
Zn989  Zn    0.19244   0.80756   0.78277   0.00000  Uiso   1.00
Zn990  Zn    0.13459   0.79044   0.72257   0.00000  Uiso   1.00
Zn991  Zn    0.21166   0.86331   0.71188   0.00000  Uiso   1.00
Zn992  Zn    0.12798   0.87202   0.78277   0.00000  Uiso   1.00
Br993  Br    0.36778   0.87151   0.69478   0.00000  Uiso   1.00
C994   C     0.38579   0.82651   0.75896   0.00000  Uiso   1.00
C995   C     0.54273   0.81179   0.95960   0.00000  Uiso   1.00
C996   C     0.56485   0.79362   0.97929   0.00000  Uiso   1.00
C997   C     0.61447   0.84025   0.74102   0.00000  Uiso   1.00
C998   C     0.55281   0.79716   0.52004   0.00000  Uiso   1.00
C999   C     0.51786   0.81992   0.54197   0.00000  Uiso   1.00
C1000  C     0.57618   0.77874   0.53910   0.00000  Uiso   1.00
C1001  C     0.56562   0.78291   0.57984   0.00000  Uiso   1.00
C1002  C     0.50667   0.82194   0.58330   0.00000  Uiso   1.00
C1003  C     0.66071   0.84274   0.73670   0.00000  Uiso   1.00
C1004  C     0.34056   0.82485   0.76190   0.00000  Uiso   1.00
C1005  C     0.43975   0.89105   0.92004   0.00000  Uiso   1.00
C1006  C     0.51428   0.98886   0.73805   0.00000  Uiso   1.00
C1007  C     0.48484   0.67876   0.76203   0.00000  Uiso   1.00
C1008  C     0.48927   0.72282   0.75885   0.00000  Uiso   1.00
C1009  C     0.51021   0.94436   0.74132   0.00000  Uiso   1.00
C1010  C     0.52175   0.81191   0.64412   0.00000  Uiso   1.00
C1011  C     0.47869   0.85444   0.85612   0.00000  Uiso   1.00
C1012  C     0.46951   0.86343   0.89901   0.00000  Uiso   1.00
C1013  C     0.53082   0.80435   0.60177   0.00000  Uiso   1.00
C1014  C     0.43085   0.89860   0.96064   0.00000  Uiso   1.00
C1015  C     0.40926   0.91467   0.54644   0.00000  Uiso   1.00
C1016  C     0.49075   0.84399   0.91900   0.00000  Uiso   1.00
C1017  C     0.48395   0.85248   0.95993   0.00000  Uiso   1.00
C1018  C     0.45227   0.87935   0.98122   0.00000  Uiso   1.00
C1019  C     0.50734   0.83436   0.98005   0.00000  Uiso   1.00
C1020  C     0.49589   0.83998   0.52181   0.00000  Uiso   1.00
C1021  C     0.46388   0.86642   0.54205   0.00000  Uiso   1.00
C1022  C     0.44258   0.88634   0.52246   0.00000  Uiso   1.00
H1023  H     0.60315   0.76175   0.52243   0.00000  Uiso   1.00
H1024  H     0.51172   0.82143   0.90187   0.00000  Uiso   1.00
H1025  H     0.45549   0.87333   0.57343   0.00000  Uiso   1.00
H1026  H     0.55549   0.80867   0.92813   0.00000  Uiso   1.00
H1027  H     0.40564   0.91650   0.57842   0.00000  Uiso   1.00
H1028  H     0.41904   0.94687   0.53758   0.00000  Uiso   1.00
H1029  H     0.37719   0.90268   0.54183   0.00000  Uiso   1.00
H1030  H     0.65109   0.80908   0.78576   0.00000  Uiso   1.00
H1031  H     0.54149   0.66951   0.71598   0.00000  Uiso   1.00
H1032  H     0.45725   0.99886   0.78417   0.00000  Uiso   1.00
H1033  H     0.47980   0.83729   0.60226   0.00000  Uiso   1.00
H1034  H     0.58465   0.76963   0.59428   0.00000  Uiso   1.00
H1035  H     0.59192   0.77687   0.96235   0.00000  Uiso   1.00
H1036  H     0.40698   0.91966   0.97558   0.00000  Uiso   1.00
H1037  H     0.42281   0.90645   0.90519   0.00000  Uiso   1.00
O1038  O     0.50000   0.83333   0.75000   0.00000  Uiso   1.00
O1039  O     0.49027   0.79060   0.66625   0.00000  Uiso   1.00
O1040  O     0.46020   0.87313   0.83749   0.00000  Uiso   1.00
O1041  O     0.54421   0.84159   0.65877   0.00000  Uiso   1.00
O1042  O     0.50532   0.82802   0.83749   0.00000  Uiso   1.00
O1043  O     0.51182   0.74768   0.77820   0.00000  Uiso   1.00
O1044  O     0.47914   0.92803   0.76767   0.00000  Uiso   1.00
O1045  O     0.40785   0.79917   0.73607   0.00000  Uiso   1.00
O1046  O     0.60119   0.85845   0.71805   0.00000  Uiso   1.00
O1047  O     0.40323   0.85627   0.77820   0.00000  Uiso   1.00
O1048  O     0.58773   0.81944   0.76767   0.00000  Uiso   1.00
O1049  O     0.47133   0.73570   0.73607   0.00000  Uiso   1.00
O1050  O     0.53771   0.92193   0.71805   0.00000  Uiso   1.00
Zn1051 Zn    0.52577   0.80756   0.78277   0.00000  Uiso   1.00
Zn1052 Zn    0.46792   0.79044   0.72257   0.00000  Uiso   1.00
Zn1053 Zn    0.54500   0.86331   0.71188   0.00000  Uiso   1.00
Zn1054 Zn    0.46131   0.87202   0.78277   0.00000  Uiso   1.00
Br1055 Br    0.70112   0.87151   0.69478   0.00000  Uiso   1.00
C1056  C     0.71912   0.82651   0.75896   0.00000  Uiso   1.00
C1057  C     0.87607   0.81179   0.95960   0.00000  Uiso   1.00
C1058  C     0.89818   0.79362   0.97929   0.00000  Uiso   1.00
C1059  C     0.94780   0.84025   0.74102   0.00000  Uiso   1.00
C1060  C     0.88614   0.79716   0.52004   0.00000  Uiso   1.00
C1061  C     0.85119   0.81992   0.54197   0.00000  Uiso   1.00
C1062  C     0.90951   0.77874   0.53910   0.00000  Uiso   1.00
C1063  C     0.89895   0.78291   0.57984   0.00000  Uiso   1.00
C1064  C     0.84000   0.82194   0.58330   0.00000  Uiso   1.00
C1065  C     0.99405   0.84274   0.73670   0.00000  Uiso   1.00
C1066  C     0.67389   0.82485   0.76190   0.00000  Uiso   1.00
C1067  C     0.77308   0.89105   0.92004   0.00000  Uiso   1.00
C1068  C     0.84761   0.98886   0.73805   0.00000  Uiso   1.00
C1069  C     0.81818   0.67876   0.76203   0.00000  Uiso   1.00
C1070  C     0.82261   0.72282   0.75885   0.00000  Uiso   1.00
C1071  C     0.84354   0.94436   0.74132   0.00000  Uiso   1.00
C1072  C     0.85509   0.81191   0.64412   0.00000  Uiso   1.00
C1073  C     0.81202   0.85444   0.85612   0.00000  Uiso   1.00
C1074  C     0.80285   0.86343   0.89901   0.00000  Uiso   1.00
C1075  C     0.86416   0.80435   0.60177   0.00000  Uiso   1.00
C1076  C     0.76418   0.89860   0.96064   0.00000  Uiso   1.00
C1077  C     0.74260   0.91467   0.54644   0.00000  Uiso   1.00
C1078  C     0.82409   0.84399   0.91900   0.00000  Uiso   1.00
C1079  C     0.81728   0.85248   0.95993   0.00000  Uiso   1.00
C1080  C     0.78560   0.87935   0.98122   0.00000  Uiso   1.00
C1081  C     0.84067   0.83436   0.98005   0.00000  Uiso   1.00
C1082  C     0.82922   0.83998   0.52181   0.00000  Uiso   1.00
C1083  C     0.79721   0.86642   0.54205   0.00000  Uiso   1.00
C1084  C     0.77591   0.88634   0.52246   0.00000  Uiso   1.00
H1085  H     0.93648   0.76175   0.52243   0.00000  Uiso   1.00
H1086  H     0.84505   0.82143   0.90187   0.00000  Uiso   1.00
H1087  H     0.78883   0.87333   0.57343   0.00000  Uiso   1.00
H1088  H     0.88883   0.80867   0.92813   0.00000  Uiso   1.00
H1089  H     0.73897   0.91650   0.57842   0.00000  Uiso   1.00
H1090  H     0.75238   0.94687   0.53758   0.00000  Uiso   1.00
H1091  H     0.71053   0.90268   0.54183   0.00000  Uiso   1.00
H1092  H     0.98442   0.80908   0.78576   0.00000  Uiso   1.00
H1093  H     0.87482   0.66951   0.71598   0.00000  Uiso   1.00
H1094  H     0.79059   0.99886   0.78417   0.00000  Uiso   1.00
H1095  H     0.81313   0.83729   0.60226   0.00000  Uiso   1.00
H1096  H     0.91798   0.76963   0.59428   0.00000  Uiso   1.00
H1097  H     0.92525   0.77687   0.96235   0.00000  Uiso   1.00
H1098  H     0.74032   0.91966   0.97558   0.00000  Uiso   1.00
H1099  H     0.75614   0.90645   0.90519   0.00000  Uiso   1.00
O1100  O     0.83333   0.83333   0.75000   0.00000  Uiso   1.00
O1101  O     0.82360   0.79060   0.66625   0.00000  Uiso   1.00
O1102  O     0.79354   0.87313   0.83749   0.00000  Uiso   1.00
O1103  O     0.87755   0.84159   0.65877   0.00000  Uiso   1.00
O1104  O     0.83865   0.82802   0.83749   0.00000  Uiso   1.00
O1105  O     0.84515   0.74768   0.77820   0.00000  Uiso   1.00
O1106  O     0.81247   0.92803   0.76767   0.00000  Uiso   1.00
O1107  O     0.74119   0.79917   0.73607   0.00000  Uiso   1.00
O1108  O     0.93452   0.85845   0.71805   0.00000  Uiso   1.00
O1109  O     0.73656   0.85627   0.77820   0.00000  Uiso   1.00
O1110  O     0.92106   0.81944   0.76767   0.00000  Uiso   1.00
O1111  O     0.80467   0.73570   0.73607   0.00000  Uiso   1.00
O1112  O     0.87104   0.92193   0.71805   0.00000  Uiso   1.00
Zn1113 Zn    0.85910   0.80756   0.78277   0.00000  Uiso   1.00
Zn1114 Zn    0.80125   0.79044   0.72257   0.00000  Uiso   1.00
Zn1115 Zn    0.87833   0.86331   0.71188   0.00000  Uiso   1.00
Zn1116 Zn    0.79465   0.87202   0.78277   0.00000  Uiso   1.00
loop_
_geom_bond_atom_site_label_1
_geom_bond_atom_site_label_2
_geom_bond_distance
_geom_bond_site_symmetry_2
_ccdc_geom_bond_type
Br1    C135    1.929   1_455 S
C2     C12     1.439   .     S
C2     O55     1.270   .     A
C2     O53     1.271   .     A
C3     C27     1.417   .     A
C3     C4      1.384   .     A
C3     H34     1.076   .     S
C4     H43     1.085   .     S
C4     C564    1.388   .     S
C5     C11     1.459   .     S
C5     O56     1.282   .     A
C5     O54     1.282   .     A
C6     C7      1.421   .     A
C6     C8      1.403   .     A
C6     C562    1.388   1_554 S
C7     C10     1.411   .     A
C7     C28     1.429   .     A
C8     H31     1.084   .     S
C8     C9      1.389   .     A
C9     C21     1.394   .     A
C9     H42     1.083   .     S
C10    H41     1.077   .     S
C10    C21     1.392   .     A
C11    Br63    1.929   .     S
C11    C74     1.339   .     S
C12    C135    1.339   1_455 S
C12    H162    1.086   1_455 S
C13    H45     1.083   .     S
C13    C22     1.390   .     A
C13    C20     1.397   .     A
C14    C17     1.451   .     S
C14    C201    1.332   .     S
C14    H225    1.088   .     S
C15    C16     1.436   .     S
C15    C386    1.332   1_545 S
C15    H412    1.086   1_545 S
C16    O51     1.280   .     A
C16    O57     1.280   .     A
C17    O58     1.269   .     A
C17    O52     1.270   .     A
C18    C21     1.450   .     S
C18    O47     1.273   .     A
C18    O49     1.271   .     A
C19    C20     1.472   .     S
C19    O50     1.286   .     A
C19    O48     1.282   .     A
C20    C24     1.396   .     A
C22    C26     1.412   .     A
C22    H44     1.081   .     S
C23    H37     1.110   .     S
C23    C30     1.513   .     S
C23    H35     1.111   .     S
C23    H36     1.110   .     S
C24    H32     1.075   .     S
C24    C25     1.410   .     A
C25    C27     1.425   .     A
C25    C26     1.423   .     A
C26    C588    1.409   .     S
C27    C586    1.423   .     S
C28    C29     1.413   .     A
C28    C585    1.423   1_554 S
C29    C30     1.396   .     A
C29    H33     1.075   .     S
C30    C584    1.409   1_554 S
H38    C74     1.086   .     S
H39    C386    1.088   1_545 S
H40    C201    1.086   .     S
O46    Zn59    1.966   .     S
O46    Zn62    1.931   .     S
O46    Zn61    1.930   .     S
O46    Zn60    1.946   .     S
O47    Zn60    1.933   .     S
O48    Zn62    1.947   .     S
O49    Zn61    1.941   .     S
O50    Zn59    1.929   .     S
O51    Zn59    1.927   .     S
O52    Zn62    1.930   .     S
O53    Zn60    1.927   .     S
O54    Zn61    1.940   .     S
O55    Zn62    1.934   .     S
O56    Zn59    1.922   .     S
O57    Zn60    1.937   .     S
O58    Zn61    1.930   .     S
C64    C74     1.439   .     S
C64    O117    1.270   .     A
C64    O115    1.271   .     A
C65    C89     1.417   .     A
C65    C66     1.384   .     A
C65    H96     1.076   .     S
C66    H105    1.085   .     S
C66    C626    1.388   .     S
C67    C73     1.459   .     S
C67    O118    1.282   .     A
C67    O116    1.282   .     A
C68    C69     1.421   .     A
C68    C70     1.403   .     A
C68    C624    1.388   1_554 S
C69    C72     1.411   .     A
C69    C90     1.429   .     A
C70    H93     1.084   .     S
C70    C71     1.389   .     A
C71    C83     1.394   .     A
C71    H104    1.083   .     S
C72    H103    1.077   .     S
C72    C83     1.392   .     A
C73    Br125   1.929   .     S
C73    C136    1.339   .     S
C75    H107    1.083   .     S
C75    C84     1.390   .     A
C75    C82     1.397   .     A
C76    C79     1.451   .     S
C76    C263    1.332   .     S
C76    H287    1.088   .     S
C77    C78     1.436   .     S
C77    C448    1.332   1_545 S
C77    H474    1.086   1_545 S
C78    O113    1.280   .     A
C78    O119    1.280   .     A
C79    O120    1.269   .     A
C79    O114    1.270   .     A
C80    C83     1.450   .     S
C80    O109    1.273   .     A
C80    O111    1.271   .     A
C81    C82     1.472   .     S
C81    O112    1.286   .     A
C81    O110    1.282   .     A
C82    C86     1.396   .     A
C84    C88     1.412   .     A
C84    H106    1.081   .     S
C85    H99     1.110   .     S
C85    C92     1.513   .     S
C85    H97     1.111   .     S
C85    H98     1.110   .     S
C86    H94     1.075   .     S
C86    C87     1.410   .     A
C87    C89     1.425   .     A
C87    C88     1.423   .     A
C88    C650    1.409   .     S
C89    C648    1.423   .     S
C90    C91     1.413   .     A
C90    C647    1.423   1_554 S
C91    C92     1.396   .     A
C91    H95     1.075   .     S
C92    C646    1.409   1_554 S
H100   C136    1.086   .     S
H101   C448    1.088   1_545 S
H102   C263    1.086   .     S
O108   Zn121   1.966   .     S
O108   Zn124   1.931   .     S
O108   Zn123   1.930   .     S
O108   Zn122   1.946   .     S
O109   Zn122   1.933   .     S
O110   Zn124   1.947   .     S
O111   Zn123   1.941   .     S
O112   Zn121   1.929   .     S
O113   Zn121   1.927   .     S
O114   Zn124   1.930   .     S
O115   Zn122   1.927   .     S
O116   Zn123   1.940   .     S
O117   Zn124   1.934   .     S
O118   Zn121   1.922   .     S
O119   Zn122   1.937   .     S
O120   Zn123   1.930   .     S
C126   C136    1.439   .     S
C126   O179    1.270   .     A
C126   O177    1.271   .     A
C127   C151    1.417   .     A
C127   C128    1.384   .     A
C127   H158    1.076   .     S
C128   H167    1.085   .     S
C128   C688    1.388   .     S
C129   C135    1.459   .     S
C129   O180    1.282   .     A
C129   O178    1.282   .     A
C130   C131    1.421   .     A
C130   C132    1.403   .     A
C130   C686    1.388   1_554 S
C131   C134    1.411   .     A
C131   C152    1.429   .     A
C132   H155    1.084   .     S
C132   C133    1.389   .     A
C133   C145    1.394   .     A
C133   H166    1.083   .     S
C134   H165    1.077   .     S
C134   C145    1.392   .     A
C135   Br1     1.929   1_655 S
C135   C12     1.339   1_655 S
C137   H169    1.083   .     S
C137   C146    1.390   .     A
C137   C144    1.397   .     A
C138   C141    1.451   .     S
C138   C325    1.332   .     S
C138   H349    1.088   .     S
C139   C140    1.436   .     S
C139   C510    1.332   1_545 S
C139   H536    1.086   1_545 S
C140   O175    1.280   .     A
C140   O181    1.280   .     A
C141   O182    1.269   .     A
C141   O176    1.270   .     A
C142   C145    1.450   .     S
C142   O171    1.273   .     A
C142   O173    1.271   .     A
C143   C144    1.472   .     S
C143   O174    1.286   .     A
C143   O172    1.282   .     A
C144   C148    1.396   .     A
C146   C150    1.412   .     A
C146   H168    1.081   .     S
C147   H161    1.110   .     S
C147   C154    1.513   .     S
C147   H159    1.111   .     S
C147   H160    1.110   .     S
C148   H156    1.075   .     S
C148   C149    1.410   .     A
C149   C151    1.425   .     A
C149   C150    1.423   .     A
C150   C712    1.409   .     S
C151   C710    1.423   .     S
C152   C153    1.413   .     A
C152   C709    1.423   1_554 S
C153   C154    1.396   .     A
C153   H157    1.075   .     S
C154   C708    1.409   1_554 S
H162   C12     1.086   1_655 S
H163   C510    1.088   1_545 S
H164   C325    1.086   .     S
O170   Zn183   1.966   .     S
O170   Zn186   1.931   .     S
O170   Zn185   1.930   .     S
O170   Zn184   1.946   .     S
O171   Zn184   1.933   .     S
O172   Zn186   1.947   .     S
O173   Zn185   1.941   .     S
O174   Zn183   1.929   .     S
O175   Zn183   1.927   .     S
O176   Zn186   1.930   .     S
O177   Zn184   1.927   .     S
O178   Zn185   1.940   .     S
O179   Zn186   1.934   .     S
O180   Zn183   1.922   .     S
O181   Zn184   1.937   .     S
O182   Zn185   1.930   .     S
Br187  C321    1.929   1_455 S
C188   C198    1.439   .     S
C188   O241    1.270   .     A
C188   O239    1.271   .     A
C189   C213    1.417   .     A
C189   C190    1.384   .     A
C189   H220    1.076   .     S
C190   H229    1.085   .     S
C190   C750    1.388   .     S
C191   C197    1.459   .     S
C191   O242    1.282   .     A
C191   O240    1.282   .     A
C192   C193    1.421   .     A
C192   C194    1.403   .     A
C192   C748    1.388   1_554 S
C193   C196    1.411   .     A
C193   C214    1.429   .     A
C194   H217    1.084   .     S
C194   C195    1.389   .     A
C195   C207    1.394   .     A
C195   H228    1.083   .     S
C196   H227    1.077   .     S
C196   C207    1.392   .     A
C197   Br249   1.929   .     S
C197   C260    1.339   .     S
C198   C321    1.339   1_455 S
C198   H348    1.086   1_455 S
C199   H231    1.083   .     S
C199   C208    1.390   .     A
C199   C206    1.397   .     A
C200   C203    1.451   .     S
C200   C387    1.332   .     S
C200   H411    1.088   .     S
C201   C202    1.436   .     S
C202   O237    1.280   .     A
C202   O243    1.280   .     A
C203   O244    1.269   .     A
C203   O238    1.270   .     A
C204   C207    1.450   .     S
C204   O233    1.273   .     A
C204   O235    1.271   .     A
C205   C206    1.472   .     S
C205   O236    1.286   .     A
C205   O234    1.282   .     A
C206   C210    1.396   .     A
C208   C212    1.412   .     A
C208   H230    1.081   .     S
C209   H223    1.110   .     S
C209   C216    1.513   .     S
C209   H221    1.111   .     S
C209   H222    1.110   .     S
C210   H218    1.075   .     S
C210   C211    1.410   .     A
C211   C213    1.425   .     A
C211   C212    1.423   .     A
C212   C774    1.409   .     S
C213   C772    1.423   .     S
C214   C215    1.413   .     A
C214   C771    1.423   1_554 S
C215   C216    1.396   .     A
C215   H219    1.075   .     S
C216   C770    1.409   1_554 S
H224   C260    1.086   .     S
H226   C387    1.086   .     S
O232   Zn245   1.966   .     S
O232   Zn248   1.931   .     S
O232   Zn247   1.930   .     S
O232   Zn246   1.946   .     S
O233   Zn246   1.933   .     S
O234   Zn248   1.947   .     S
O235   Zn247   1.941   .     S
O236   Zn245   1.929   .     S
O237   Zn245   1.927   .     S
O238   Zn248   1.930   .     S
O239   Zn246   1.927   .     S
O240   Zn247   1.940   .     S
O241   Zn248   1.934   .     S
O242   Zn245   1.922   .     S
O243   Zn246   1.937   .     S
O244   Zn247   1.930   .     S
C250   C260    1.439   .     S
C250   O303    1.270   .     A
C250   O301    1.271   .     A
C251   C275    1.417   .     A
C251   C252    1.384   .     A
C251   H282    1.076   .     S
C252   H291    1.085   .     S
C252   C812    1.388   .     S
C253   C259    1.459   .     S
C253   O304    1.282   .     A
C253   O302    1.282   .     A
C254   C255    1.421   .     A
C254   C256    1.403   .     A
C254   C810    1.388   1_554 S
C255   C258    1.411   .     A
C255   C276    1.429   .     A
C256   H279    1.084   .     S
C256   C257    1.389   .     A
C257   C269    1.394   .     A
C257   H290    1.083   .     S
C258   H289    1.077   .     S
C258   C269    1.392   .     A
C259   Br311   1.929   .     S
C259   C322    1.339   .     S
C261   H293    1.083   .     S
C261   C270    1.390   .     A
C261   C268    1.397   .     A
C262   C265    1.451   .     S
C262   C449    1.332   .     S
C262   H473    1.088   .     S
C263   C264    1.436   .     S
C264   O299    1.280   .     A
C264   O305    1.280   .     A
C265   O306    1.269   .     A
C265   O300    1.270   .     A
C266   C269    1.450   .     S
C266   O295    1.273   .     A
C266   O297    1.271   .     A
C267   C268    1.472   .     S
C267   O298    1.286   .     A
C267   O296    1.282   .     A
C268   C272    1.396   .     A
C270   C274    1.412   .     A
C270   H292    1.081   .     S
C271   H285    1.110   .     S
C271   C278    1.513   .     S
C271   H283    1.111   .     S
C271   H284    1.110   .     S
C272   H280    1.075   .     S
C272   C273    1.410   .     A
C273   C275    1.425   .     A
C273   C274    1.423   .     A
C274   C836    1.409   .     S
C275   C834    1.423   .     S
C276   C277    1.413   .     A
C276   C833    1.423   1_554 S
C277   C278    1.396   .     A
C277   H281    1.075   .     S
C278   C832    1.409   1_554 S
H286   C322    1.086   .     S
H288   C449    1.086   .     S
O294   Zn307   1.966   .     S
O294   Zn310   1.931   .     S
O294   Zn309   1.930   .     S
O294   Zn308   1.946   .     S
O295   Zn308   1.933   .     S
O296   Zn310   1.947   .     S
O297   Zn309   1.941   .     S
O298   Zn307   1.929   .     S
O299   Zn307   1.927   .     S
O300   Zn310   1.930   .     S
O301   Zn308   1.927   .     S
O302   Zn309   1.940   .     S
O303   Zn310   1.934   .     S
O304   Zn307   1.922   .     S
O305   Zn308   1.937   .     S
O306   Zn309   1.930   .     S
C312   C322    1.439   .     S
C312   O365    1.270   .     A
C312   O363    1.271   .     A
C313   C337    1.417   .     A
C313   C314    1.384   .     A
C313   H344    1.076   .     S
C314   H353    1.085   .     S
C314   C874    1.388   .     S
C315   C321    1.459   .     S
C315   O366    1.282   .     A
C315   O364    1.282   .     A
C316   C317    1.421   .     A
C316   C318    1.403   .     A
C316   C872    1.388   1_554 S
C317   C320    1.411   .     A
C317   C338    1.429   .     A
C318   H341    1.084   .     S
C318   C319    1.389   .     A
C319   C331    1.394   .     A
C319   H352    1.083   .     S
C320   H351    1.077   .     S
C320   C331    1.392   .     A
C321   Br187   1.929   1_655 S
C321   C198    1.339   1_655 S
C323   H355    1.083   .     S
C323   C332    1.390   .     A
C323   C330    1.397   .     A
C324   C327    1.451   .     S
C324   C511    1.332   .     S
C324   H535    1.088   .     S
C325   C326    1.436   .     S
C326   O361    1.280   .     A
C326   O367    1.280   .     A
C327   O368    1.269   .     A
C327   O362    1.270   .     A
C328   C331    1.450   .     S
C328   O357    1.273   .     A
C328   O359    1.271   .     A
C329   C330    1.472   .     S
C329   O360    1.286   .     A
C329   O358    1.282   .     A
C330   C334    1.396   .     A
C332   C336    1.412   .     A
C332   H354    1.081   .     S
C333   H347    1.110   .     S
C333   C340    1.513   .     S
C333   H345    1.111   .     S
C333   H346    1.110   .     S
C334   H342    1.075   .     S
C334   C335    1.410   .     A
C335   C337    1.425   .     A
C335   C336    1.423   .     A
C336   C898    1.409   .     S
C337   C896    1.423   .     S
C338   C339    1.413   .     A
C338   C895    1.423   1_554 S
C339   C340    1.396   .     A
C339   H343    1.075   .     S
C340   C894    1.409   1_554 S
H348   C198    1.086   1_655 S
H350   C511    1.086   .     S
O356   Zn369   1.966   .     S
O356   Zn372   1.931   .     S
O356   Zn371   1.930   .     S
O356   Zn370   1.946   .     S
O357   Zn370   1.933   .     S
O358   Zn372   1.947   .     S
O359   Zn371   1.941   .     S
O360   Zn369   1.929   .     S
O361   Zn369   1.927   .     S
O362   Zn372   1.930   .     S
O363   Zn370   1.927   .     S
O364   Zn371   1.940   .     S
O365   Zn372   1.934   .     S
O366   Zn369   1.922   .     S
O367   Zn370   1.937   .     S
O368   Zn371   1.930   .     S
Br373  C507    1.929   1_455 S
C374   C384    1.439   .     S
C374   O427    1.270   .     A
C374   O425    1.271   .     A
C375   C399    1.417   .     A
C375   C376    1.384   .     A
C375   H406    1.076   .     S
C376   H415    1.085   .     S
C376   C936    1.388   .     S
C377   C383    1.459   .     S
C377   O428    1.282   .     A
C377   O426    1.282   .     A
C378   C379    1.421   .     A
C378   C380    1.403   .     A
C378   C934    1.388   1_554 S
C379   C382    1.411   .     A
C379   C400    1.429   .     A
C380   H403    1.084   .     S
C380   C381    1.389   .     A
C381   C393    1.394   .     A
C381   H414    1.083   .     S
C382   H413    1.077   .     S
C382   C393    1.392   .     A
C383   Br435   1.929   .     S
C383   C446    1.339   .     S
C384   C507    1.339   1_455 S
C384   H534    1.086   1_455 S
C385   H417    1.083   .     S
C385   C394    1.390   .     A
C385   C392    1.397   .     A
C386   C389    1.451   .     S
C386   C15     1.332   1_565 S
C386   H39     1.088   1_565 S
C387   C388    1.436   .     S
C388   O423    1.280   .     A
C388   O429    1.280   .     A
C389   O430    1.269   .     A
C389   O424    1.270   .     A
C390   C393    1.450   .     S
C390   O419    1.273   .     A
C390   O421    1.271   .     A
C391   C392    1.472   .     S
C391   O422    1.286   .     A
C391   O420    1.282   .     A
C392   C396    1.396   .     A
C394   C398    1.412   .     A
C394   H416    1.081   .     S
C395   H409    1.110   .     S
C395   C402    1.513   .     S
C395   H407    1.111   .     S
C395   H408    1.110   .     S
C396   H404    1.075   .     S
C396   C397    1.410   .     A
C397   C399    1.425   .     A
C397   C398    1.423   .     A
C398   C960    1.409   .     S
C399   C958    1.423   .     S
C400   C401    1.413   .     A
C400   C957    1.423   1_554 S
C401   C402    1.396   .     A
C401   H405    1.075   .     S
C402   C956    1.409   1_554 S
H410   C446    1.086   .     S
H412   C15     1.086   1_565 S
O418   Zn431   1.966   .     S
O418   Zn434   1.931   .     S
O418   Zn433   1.930   .     S
O418   Zn432   1.946   .     S
O419   Zn432   1.933   .     S
O420   Zn434   1.947   .     S
O421   Zn433   1.941   .     S
O422   Zn431   1.929   .     S
O423   Zn431   1.927   .     S
O424   Zn434   1.930   .     S
O425   Zn432   1.927   .     S
O426   Zn433   1.940   .     S
O427   Zn434   1.934   .     S
O428   Zn431   1.922   .     S
O429   Zn432   1.937   .     S
O430   Zn433   1.930   .     S
C436   C446    1.439   .     S
C436   O489    1.270   .     A
C436   O487    1.271   .     A
C437   C461    1.417   .     A
C437   C438    1.384   .     A
C437   H468    1.076   .     S
C438   H477    1.085   .     S
C438   C998    1.388   .     S
C439   C445    1.459   .     S
C439   O490    1.282   .     A
C439   O488    1.282   .     A
C440   C441    1.421   .     A
C440   C442    1.403   .     A
C440   C996    1.388   1_554 S
C441   C444    1.411   .     A
C441   C462    1.429   .     A
C442   H465    1.084   .     S
C442   C443    1.389   .     A
C443   C455    1.394   .     A
C443   H476    1.083   .     S
C444   H475    1.077   .     S
C444   C455    1.392   .     A
C445   Br497   1.929   .     S
C445   C508    1.339   .     S
C447   H479    1.083   .     S
C447   C456    1.390   .     A
C447   C454    1.397   .     A
C448   C451    1.451   .     S
C448   C77     1.332   1_565 S
C448   H101    1.088   1_565 S
C449   C450    1.436   .     S
C450   O485    1.280   .     A
C450   O491    1.280   .     A
C451   O492    1.269   .     A
C451   O486    1.270   .     A
C452   C455    1.450   .     S
C452   O481    1.273   .     A
C452   O483    1.271   .     A
C453   C454    1.472   .     S
C453   O484    1.286   .     A
C453   O482    1.282   .     A
C454   C458    1.396   .     A
C456   C460    1.412   .     A
C456   H478    1.081   .     S
C457   H471    1.110   .     S
C457   C464    1.513   .     S
C457   H469    1.111   .     S
C457   H470    1.110   .     S
C458   H466    1.075   .     S
C458   C459    1.410   .     A
C459   C461    1.425   .     A
C459   C460    1.423   .     A
C460   C1022   1.409   .     S
C461   C1020   1.423   .     S
C462   C463    1.413   .     A
C462   C1019   1.423   1_554 S
C463   C464    1.396   .     A
C463   H467    1.075   .     S
C464   C1018   1.409   1_554 S
H472   C508    1.086   .     S
H474   C77     1.086   1_565 S
O480   Zn493   1.966   .     S
O480   Zn496   1.931   .     S
O480   Zn495   1.930   .     S
O480   Zn494   1.946   .     S
O481   Zn494   1.933   .     S
O482   Zn496   1.947   .     S
O483   Zn495   1.941   .     S
O484   Zn493   1.929   .     S
O485   Zn493   1.927   .     S
O486   Zn496   1.930   .     S
O487   Zn494   1.927   .     S
O488   Zn495   1.940   .     S
O489   Zn496   1.934   .     S
O490   Zn493   1.922   .     S
O491   Zn494   1.937   .     S
O492   Zn495   1.930   .     S
C498   C508    1.439   .     S
C498   O551    1.270   .     A
C498   O549    1.271   .     A
C499   C523    1.417   .     A
C499   C500    1.384   .     A
C499   H530    1.076   .     S
C500   H539    1.085   .     S
C500   C1060   1.388   .     S
C501   C507    1.459   .     S
C501   O552    1.282   .     A
C501   O550    1.282   .     A
C502   C503    1.421   .     A
C502   C504    1.403   .     A
C502   C1058   1.388   1_554 S
C503   C506    1.411   .     A
C503   C524    1.429   .     A
C504   H527    1.084   .     S
C504   C505    1.389   .     A
C505   C517    1.394   .     A
C505   H538    1.083   .     S
C506   H537    1.077   .     S
C506   C517    1.392   .     A
C507   Br373   1.929   1_655 S
C507   C384    1.339   1_655 S
C509   H541    1.083   .     S
C509   C518    1.390   .     A
C509   C516    1.397   .     A
C510   C513    1.451   .     S
C510   C139    1.332   1_565 S
C510   H163    1.088   1_565 S
C511   C512    1.436   .     S
C512   O547    1.280   .     A
C512   O553    1.280   .     A
C513   O554    1.269   .     A
C513   O548    1.270   .     A
C514   C517    1.450   .     S
C514   O543    1.273   .     A
C514   O545    1.271   .     A
C515   C516    1.472   .     S
C515   O546    1.286   .     A
C515   O544    1.282   .     A
C516   C520    1.396   .     A
C518   C522    1.412   .     A
C518   H540    1.081   .     S
C519   H533    1.110   .     S
C519   C526    1.513   .     S
C519   H531    1.111   .     S
C519   H532    1.110   .     S
C520   H528    1.075   .     S
C520   C521    1.410   .     A
C521   C523    1.425   .     A
C521   C522    1.423   .     A
C522   C1084   1.409   .     S
C523   C1082   1.423   .     S
C524   C525    1.413   .     A
C524   C1081   1.423   1_554 S
C525   C526    1.396   .     A
C525   H529    1.075   .     S
C526   C1080   1.409   1_554 S
H534   C384    1.086   1_655 S
H536   C139    1.086   1_565 S
O542   Zn555   1.966   .     S
O542   Zn558   1.931   .     S
O542   Zn557   1.930   .     S
O542   Zn556   1.946   .     S
O543   Zn556   1.933   .     S
O544   Zn558   1.947   .     S
O545   Zn557   1.941   .     S
O546   Zn555   1.929   .     S
O547   Zn555   1.927   .     S
O548   Zn558   1.930   .     S
O549   Zn556   1.927   .     S
O550   Zn557   1.940   .     S
O551   Zn558   1.934   .     S
O552   Zn555   1.922   .     S
O553   Zn556   1.937   .     S
O554   Zn557   1.930   .     S
Br559  C693    1.929   1_455 S
C560   C570    1.439   .     S
C560   O613    1.270   .     A
C560   O611    1.271   .     A
C561   C585    1.417   .     A
C561   C562    1.384   .     A
C561   H592    1.076   .     S
C562   H601    1.085   .     S
C562   C6      1.388   1_556 S
C563   C569    1.459   .     S
C563   O614    1.282   .     A
C563   O612    1.282   .     A
C564   C565    1.421   .     A
C564   C566    1.403   .     A
C565   C568    1.411   .     A
C565   C586    1.429   .     A
C566   H589    1.084   .     S
C566   C567    1.389   .     A
C567   C579    1.394   .     A
C567   H600    1.083   .     S
C568   H599    1.077   .     S
C568   C579    1.392   .     A
C569   Br621   1.929   .     S
C569   C632    1.339   .     S
C570   C693    1.339   1_455 S
C570   H720    1.086   1_455 S
C571   H603    1.083   .     S
C571   C580    1.390   .     A
C571   C578    1.397   .     A
C572   C575    1.451   .     S
C572   C759    1.332   .     S
C572   H783    1.088   .     S
C573   C574    1.436   .     S
C573   C944    1.332   1_545 S
C573   H970    1.086   1_545 S
C574   O609    1.280   .     A
C574   O615    1.280   .     A
C575   O616    1.269   .     A
C575   O610    1.270   .     A
C576   C579    1.450   .     S
C576   O605    1.273   .     A
C576   O607    1.271   .     A
C577   C578    1.472   .     S
C577   O608    1.286   .     A
C577   O606    1.282   .     A
C578   C582    1.396   .     A
C580   C584    1.412   .     A
C580   H602    1.081   .     S
C581   H595    1.110   .     S
C581   C588    1.513   .     S
C581   H593    1.111   .     S
C581   H594    1.110   .     S
C582   H590    1.075   .     S
C582   C583    1.410   .     A
C583   C585    1.425   .     A
C583   C584    1.423   .     A
C584   C30     1.409   1_556 S
C585   C28     1.423   1_556 S
C586   C587    1.413   .     A
C587   C588    1.396   .     A
C587   H591    1.075   .     S
H596   C632    1.086   .     S
H597   C944    1.088   1_545 S
H598   C759    1.086   .     S
O604   Zn617   1.966   .     S
O604   Zn620   1.931   .     S
O604   Zn619   1.930   .     S
O604   Zn618   1.946   .     S
O605   Zn618   1.933   .     S
O606   Zn620   1.947   .     S
O607   Zn619   1.941   .     S
O608   Zn617   1.929   .     S
O609   Zn617   1.927   .     S
O610   Zn620   1.930   .     S
O611   Zn618   1.927   .     S
O612   Zn619   1.940   .     S
O613   Zn620   1.934   .     S
O614   Zn617   1.922   .     S
O615   Zn618   1.937   .     S
O616   Zn619   1.930   .     S
C622   C632    1.439   .     S
C622   O675    1.270   .     A
C622   O673    1.271   .     A
C623   C647    1.417   .     A
C623   C624    1.384   .     A
C623   H654    1.076   .     S
C624   H663    1.085   .     S
C624   C68     1.388   1_556 S
C625   C631    1.459   .     S
C625   O676    1.282   .     A
C625   O674    1.282   .     A
C626   C627    1.421   .     A
C626   C628    1.403   .     A
C627   C630    1.411   .     A
C627   C648    1.429   .     A
C628   H651    1.084   .     S
C628   C629    1.389   .     A
C629   C641    1.394   .     A
C629   H662    1.083   .     S
C630   H661    1.077   .     S
C630   C641    1.392   .     A
C631   Br683   1.929   .     S
C631   C694    1.339   .     S
C633   H665    1.083   .     S
C633   C642    1.390   .     A
C633   C640    1.397   .     A
C634   C637    1.451   .     S
C634   C821    1.332   .     S
C634   H845    1.088   .     S
C635   C636    1.436   .     S
C635   C1006   1.332   1_545 S
C635   H1032   1.086   1_545 S
C636   O671    1.280   .     A
C636   O677    1.280   .     A
C637   O678    1.269   .     A
C637   O672    1.270   .     A
C638   C641    1.450   .     S
C638   O667    1.273   .     A
C638   O669    1.271   .     A
C639   C640    1.472   .     S
C639   O670    1.286   .     A
C639   O668    1.282   .     A
C640   C644    1.396   .     A
C642   C646    1.412   .     A
C642   H664    1.081   .     S
C643   H657    1.110   .     S
C643   C650    1.513   .     S
C643   H655    1.111   .     S
C643   H656    1.110   .     S
C644   H652    1.075   .     S
C644   C645    1.410   .     A
C645   C647    1.425   .     A
C645   C646    1.423   .     A
C646   C92     1.409   1_556 S
C647   C90     1.423   1_556 S
C648   C649    1.413   .     A
C649   C650    1.396   .     A
C649   H653    1.075   .     S
H658   C694    1.086   .     S
H659   C1006   1.088   1_545 S
H660   C821    1.086   .     S
O666   Zn679   1.966   .     S
O666   Zn682   1.931   .     S
O666   Zn681   1.930   .     S
O666   Zn680   1.946   .     S
O667   Zn680   1.933   .     S
O668   Zn682   1.947   .     S
O669   Zn681   1.941   .     S
O670   Zn679   1.929   .     S
O671   Zn679   1.927   .     S
O672   Zn682   1.930   .     S
O673   Zn680   1.927   .     S
O674   Zn681   1.940   .     S
O675   Zn682   1.934   .     S
O676   Zn679   1.922   .     S
O677   Zn680   1.937   .     S
O678   Zn681   1.930   .     S
C684   C694    1.439   .     S
C684   O737    1.270   .     A
C684   O735    1.271   .     A
C685   C709    1.417   .     A
C685   C686    1.384   .     A
C685   H716    1.076   .     S
C686   H725    1.085   .     S
C686   C130    1.388   1_556 S
C687   C693    1.459   .     S
C687   O738    1.282   .     A
C687   O736    1.282   .     A
C688   C689    1.421   .     A
C688   C690    1.403   .     A
C689   C692    1.411   .     A
C689   C710    1.429   .     A
C690   H713    1.084   .     S
C690   C691    1.389   .     A
C691   C703    1.394   .     A
C691   H724    1.083   .     S
C692   H723    1.077   .     S
C692   C703    1.392   .     A
C693   Br559   1.929   1_655 S
C693   C570    1.339   1_655 S
C695   H727    1.083   .     S
C695   C704    1.390   .     A
C695   C702    1.397   .     A
C696   C699    1.451   .     S
C696   C883    1.332   .     S
C696   H907    1.088   .     S
C697   C698    1.436   .     S
C697   C1068   1.332   1_545 S
C697   H1094   1.086   1_545 S
C698   O733    1.280   .     A
C698   O739    1.280   .     A
C699   O740    1.269   .     A
C699   O734    1.270   .     A
C700   C703    1.450   .     S
C700   O729    1.273   .     A
C700   O731    1.271   .     A
C701   C702    1.472   .     S
C701   O732    1.286   .     A
C701   O730    1.282   .     A
C702   C706    1.396   .     A
C704   C708    1.412   .     A
C704   H726    1.081   .     S
C705   H719    1.110   .     S
C705   C712    1.513   .     S
C705   H717    1.111   .     S
C705   H718    1.110   .     S
C706   H714    1.075   .     S
C706   C707    1.410   .     A
C707   C709    1.425   .     A
C707   C708    1.423   .     A
C708   C154    1.409   1_556 S
C709   C152    1.423   1_556 S
C710   C711    1.413   .     A
C711   C712    1.396   .     A
C711   H715    1.075   .     S
H720   C570    1.086   1_655 S
H721   C1068   1.088   1_545 S
H722   C883    1.086   .     S
O728   Zn741   1.966   .     S
O728   Zn744   1.931   .     S
O728   Zn743   1.930   .     S
O728   Zn742   1.946   .     S
O729   Zn742   1.933   .     S
O730   Zn744   1.947   .     S
O731   Zn743   1.941   .     S
O732   Zn741   1.929   .     S
O733   Zn741   1.927   .     S
O734   Zn744   1.930   .     S
O735   Zn742   1.927   .     S
O736   Zn743   1.940   .     S
O737   Zn744   1.934   .     S
O738   Zn741   1.922   .     S
O739   Zn742   1.937   .     S
O740   Zn743   1.930   .     S
Br745  C879    1.929   1_455 S
C746   C756    1.439   .     S
C746   O799    1.270   .     A
C746   O797    1.271   .     A
C747   C771    1.417   .     A
C747   C748    1.384   .     A
C747   H778    1.076   .     S
C748   H787    1.085   .     S
C748   C192    1.388   1_556 S
C749   C755    1.459   .     S
C749   O800    1.282   .     A
C749   O798    1.282   .     A
C750   C751    1.421   .     A
C750   C752    1.403   .     A
C751   C754    1.411   .     A
C751   C772    1.429   .     A
C752   H775    1.084   .     S
C752   C753    1.389   .     A
C753   C765    1.394   .     A
C753   H786    1.083   .     S
C754   H785    1.077   .     S
C754   C765    1.392   .     A
C755   Br807   1.929   .     S
C755   C818    1.339   .     S
C756   C879    1.339   1_455 S
C756   H906    1.086   1_455 S
C757   H789    1.083   .     S
C757   C766    1.390   .     A
C757   C764    1.397   .     A
C758   C761    1.451   .     S
C758   C945    1.332   .     S
C758   H969    1.088   .     S
C759   C760    1.436   .     S
C760   O795    1.280   .     A
C760   O801    1.280   .     A
C761   O802    1.269   .     A
C761   O796    1.270   .     A
C762   C765    1.450   .     S
C762   O791    1.273   .     A
C762   O793    1.271   .     A
C763   C764    1.472   .     S
C763   O794    1.286   .     A
C763   O792    1.282   .     A
C764   C768    1.396   .     A
C766   C770    1.412   .     A
C766   H788    1.081   .     S
C767   H781    1.110   .     S
C767   C774    1.513   .     S
C767   H779    1.111   .     S
C767   H780    1.110   .     S
C768   H776    1.075   .     S
C768   C769    1.410   .     A
C769   C771    1.425   .     A
C769   C770    1.423   .     A
C770   C216    1.409   1_556 S
C771   C214    1.423   1_556 S
C772   C773    1.413   .     A
C773   C774    1.396   .     A
C773   H777    1.075   .     S
H782   C818    1.086   .     S
H784   C945    1.086   .     S
O790   Zn803   1.966   .     S
O790   Zn806   1.931   .     S
O790   Zn805   1.930   .     S
O790   Zn804   1.946   .     S
O791   Zn804   1.933   .     S
O792   Zn806   1.947   .     S
O793   Zn805   1.941   .     S
O794   Zn803   1.929   .     S
O795   Zn803   1.927   .     S
O796   Zn806   1.930   .     S
O797   Zn804   1.927   .     S
O798   Zn805   1.940   .     S
O799   Zn806   1.934   .     S
O800   Zn803   1.922   .     S
O801   Zn804   1.937   .     S
O802   Zn805   1.930   .     S
C808   C818    1.439   .     S
C808   O861    1.270   .     A
C808   O859    1.271   .     A
C809   C833    1.417   .     A
C809   C810    1.384   .     A
C809   H840    1.076   .     S
C810   H849    1.085   .     S
C810   C254    1.388   1_556 S
C811   C817    1.459   .     S
C811   O862    1.282   .     A
C811   O860    1.282   .     A
C812   C813    1.421   .     A
C812   C814    1.403   .     A
C813   C816    1.411   .     A
C813   C834    1.429   .     A
C814   H837    1.084   .     S
C814   C815    1.389   .     A
C815   C827    1.394   .     A
C815   H848    1.083   .     S
C816   H847    1.077   .     S
C816   C827    1.392   .     A
C817   Br869   1.929   .     S
C817   C880    1.339   .     S
C819   H851    1.083   .     S
C819   C828    1.390   .     A
C819   C826    1.397   .     A
C820   C823    1.451   .     S
C820   C1007   1.332   .     S
C820   H1031   1.088   .     S
C821   C822    1.436   .     S
C822   O857    1.280   .     A
C822   O863    1.280   .     A
C823   O864    1.269   .     A
C823   O858    1.270   .     A
C824   C827    1.450   .     S
C824   O853    1.273   .     A
C824   O855    1.271   .     A
C825   C826    1.472   .     S
C825   O856    1.286   .     A
C825   O854    1.282   .     A
C826   C830    1.396   .     A
C828   C832    1.412   .     A
C828   H850    1.081   .     S
C829   H843    1.110   .     S
C829   C836    1.513   .     S
C829   H841    1.111   .     S
C829   H842    1.110   .     S
C830   H838    1.075   .     S
C830   C831    1.410   .     A
C831   C833    1.425   .     A
C831   C832    1.423   .     A
C832   C278    1.409   1_556 S
C833   C276    1.423   1_556 S
C834   C835    1.413   .     A
C835   C836    1.396   .     A
C835   H839    1.075   .     S
H844   C880    1.086   .     S
H846   C1007   1.086   .     S
O852   Zn865   1.966   .     S
O852   Zn868   1.931   .     S
O852   Zn867   1.930   .     S
O852   Zn866   1.946   .     S
O853   Zn866   1.933   .     S
O854   Zn868   1.947   .     S
O855   Zn867   1.941   .     S
O856   Zn865   1.929   .     S
O857   Zn865   1.927   .     S
O858   Zn868   1.930   .     S
O859   Zn866   1.927   .     S
O860   Zn867   1.940   .     S
O861   Zn868   1.934   .     S
O862   Zn865   1.922   .     S
O863   Zn866   1.937   .     S
O864   Zn867   1.930   .     S
C870   C880    1.439   .     S
C870   O923    1.270   .     A
C870   O921    1.271   .     A
C871   C895    1.417   .     A
C871   C872    1.384   .     A
C871   H902    1.076   .     S
C872   H911    1.085   .     S
C872   C316    1.388   1_556 S
C873   C879    1.459   .     S
C873   O924    1.282   .     A
C873   O922    1.282   .     A
C874   C875    1.421   .     A
C874   C876    1.403   .     A
C875   C878    1.411   .     A
C875   C896    1.429   .     A
C876   H899    1.084   .     S
C876   C877    1.389   .     A
C877   C889    1.394   .     A
C877   H910    1.083   .     S
C878   H909    1.077   .     S
C878   C889    1.392   .     A
C879   Br745   1.929   1_655 S
C879   C756    1.339   1_655 S
C881   H913    1.083   .     S
C881   C890    1.390   .     A
C881   C888    1.397   .     A
C882   C885    1.451   .     S
C882   C1069   1.332   .     S
C882   H1093   1.088   .     S
C883   C884    1.436   .     S
C884   O919    1.280   .     A
C884   O925    1.280   .     A
C885   O926    1.269   .     A
C885   O920    1.270   .     A
C886   C889    1.450   .     S
C886   O915    1.273   .     A
C886   O917    1.271   .     A
C887   C888    1.472   .     S
C887   O918    1.286   .     A
C887   O916    1.282   .     A
C888   C892    1.396   .     A
C890   C894    1.412   .     A
C890   H912    1.081   .     S
C891   H905    1.110   .     S
C891   C898    1.513   .     S
C891   H903    1.111   .     S
C891   H904    1.110   .     S
C892   H900    1.075   .     S
C892   C893    1.410   .     A
C893   C895    1.425   .     A
C893   C894    1.423   .     A
C894   C340    1.409   1_556 S
C895   C338    1.423   1_556 S
C896   C897    1.413   .     A
C897   C898    1.396   .     A
C897   H901    1.075   .     S
H906   C756    1.086   1_655 S
H908   C1069   1.086   .     S
O914   Zn927   1.966   .     S
O914   Zn930   1.931   .     S
O914   Zn929   1.930   .     S
O914   Zn928   1.946   .     S
O915   Zn928   1.933   .     S
O916   Zn930   1.947   .     S
O917   Zn929   1.941   .     S
O918   Zn927   1.929   .     S
O919   Zn927   1.927   .     S
O920   Zn930   1.930   .     S
O921   Zn928   1.927   .     S
O922   Zn929   1.940   .     S
O923   Zn930   1.934   .     S
O924   Zn927   1.922   .     S
O925   Zn928   1.937   .     S
O926   Zn929   1.930   .     S
Br931  C1065   1.929   1_455 S
C932   C942    1.439   .     S
C932   O985    1.270   .     A
C932   O983    1.271   .     A
C933   C957    1.417   .     A
C933   C934    1.384   .     A
C933   H964    1.076   .     S
C934   H973    1.085   .     S
C934   C378    1.388   1_556 S
C935   C941    1.459   .     S
C935   O986    1.282   .     A
C935   O984    1.282   .     A
C936   C937    1.421   .     A
C936   C938    1.403   .     A
C937   C940    1.411   .     A
C937   C958    1.429   .     A
C938   H961    1.084   .     S
C938   C939    1.389   .     A
C939   C951    1.394   .     A
C939   H972    1.083   .     S
C940   H971    1.077   .     S
C940   C951    1.392   .     A
C941   Br993   1.929   .     S
C941   C1004   1.339   .     S
C942   C1065   1.339   1_455 S
C942   H1092   1.086   1_455 S
C943   H975    1.083   .     S
C943   C952    1.390   .     A
C943   C950    1.397   .     A
C944   C947    1.451   .     S
C944   C573    1.332   1_565 S
C944   H597    1.088   1_565 S
C945   C946    1.436   .     S
C946   O981    1.280   .     A
C946   O987    1.280   .     A
C947   O988    1.269   .     A
C947   O982    1.270   .     A
C948   C951    1.450   .     S
C948   O977    1.273   .     A
C948   O979    1.271   .     A
C949   C950    1.472   .     S
C949   O980    1.286   .     A
C949   O978    1.282   .     A
C950   C954    1.396   .     A
C952   C956    1.412   .     A
C952   H974    1.081   .     S
C953   H967    1.110   .     S
C953   C960    1.513   .     S
C953   H965    1.111   .     S
C953   H966    1.110   .     S
C954   H962    1.075   .     S
C954   C955    1.410   .     A
C955   C957    1.425   .     A
C955   C956    1.423   .     A
C956   C402    1.409   1_556 S
C957   C400    1.423   1_556 S
C958   C959    1.413   .     A
C959   C960    1.396   .     A
C959   H963    1.075   .     S
H968   C1004   1.086   .     S
H970   C573    1.086   1_565 S
O976   Zn989   1.966   .     S
O976   Zn992   1.931   .     S
O976   Zn991   1.930   .     S
O976   Zn990   1.946   .     S
O977   Zn990   1.933   .     S
O978   Zn992   1.947   .     S
O979   Zn991   1.941   .     S
O980   Zn989   1.929   .     S
O981   Zn989   1.927   .     S
O982   Zn992   1.930   .     S
O983   Zn990   1.927   .     S
O984   Zn991   1.940   .     S
O985   Zn992   1.934   .     S
O986   Zn989   1.922   .     S
O987   Zn990   1.937   .     S
O988   Zn991   1.930   .     S
C994   C1004   1.439   .     S
C994   O1047   1.270   .     A
C994   O1045   1.271   .     A
C995   C1019   1.417   .     A
C995   C996    1.384   .     A
C995   H1026   1.076   .     S
C996   H1035   1.085   .     S
C996   C440    1.388   1_556 S
C997   C1003   1.459   .     S
C997   O1048   1.282   .     A
C997   O1046   1.282   .     A
C998   C999    1.421   .     A
C998   C1000   1.403   .     A
C999   C1002   1.411   .     A
C999   C1020   1.429   .     A
C1000  H1023   1.084   .     S
C1000  C1001   1.389   .     A
C1001  C1013   1.394   .     A
C1001  H1034   1.083   .     S
C1002  H1033   1.077   .     S
C1002  C1013   1.392   .     A
C1003  Br1055  1.929   .     S
C1003  C1066   1.339   .     S
C1005  H1037   1.083   .     S
C1005  C1014   1.390   .     A
C1005  C1012   1.397   .     A
C1006  C1009   1.451   .     S
C1006  C635    1.332   1_565 S
C1006  H659    1.088   1_565 S
C1007  C1008   1.436   .     S
C1008  O1043   1.280   .     A
C1008  O1049   1.280   .     A
C1009  O1050   1.269   .     A
C1009  O1044   1.270   .     A
C1010  C1013   1.450   .     S
C1010  O1039   1.273   .     A
C1010  O1041   1.271   .     A
C1011  C1012   1.472   .     S
C1011  O1042   1.286   .     A
C1011  O1040   1.282   .     A
C1012  C1016   1.396   .     A
C1014  C1018   1.412   .     A
C1014  H1036   1.081   .     S
C1015  H1029   1.110   .     S
C1015  C1022   1.513   .     S
C1015  H1027   1.111   .     S
C1015  H1028   1.110   .     S
C1016  H1024   1.075   .     S
C1016  C1017   1.410   .     A
C1017  C1019   1.425   .     A
C1017  C1018   1.423   .     A
C1018  C464    1.409   1_556 S
C1019  C462    1.423   1_556 S
C1020  C1021   1.413   .     A
C1021  C1022   1.396   .     A
C1021  H1025   1.075   .     S
H1030  C1066   1.086   .     S
H1032  C635    1.086   1_565 S
O1038  Zn1051  1.966   .     S
O1038  Zn1054  1.931   .     S
O1038  Zn1053  1.930   .     S
O1038  Zn1052  1.946   .     S
O1039  Zn1052  1.933   .     S
O1040  Zn1054  1.947   .     S
O1041  Zn1053  1.941   .     S
O1042  Zn1051  1.929   .     S
O1043  Zn1051  1.927   .     S
O1044  Zn1054  1.930   .     S
O1045  Zn1052  1.927   .     S
O1046  Zn1053  1.940   .     S
O1047  Zn1054  1.934   .     S
O1048  Zn1051  1.922   .     S
O1049  Zn1052  1.937   .     S
O1050  Zn1053  1.930   .     S
C1056  C1066   1.439   .     S
C1056  O1109   1.270   .     A
C1056  O1107   1.271   .     A
C1057  C1081   1.417   .     A
C1057  C1058   1.384   .     A
C1057  H1088   1.076   .     S
C1058  H1097   1.085   .     S
C1058  C502    1.388   1_556 S
C1059  C1065   1.459   .     S
C1059  O1110   1.282   .     A
C1059  O1108   1.282   .     A
C1060  C1061   1.421   .     A
C1060  C1062   1.403   .     A
C1061  C1064   1.411   .     A
C1061  C1082   1.429   .     A
C1062  H1085   1.084   .     S
C1062  C1063   1.389   .     A
C1063  C1075   1.394   .     A
C1063  H1096   1.083   .     S
C1064  H1095   1.077   .     S
C1064  C1075   1.392   .     A
C1065  Br931   1.929   1_655 S
C1065  C942    1.339   1_655 S
C1067  H1099   1.083   .     S
C1067  C1076   1.390   .     A
C1067  C1074   1.397   .     A
C1068  C1071   1.451   .     S
C1068  C697    1.332   1_565 S
C1068  H721    1.088   1_565 S
C1069  C1070   1.436   .     S
C1070  O1105   1.280   .     A
C1070  O1111   1.280   .     A
C1071  O1112   1.269   .     A
C1071  O1106   1.270   .     A
C1072  C1075   1.450   .     S
C1072  O1101   1.273   .     A
C1072  O1103   1.271   .     A
C1073  C1074   1.472   .     S
C1073  O1104   1.286   .     A
C1073  O1102   1.282   .     A
C1074  C1078   1.396   .     A
C1076  C1080   1.412   .     A
C1076  H1098   1.081   .     S
C1077  H1091   1.110   .     S
C1077  C1084   1.513   .     S
C1077  H1089   1.111   .     S
C1077  H1090   1.110   .     S
C1078  H1086   1.075   .     S
C1078  C1079   1.410   .     A
C1079  C1081   1.425   .     A
C1079  C1080   1.423   .     A
C1080  C526    1.409   1_556 S
C1081  C524    1.423   1_556 S
C1082  C1083   1.413   .     A
C1083  C1084   1.396   .     A
C1083  H1087   1.075   .     S
H1092  C942    1.086   1_655 S
H1094  C697    1.086   1_565 S
O1100  Zn1113  1.966   .     S
O1100  Zn1116  1.931   .     S
O1100  Zn1115  1.930   .     S
O1100  Zn1114  1.946   .     S
O1101  Zn1114  1.933   .     S
O1102  Zn1116  1.947   .     S
O1103  Zn1115  1.941   .     S
O1104  Zn1113  1.929   .     S
O1105  Zn1113  1.927   .     S
O1106  Zn1116  1.930   .     S
O1107  Zn1114  1.927   .     S
O1108  Zn1115  1.940   .     S
O1109  Zn1116  1.934   .     S
O1110  Zn1113  1.922   .     S
O1111  Zn1114  1.937   .     S
O1112  Zn1115  1.930   .     S
