data_str_m3_o1_o16_pcu_sym.118
_audit_creation_date              2020-01-03
_audit_creation_method            'Materials Studio'
_symmetry_space_group_name_H-M    'P1'
_symmetry_Int_Tables_number       1
_symmetry_cell_setting            triclinic
loop_
_symmetry_equiv_pos_as_xyz
  x,y,z
_cell_length_a                    29.4817
_cell_length_b                    32.2673
_cell_length_c                    26.5490
_cell_angle_alpha                 90.5425
_cell_angle_beta                  70.2775
_cell_angle_gamma                 91.4245
loop_
_atom_site_label
_atom_site_type_symbol
_atom_site_fract_x
_atom_site_fract_y
_atom_site_fract_z
_atom_site_U_iso_or_equiv
_atom_site_adp_type
_atom_site_occupancy
C1     C     0.16710   0.24682   0.25058   0.00000  Uiso   1.00
C2     C     0.14750   0.17263   0.48878   0.00000  Uiso   1.00
C3     C     0.15473   0.15530   0.43761   0.00000  Uiso   1.00
C4     C     0.18332   0.16515   0.01245   0.00000  Uiso   1.00
C5     C     0.22729   0.14593   0.48288   0.00000  Uiso   1.00
C6     C     0.23217   0.12790   0.43362   0.00000  Uiso   1.00
C7     C     0.19475   0.12993   0.41345   0.00000  Uiso   1.00
C8     C     0.17470   0.17227   0.06634   0.00000  Uiso   1.00
C9     C     0.25517   0.15179   0.05877   0.00000  Uiso   1.00
C10    C     0.12312   0.16521   0.41008   0.00000  Uiso   1.00
C11    C     0.21109   0.31433   0.24095   0.00000  Uiso   1.00
C12    C     0.14004   0.16456   0.35181   0.00000  Uiso   1.00
C13    C     0.20993   0.02313   0.23559   0.00000  Uiso   1.00
C14    C     0.16593   0.04266   0.24785   0.00000  Uiso   1.00
C15    C     0.12255   0.01998   0.26067   0.00000  Uiso   1.00
C16    C     0.12364   0.31089   0.26180   0.00000  Uiso   1.00
C17    C     0.16769   0.29116   0.25154   0.00000  Uiso   1.00
C18    C     0.31944   0.14326   0.21388   0.00000  Uiso   1.00
C19    C     0.03482   0.14258   0.21382   0.00000  Uiso   1.00
C20    C     0.01342   0.18925   0.28683   0.00000  Uiso   1.00
C21    C     0.29864   0.18843   0.28760   0.00000  Uiso   1.00
C22    C     0.16636   0.08668   0.24910   0.00000  Uiso   1.00
C23    C     0.19328   0.16676   0.14808   0.00000  Uiso   1.00
C24    C     0.26387   0.14169   0.00529   0.00000  Uiso   1.00
C25    C     0.20932   0.16500   0.08998   0.00000  Uiso   1.00
C26    C     0.07970   0.18438   0.43665   0.00000  Uiso   1.00
C27    C     0.07110   0.20027   0.48733   0.00000  Uiso   1.00
C28    C     0.10552   0.19712   0.01307   0.00000  Uiso   1.00
H29    H     0.24375   0.04063   0.22319   0.00000  Uiso   1.00
H30    H     0.08986   0.29360   0.27102   0.00000  Uiso   1.00
H31    H     0.30759   0.12459   0.18655   0.00000  Uiso   1.00
H32    H     0.29815   0.12845   0.48245   0.00000  Uiso   1.00
H33    H     0.13898   0.17898   0.09202   0.00000  Uiso   1.00
H34    H     0.05457   0.19121   0.41619   0.00000  Uiso   1.00
H35    H     0.03920   0.21844   0.00433   0.00000  Uiso   1.00
H36    H     0.19808   0.11212   0.37768   0.00000  Uiso   1.00
N37    N     0.04760   0.16668   0.25002   0.00000  Uiso   1.00
N38    N     0.28573   0.16665   0.25001   0.00000  Uiso   1.00
O39    O     0.12846   0.22775   0.25001   0.00000  Uiso   1.00
O40    O     0.20490   0.22774   0.25001   0.00000  Uiso   1.00
O41    O     0.10947   0.16666   0.32681   0.00000  Uiso   1.00
O42    O     0.18591   0.16665   0.32681   0.00000  Uiso   1.00
O43    O     0.12843   0.10559   0.25000   0.00000  Uiso   1.00
O44    O     0.20488   0.10558   0.25000   0.00000  Uiso   1.00
O45    O     0.14742   0.16668   0.17319   0.00000  Uiso   1.00
O46    O     0.22387   0.16667   0.17319   0.00000  Uiso   1.00
Zn47   Zn    0.11562   0.16667   0.25000   0.00000  Uiso   1.00
Zn48   Zn    0.21771   0.16666   0.25000   0.00000  Uiso   1.00
F49    F     0.28968   0.14484   0.08079   0.00000  Uiso   1.00
F50    F     0.07933   0.03848   0.27227   0.00000  Uiso   1.00
O51    O     0.06946   0.11577   0.18220   0.00000  Uiso   1.00
C52    C     0.06317   0.10368   0.13356   0.00000  Uiso   1.00
H53    H     0.09957   0.10192   0.10272   0.00000  Uiso   1.00
H54    H     0.04389   0.12671   0.11793   0.00000  Uiso   1.00
C55    C     0.03937   0.06040   0.13897   0.00000  Uiso   1.00
H56    H     0.06378   0.03737   0.14648   0.00000  Uiso   1.00
H57    H     0.00520   0.05937   0.17346   0.00000  Uiso   1.00
C58    C     0.02867   0.04826   0.08837   0.00000  Uiso   1.00
H59    H     0.00417   0.07086   0.08027   0.00000  Uiso   1.00
H60    H     0.01075   0.01719   0.09372   0.00000  Uiso   1.00
H61    H     0.06263   0.04724   0.05357   0.00000  Uiso   1.00
F62    F     0.02555   0.21196   0.32377   0.00000  Uiso   1.00
F63    F     0.26485   0.20891   0.32687   0.00000  Uiso   1.00
F64    F     0.27180   0.10603   0.40642   0.00000  Uiso   1.00
O65    O     0.10230   0.22333   0.05606   0.00000  Uiso   1.00
C66    C     0.05645   0.22003   0.09684   0.00000  Uiso   1.00
H67    H     0.06214   0.21512   0.13562   0.00000  Uiso   1.00
H68    H     0.03422   0.19279   0.09202   0.00000  Uiso   1.00
C69    C     0.02904   0.26038   0.10077   0.00000  Uiso   1.00
H70    H     0.03998   0.28273   0.12693   0.00000  Uiso   1.00
H71    H     0.03810   0.27487   0.06068   0.00000  Uiso   1.00
C72    C     0.30799   0.25254   0.12337   0.00000  Uiso   1.00
H73    H     0.29613   0.23221   0.09597   0.00000  Uiso   1.00
H74    H     0.28921   0.28240   0.12732   0.00000  Uiso   1.00
H75    H     0.29793   0.23741   0.16316   0.00000  Uiso   1.00
O76    O     0.25540   0.29639   0.23068   0.00000  Uiso   1.00
C77    C     0.26682   0.29466   0.27832   0.00000  Uiso   1.00
H78    H     0.29500   0.27115   0.27146   0.00000  Uiso   1.00
H79    H     0.23542   0.28424   0.31337   0.00000  Uiso   1.00
C80    C     0.28832   0.00241   0.29081   0.00000  Uiso   1.00
H81    H     0.31819   0.01322   0.25479   0.00000  Uiso   1.00
H82    H     0.26032   0.02639   0.30265   0.00000  Uiso   1.00
C83    C     0.30754   0.33060   0.33700   0.00000  Uiso   1.00
H84    H     0.27811   0.31995   0.37352   0.00000  Uiso   1.00
H85    H     0.32212   0.02748   0.34582   0.00000  Uiso   1.00
H86    H     0.00346   0.30770   0.32641   0.00000  Uiso   1.00
C87    C     0.50043   0.24682   0.25058   0.00000  Uiso   1.00
C88    C     0.48084   0.17263   0.48878   0.00000  Uiso   1.00
C89    C     0.48806   0.15530   0.43761   0.00000  Uiso   1.00
C90    C     0.51666   0.16515   0.01245   0.00000  Uiso   1.00
C91    C     0.56062   0.14593   0.48288   0.00000  Uiso   1.00
C92    C     0.56550   0.12790   0.43362   0.00000  Uiso   1.00
C93    C     0.52808   0.12993   0.41345   0.00000  Uiso   1.00
C94    C     0.50804   0.17227   0.06634   0.00000  Uiso   1.00
C95    C     0.58851   0.15179   0.05877   0.00000  Uiso   1.00
C96    C     0.45645   0.16521   0.41008   0.00000  Uiso   1.00
C97    C     0.54442   0.31433   0.24095   0.00000  Uiso   1.00
C98    C     0.47337   0.16456   0.35181   0.00000  Uiso   1.00
C99    C     0.54326   0.02313   0.23559   0.00000  Uiso   1.00
C100   C     0.49926   0.04266   0.24785   0.00000  Uiso   1.00
C101   C     0.45588   0.01998   0.26067   0.00000  Uiso   1.00
C102   C     0.45698   0.31089   0.26180   0.00000  Uiso   1.00
C103   C     0.50102   0.29116   0.25154   0.00000  Uiso   1.00
C104   C     0.65277   0.14326   0.21388   0.00000  Uiso   1.00
C105   C     0.36816   0.14258   0.21382   0.00000  Uiso   1.00
C106   C     0.34676   0.18925   0.28683   0.00000  Uiso   1.00
C107   C     0.63197   0.18843   0.28760   0.00000  Uiso   1.00
C108   C     0.49969   0.08668   0.24910   0.00000  Uiso   1.00
C109   C     0.52661   0.16676   0.14808   0.00000  Uiso   1.00
C110   C     0.59720   0.14169   0.00529   0.00000  Uiso   1.00
C111   C     0.54265   0.16500   0.08998   0.00000  Uiso   1.00
C112   C     0.41303   0.18438   0.43665   0.00000  Uiso   1.00
C113   C     0.40443   0.20027   0.48733   0.00000  Uiso   1.00
C114   C     0.43886   0.19712   0.01307   0.00000  Uiso   1.00
H115   H     0.57708   0.04063   0.22319   0.00000  Uiso   1.00
H116   H     0.42319   0.29360   0.27102   0.00000  Uiso   1.00
H117   H     0.64093   0.12459   0.18655   0.00000  Uiso   1.00
H118   H     0.63148   0.12845   0.48245   0.00000  Uiso   1.00
H119   H     0.47232   0.17898   0.09202   0.00000  Uiso   1.00
H120   H     0.38791   0.19121   0.41619   0.00000  Uiso   1.00
H121   H     0.37253   0.21844   0.00433   0.00000  Uiso   1.00
H122   H     0.53141   0.11212   0.37768   0.00000  Uiso   1.00
N123   N     0.38093   0.16668   0.25002   0.00000  Uiso   1.00
N124   N     0.61906   0.16665   0.25001   0.00000  Uiso   1.00
O125   O     0.46179   0.22775   0.25001   0.00000  Uiso   1.00
O126   O     0.53823   0.22774   0.25001   0.00000  Uiso   1.00
O127   O     0.44280   0.16666   0.32681   0.00000  Uiso   1.00
O128   O     0.51924   0.16665   0.32681   0.00000  Uiso   1.00
O129   O     0.46177   0.10559   0.25000   0.00000  Uiso   1.00
O130   O     0.53821   0.10558   0.25000   0.00000  Uiso   1.00
O131   O     0.48076   0.16668   0.17319   0.00000  Uiso   1.00
O132   O     0.55720   0.16667   0.17319   0.00000  Uiso   1.00
Zn133  Zn    0.44896   0.16667   0.25000   0.00000  Uiso   1.00
Zn134  Zn    0.55104   0.16666   0.25000   0.00000  Uiso   1.00
F135   F     0.62302   0.14484   0.08079   0.00000  Uiso   1.00
F136   F     0.41266   0.03848   0.27227   0.00000  Uiso   1.00
O137   O     0.40279   0.11577   0.18220   0.00000  Uiso   1.00
C138   C     0.39650   0.10368   0.13356   0.00000  Uiso   1.00
H139   H     0.43290   0.10192   0.10272   0.00000  Uiso   1.00
H140   H     0.37723   0.12671   0.11793   0.00000  Uiso   1.00
C141   C     0.37270   0.06040   0.13897   0.00000  Uiso   1.00
H142   H     0.39711   0.03737   0.14648   0.00000  Uiso   1.00
H143   H     0.33853   0.05937   0.17346   0.00000  Uiso   1.00
C144   C     0.36200   0.04826   0.08837   0.00000  Uiso   1.00
H145   H     0.33750   0.07086   0.08027   0.00000  Uiso   1.00
H146   H     0.34409   0.01719   0.09372   0.00000  Uiso   1.00
H147   H     0.39596   0.04724   0.05357   0.00000  Uiso   1.00
F148   F     0.35889   0.21196   0.32377   0.00000  Uiso   1.00
F149   F     0.59819   0.20891   0.32687   0.00000  Uiso   1.00
F150   F     0.60513   0.10603   0.40642   0.00000  Uiso   1.00
O151   O     0.43564   0.22333   0.05606   0.00000  Uiso   1.00
C152   C     0.38978   0.22003   0.09684   0.00000  Uiso   1.00
H153   H     0.39548   0.21512   0.13562   0.00000  Uiso   1.00
H154   H     0.36756   0.19279   0.09202   0.00000  Uiso   1.00
C155   C     0.36238   0.26038   0.10077   0.00000  Uiso   1.00
H156   H     0.37331   0.28273   0.12693   0.00000  Uiso   1.00
H157   H     0.37144   0.27487   0.06068   0.00000  Uiso   1.00
C158   C     0.64133   0.25254   0.12337   0.00000  Uiso   1.00
H159   H     0.62946   0.23221   0.09597   0.00000  Uiso   1.00
H160   H     0.62254   0.28240   0.12732   0.00000  Uiso   1.00
H161   H     0.63127   0.23741   0.16316   0.00000  Uiso   1.00
O162   O     0.58873   0.29639   0.23068   0.00000  Uiso   1.00
C163   C     0.60016   0.29466   0.27832   0.00000  Uiso   1.00
H164   H     0.62834   0.27115   0.27146   0.00000  Uiso   1.00
H165   H     0.56875   0.28424   0.31337   0.00000  Uiso   1.00
C166   C     0.62165   0.00241   0.29081   0.00000  Uiso   1.00
H167   H     0.65152   0.01322   0.25479   0.00000  Uiso   1.00
H168   H     0.59365   0.02639   0.30265   0.00000  Uiso   1.00
C169   C     0.64087   0.33060   0.33700   0.00000  Uiso   1.00
H170   H     0.61145   0.31995   0.37352   0.00000  Uiso   1.00
H171   H     0.65545   0.02748   0.34582   0.00000  Uiso   1.00
H172   H     0.33680   0.30770   0.32641   0.00000  Uiso   1.00
C173   C     0.83377   0.24682   0.25058   0.00000  Uiso   1.00
C174   C     0.81417   0.17263   0.48878   0.00000  Uiso   1.00
C175   C     0.82139   0.15530   0.43761   0.00000  Uiso   1.00
C176   C     0.84999   0.16515   0.01245   0.00000  Uiso   1.00
C177   C     0.89395   0.14593   0.48288   0.00000  Uiso   1.00
C178   C     0.89883   0.12790   0.43362   0.00000  Uiso   1.00
C179   C     0.86142   0.12993   0.41345   0.00000  Uiso   1.00
C180   C     0.84137   0.17227   0.06634   0.00000  Uiso   1.00
C181   C     0.92184   0.15179   0.05877   0.00000  Uiso   1.00
C182   C     0.78978   0.16521   0.41008   0.00000  Uiso   1.00
C183   C     0.87775   0.31433   0.24095   0.00000  Uiso   1.00
C184   C     0.80671   0.16456   0.35181   0.00000  Uiso   1.00
C185   C     0.87660   0.02313   0.23559   0.00000  Uiso   1.00
C186   C     0.83260   0.04266   0.24785   0.00000  Uiso   1.00
C187   C     0.78921   0.01998   0.26067   0.00000  Uiso   1.00
C188   C     0.79031   0.31089   0.26180   0.00000  Uiso   1.00
C189   C     0.83435   0.29116   0.25154   0.00000  Uiso   1.00
C190   C     0.98611   0.14326   0.21388   0.00000  Uiso   1.00
C191   C     0.70149   0.14258   0.21382   0.00000  Uiso   1.00
C192   C     0.68009   0.18925   0.28683   0.00000  Uiso   1.00
C193   C     0.96531   0.18843   0.28760   0.00000  Uiso   1.00
C194   C     0.83303   0.08668   0.24910   0.00000  Uiso   1.00
C195   C     0.85994   0.16676   0.14808   0.00000  Uiso   1.00
C196   C     0.93054   0.14169   0.00529   0.00000  Uiso   1.00
C197   C     0.87599   0.16500   0.08998   0.00000  Uiso   1.00
C198   C     0.74636   0.18438   0.43665   0.00000  Uiso   1.00
C199   C     0.73777   0.20027   0.48733   0.00000  Uiso   1.00
C200   C     0.77219   0.19712   0.01307   0.00000  Uiso   1.00
H201   H     0.91041   0.04063   0.22319   0.00000  Uiso   1.00
H202   H     0.75653   0.29360   0.27102   0.00000  Uiso   1.00
H203   H     0.97426   0.12459   0.18655   0.00000  Uiso   1.00
H204   H     0.96481   0.12845   0.48245   0.00000  Uiso   1.00
H205   H     0.80565   0.17898   0.09202   0.00000  Uiso   1.00
H206   H     0.72124   0.19121   0.41619   0.00000  Uiso   1.00
H207   H     0.70586   0.21844   0.00433   0.00000  Uiso   1.00
H208   H     0.86475   0.11212   0.37768   0.00000  Uiso   1.00
N209   N     0.71426   0.16668   0.25002   0.00000  Uiso   1.00
N210   N     0.95239   0.16665   0.25001   0.00000  Uiso   1.00
O211   O     0.79512   0.22775   0.25001   0.00000  Uiso   1.00
O212   O     0.87157   0.22774   0.25001   0.00000  Uiso   1.00
O213   O     0.77613   0.16666   0.32681   0.00000  Uiso   1.00
O214   O     0.85258   0.16665   0.32681   0.00000  Uiso   1.00
O215   O     0.79510   0.10559   0.25000   0.00000  Uiso   1.00
O216   O     0.87154   0.10558   0.25000   0.00000  Uiso   1.00
O217   O     0.81409   0.16668   0.17319   0.00000  Uiso   1.00
O218   O     0.89053   0.16667   0.17319   0.00000  Uiso   1.00
Zn219  Zn    0.78229   0.16667   0.25000   0.00000  Uiso   1.00
Zn220  Zn    0.88438   0.16666   0.25000   0.00000  Uiso   1.00
F221   F     0.95635   0.14484   0.08079   0.00000  Uiso   1.00
F222   F     0.74600   0.03848   0.27227   0.00000  Uiso   1.00
O223   O     0.73613   0.11577   0.18220   0.00000  Uiso   1.00
C224   C     0.72984   0.10368   0.13356   0.00000  Uiso   1.00
H225   H     0.76623   0.10192   0.10272   0.00000  Uiso   1.00
H226   H     0.71056   0.12671   0.11793   0.00000  Uiso   1.00
C227   C     0.70603   0.06040   0.13897   0.00000  Uiso   1.00
H228   H     0.73044   0.03737   0.14648   0.00000  Uiso   1.00
H229   H     0.67186   0.05937   0.17346   0.00000  Uiso   1.00
C230   C     0.69533   0.04826   0.08837   0.00000  Uiso   1.00
H231   H     0.67084   0.07086   0.08027   0.00000  Uiso   1.00
H232   H     0.67742   0.01719   0.09372   0.00000  Uiso   1.00
H233   H     0.72929   0.04724   0.05357   0.00000  Uiso   1.00
F234   F     0.69222   0.21196   0.32377   0.00000  Uiso   1.00
F235   F     0.93152   0.20891   0.32687   0.00000  Uiso   1.00
F236   F     0.93847   0.10603   0.40642   0.00000  Uiso   1.00
O237   O     0.76897   0.22333   0.05606   0.00000  Uiso   1.00
C238   C     0.72311   0.22003   0.09684   0.00000  Uiso   1.00
H239   H     0.72881   0.21512   0.13562   0.00000  Uiso   1.00
H240   H     0.70089   0.19279   0.09202   0.00000  Uiso   1.00
C241   C     0.69571   0.26038   0.10077   0.00000  Uiso   1.00
H242   H     0.70664   0.28273   0.12693   0.00000  Uiso   1.00
H243   H     0.70477   0.27487   0.06068   0.00000  Uiso   1.00
C244   C     0.97466   0.25254   0.12337   0.00000  Uiso   1.00
H245   H     0.96280   0.23221   0.09597   0.00000  Uiso   1.00
H246   H     0.95588   0.28240   0.12732   0.00000  Uiso   1.00
H247   H     0.96460   0.23741   0.16316   0.00000  Uiso   1.00
O248   O     0.92207   0.29639   0.23068   0.00000  Uiso   1.00
C249   C     0.93349   0.29466   0.27832   0.00000  Uiso   1.00
H250   H     0.96167   0.27115   0.27146   0.00000  Uiso   1.00
H251   H     0.90208   0.28424   0.31337   0.00000  Uiso   1.00
C252   C     0.95498   0.00241   0.29081   0.00000  Uiso   1.00
H253   H     0.98485   0.01322   0.25479   0.00000  Uiso   1.00
H254   H     0.92699   0.02639   0.30265   0.00000  Uiso   1.00
C255   C     0.97420   0.33060   0.33700   0.00000  Uiso   1.00
H256   H     0.94478   0.31995   0.37352   0.00000  Uiso   1.00
H257   H     0.98878   0.02748   0.34582   0.00000  Uiso   1.00
H258   H     0.67013   0.30770   0.32641   0.00000  Uiso   1.00
C259   C     0.16710   0.58016   0.25058   0.00000  Uiso   1.00
C260   C     0.14750   0.50596   0.48878   0.00000  Uiso   1.00
C261   C     0.15473   0.48864   0.43761   0.00000  Uiso   1.00
C262   C     0.18332   0.49848   0.01245   0.00000  Uiso   1.00
C263   C     0.22729   0.47926   0.48288   0.00000  Uiso   1.00
C264   C     0.23217   0.46123   0.43362   0.00000  Uiso   1.00
C265   C     0.19475   0.46326   0.41345   0.00000  Uiso   1.00
C266   C     0.17470   0.50560   0.06634   0.00000  Uiso   1.00
C267   C     0.25517   0.48512   0.05877   0.00000  Uiso   1.00
C268   C     0.12312   0.49854   0.41008   0.00000  Uiso   1.00
C269   C     0.21109   0.64767   0.24095   0.00000  Uiso   1.00
C270   C     0.14004   0.49790   0.35181   0.00000  Uiso   1.00
C271   C     0.20993   0.35646   0.23559   0.00000  Uiso   1.00
C272   C     0.16593   0.37600   0.24785   0.00000  Uiso   1.00
C273   C     0.12255   0.35331   0.26067   0.00000  Uiso   1.00
C274   C     0.12364   0.64423   0.26180   0.00000  Uiso   1.00
C275   C     0.16769   0.62449   0.25154   0.00000  Uiso   1.00
C276   C     0.31944   0.47659   0.21388   0.00000  Uiso   1.00
C277   C     0.03482   0.47591   0.21382   0.00000  Uiso   1.00
C278   C     0.01342   0.52258   0.28683   0.00000  Uiso   1.00
C279   C     0.29864   0.52177   0.28760   0.00000  Uiso   1.00
C280   C     0.16636   0.42001   0.24910   0.00000  Uiso   1.00
C281   C     0.19328   0.50010   0.14808   0.00000  Uiso   1.00
C282   C     0.26387   0.47503   0.00529   0.00000  Uiso   1.00
C283   C     0.20932   0.49833   0.08998   0.00000  Uiso   1.00
C284   C     0.07970   0.51772   0.43665   0.00000  Uiso   1.00
C285   C     0.07110   0.53360   0.48733   0.00000  Uiso   1.00
C286   C     0.10552   0.53045   0.01307   0.00000  Uiso   1.00
H287   H     0.24375   0.37396   0.22319   0.00000  Uiso   1.00
H288   H     0.08986   0.62693   0.27102   0.00000  Uiso   1.00
H289   H     0.30759   0.45793   0.18655   0.00000  Uiso   1.00
H290   H     0.29815   0.46179   0.48245   0.00000  Uiso   1.00
H291   H     0.13898   0.51232   0.09202   0.00000  Uiso   1.00
H292   H     0.05457   0.52455   0.41619   0.00000  Uiso   1.00
H293   H     0.03920   0.55177   0.00433   0.00000  Uiso   1.00
H294   H     0.19808   0.44546   0.37768   0.00000  Uiso   1.00
N295   N     0.04760   0.50001   0.25002   0.00000  Uiso   1.00
N296   N     0.28573   0.49998   0.25001   0.00000  Uiso   1.00
O297   O     0.12846   0.56108   0.25001   0.00000  Uiso   1.00
O298   O     0.20490   0.56107   0.25001   0.00000  Uiso   1.00
O299   O     0.10947   0.50000   0.32681   0.00000  Uiso   1.00
O300   O     0.18591   0.49999   0.32681   0.00000  Uiso   1.00
O301   O     0.12843   0.43893   0.25000   0.00000  Uiso   1.00
O302   O     0.20488   0.43892   0.25000   0.00000  Uiso   1.00
O303   O     0.14742   0.50001   0.17319   0.00000  Uiso   1.00
O304   O     0.22387   0.50000   0.17319   0.00000  Uiso   1.00
Zn305  Zn    0.11562   0.50001   0.25000   0.00000  Uiso   1.00
Zn306  Zn    0.21771   0.49999   0.25000   0.00000  Uiso   1.00
F307   F     0.28968   0.47818   0.08079   0.00000  Uiso   1.00
F308   F     0.07933   0.37181   0.27227   0.00000  Uiso   1.00
O309   O     0.06946   0.44910   0.18220   0.00000  Uiso   1.00
C310   C     0.06317   0.43702   0.13356   0.00000  Uiso   1.00
H311   H     0.09957   0.43526   0.10272   0.00000  Uiso   1.00
H312   H     0.04389   0.46004   0.11793   0.00000  Uiso   1.00
C313   C     0.03937   0.39373   0.13897   0.00000  Uiso   1.00
H314   H     0.06378   0.37070   0.14648   0.00000  Uiso   1.00
H315   H     0.00520   0.39270   0.17346   0.00000  Uiso   1.00
C316   C     0.02867   0.38160   0.08837   0.00000  Uiso   1.00
H317   H     0.00417   0.40420   0.08027   0.00000  Uiso   1.00
H318   H     0.01075   0.35052   0.09372   0.00000  Uiso   1.00
H319   H     0.06263   0.38057   0.05357   0.00000  Uiso   1.00
F320   F     0.02555   0.54529   0.32377   0.00000  Uiso   1.00
F321   F     0.26485   0.54224   0.32687   0.00000  Uiso   1.00
F322   F     0.27180   0.43937   0.40642   0.00000  Uiso   1.00
O323   O     0.10230   0.55666   0.05606   0.00000  Uiso   1.00
C324   C     0.05645   0.55336   0.09684   0.00000  Uiso   1.00
H325   H     0.06214   0.54845   0.13562   0.00000  Uiso   1.00
H326   H     0.03422   0.52612   0.09202   0.00000  Uiso   1.00
C327   C     0.02904   0.59371   0.10077   0.00000  Uiso   1.00
H328   H     0.03998   0.61606   0.12693   0.00000  Uiso   1.00
H329   H     0.03810   0.60820   0.06068   0.00000  Uiso   1.00
C330   C     0.30799   0.58587   0.12337   0.00000  Uiso   1.00
H331   H     0.29613   0.56554   0.09597   0.00000  Uiso   1.00
H332   H     0.28921   0.61573   0.12732   0.00000  Uiso   1.00
H333   H     0.29793   0.57074   0.16316   0.00000  Uiso   1.00
O334   O     0.25540   0.62973   0.23068   0.00000  Uiso   1.00
C335   C     0.26682   0.62799   0.27832   0.00000  Uiso   1.00
H336   H     0.29500   0.60448   0.27146   0.00000  Uiso   1.00
H337   H     0.23542   0.61757   0.31337   0.00000  Uiso   1.00
C338   C     0.28832   0.33574   0.29081   0.00000  Uiso   1.00
H339   H     0.31819   0.34656   0.25479   0.00000  Uiso   1.00
H340   H     0.26032   0.35972   0.30265   0.00000  Uiso   1.00
C341   C     0.30754   0.66393   0.33700   0.00000  Uiso   1.00
H342   H     0.27811   0.65328   0.37352   0.00000  Uiso   1.00
H343   H     0.32212   0.36081   0.34582   0.00000  Uiso   1.00
H344   H     0.00346   0.64104   0.32641   0.00000  Uiso   1.00
C345   C     0.50043   0.58016   0.25058   0.00000  Uiso   1.00
C346   C     0.48084   0.50596   0.48878   0.00000  Uiso   1.00
C347   C     0.48806   0.48864   0.43761   0.00000  Uiso   1.00
C348   C     0.51666   0.49848   0.01245   0.00000  Uiso   1.00
C349   C     0.56062   0.47926   0.48288   0.00000  Uiso   1.00
C350   C     0.56550   0.46123   0.43362   0.00000  Uiso   1.00
C351   C     0.52808   0.46326   0.41345   0.00000  Uiso   1.00
C352   C     0.50804   0.50560   0.06634   0.00000  Uiso   1.00
C353   C     0.58851   0.48512   0.05877   0.00000  Uiso   1.00
C354   C     0.45645   0.49854   0.41008   0.00000  Uiso   1.00
C355   C     0.54442   0.64767   0.24095   0.00000  Uiso   1.00
C356   C     0.47337   0.49790   0.35181   0.00000  Uiso   1.00
C357   C     0.54326   0.35646   0.23559   0.00000  Uiso   1.00
C358   C     0.49926   0.37600   0.24785   0.00000  Uiso   1.00
C359   C     0.45588   0.35331   0.26067   0.00000  Uiso   1.00
C360   C     0.45698   0.64423   0.26180   0.00000  Uiso   1.00
C361   C     0.50102   0.62449   0.25154   0.00000  Uiso   1.00
C362   C     0.65277   0.47659   0.21388   0.00000  Uiso   1.00
C363   C     0.36816   0.47591   0.21382   0.00000  Uiso   1.00
C364   C     0.34676   0.52258   0.28683   0.00000  Uiso   1.00
C365   C     0.63197   0.52177   0.28760   0.00000  Uiso   1.00
C366   C     0.49969   0.42001   0.24910   0.00000  Uiso   1.00
C367   C     0.52661   0.50010   0.14808   0.00000  Uiso   1.00
C368   C     0.59720   0.47503   0.00529   0.00000  Uiso   1.00
C369   C     0.54265   0.49833   0.08998   0.00000  Uiso   1.00
C370   C     0.41303   0.51772   0.43665   0.00000  Uiso   1.00
C371   C     0.40443   0.53360   0.48733   0.00000  Uiso   1.00
C372   C     0.43886   0.53045   0.01307   0.00000  Uiso   1.00
H373   H     0.57708   0.37396   0.22319   0.00000  Uiso   1.00
H374   H     0.42319   0.62693   0.27102   0.00000  Uiso   1.00
H375   H     0.64093   0.45793   0.18655   0.00000  Uiso   1.00
H376   H     0.63148   0.46179   0.48245   0.00000  Uiso   1.00
H377   H     0.47232   0.51232   0.09202   0.00000  Uiso   1.00
H378   H     0.38791   0.52455   0.41619   0.00000  Uiso   1.00
H379   H     0.37253   0.55177   0.00433   0.00000  Uiso   1.00
H380   H     0.53141   0.44546   0.37768   0.00000  Uiso   1.00
N381   N     0.38093   0.50001   0.25002   0.00000  Uiso   1.00
N382   N     0.61906   0.49998   0.25001   0.00000  Uiso   1.00
O383   O     0.46179   0.56108   0.25001   0.00000  Uiso   1.00
O384   O     0.53823   0.56107   0.25001   0.00000  Uiso   1.00
O385   O     0.44280   0.50000   0.32681   0.00000  Uiso   1.00
O386   O     0.51924   0.49999   0.32681   0.00000  Uiso   1.00
O387   O     0.46177   0.43893   0.25000   0.00000  Uiso   1.00
O388   O     0.53821   0.43892   0.25000   0.00000  Uiso   1.00
O389   O     0.48076   0.50001   0.17319   0.00000  Uiso   1.00
O390   O     0.55720   0.50000   0.17319   0.00000  Uiso   1.00
Zn391  Zn    0.44896   0.50001   0.25000   0.00000  Uiso   1.00
Zn392  Zn    0.55104   0.49999   0.25000   0.00000  Uiso   1.00
F393   F     0.62302   0.47818   0.08079   0.00000  Uiso   1.00
F394   F     0.41266   0.37181   0.27227   0.00000  Uiso   1.00
O395   O     0.40279   0.44910   0.18220   0.00000  Uiso   1.00
C396   C     0.39650   0.43702   0.13356   0.00000  Uiso   1.00
H397   H     0.43290   0.43526   0.10272   0.00000  Uiso   1.00
H398   H     0.37723   0.46004   0.11793   0.00000  Uiso   1.00
C399   C     0.37270   0.39373   0.13897   0.00000  Uiso   1.00
H400   H     0.39711   0.37070   0.14648   0.00000  Uiso   1.00
H401   H     0.33853   0.39270   0.17346   0.00000  Uiso   1.00
C402   C     0.36200   0.38160   0.08837   0.00000  Uiso   1.00
H403   H     0.33750   0.40420   0.08027   0.00000  Uiso   1.00
H404   H     0.34409   0.35052   0.09372   0.00000  Uiso   1.00
H405   H     0.39596   0.38057   0.05357   0.00000  Uiso   1.00
F406   F     0.35889   0.54529   0.32377   0.00000  Uiso   1.00
F407   F     0.59819   0.54224   0.32687   0.00000  Uiso   1.00
F408   F     0.60513   0.43937   0.40642   0.00000  Uiso   1.00
O409   O     0.43564   0.55666   0.05606   0.00000  Uiso   1.00
C410   C     0.38978   0.55336   0.09684   0.00000  Uiso   1.00
H411   H     0.39548   0.54845   0.13562   0.00000  Uiso   1.00
H412   H     0.36756   0.52612   0.09202   0.00000  Uiso   1.00
C413   C     0.36238   0.59371   0.10077   0.00000  Uiso   1.00
H414   H     0.37331   0.61606   0.12693   0.00000  Uiso   1.00
H415   H     0.37144   0.60820   0.06068   0.00000  Uiso   1.00
C416   C     0.64133   0.58587   0.12337   0.00000  Uiso   1.00
H417   H     0.62946   0.56554   0.09597   0.00000  Uiso   1.00
H418   H     0.62254   0.61573   0.12732   0.00000  Uiso   1.00
H419   H     0.63127   0.57074   0.16316   0.00000  Uiso   1.00
O420   O     0.58873   0.62973   0.23068   0.00000  Uiso   1.00
C421   C     0.60016   0.62799   0.27832   0.00000  Uiso   1.00
H422   H     0.62834   0.60448   0.27146   0.00000  Uiso   1.00
H423   H     0.56875   0.61757   0.31337   0.00000  Uiso   1.00
C424   C     0.62165   0.33574   0.29081   0.00000  Uiso   1.00
H425   H     0.65152   0.34656   0.25479   0.00000  Uiso   1.00
H426   H     0.59365   0.35972   0.30265   0.00000  Uiso   1.00
C427   C     0.64087   0.66393   0.33700   0.00000  Uiso   1.00
H428   H     0.61145   0.65328   0.37352   0.00000  Uiso   1.00
H429   H     0.65545   0.36081   0.34582   0.00000  Uiso   1.00
H430   H     0.33680   0.64104   0.32641   0.00000  Uiso   1.00
C431   C     0.83377   0.58016   0.25058   0.00000  Uiso   1.00
C432   C     0.81417   0.50596   0.48878   0.00000  Uiso   1.00
C433   C     0.82139   0.48864   0.43761   0.00000  Uiso   1.00
C434   C     0.84999   0.49848   0.01245   0.00000  Uiso   1.00
C435   C     0.89395   0.47926   0.48288   0.00000  Uiso   1.00
C436   C     0.89883   0.46123   0.43362   0.00000  Uiso   1.00
C437   C     0.86142   0.46326   0.41345   0.00000  Uiso   1.00
C438   C     0.84137   0.50560   0.06634   0.00000  Uiso   1.00
C439   C     0.92184   0.48512   0.05877   0.00000  Uiso   1.00
C440   C     0.78978   0.49854   0.41008   0.00000  Uiso   1.00
C441   C     0.87775   0.64767   0.24095   0.00000  Uiso   1.00
C442   C     0.80671   0.49790   0.35181   0.00000  Uiso   1.00
C443   C     0.87660   0.35646   0.23559   0.00000  Uiso   1.00
C444   C     0.83260   0.37600   0.24785   0.00000  Uiso   1.00
C445   C     0.78921   0.35331   0.26067   0.00000  Uiso   1.00
C446   C     0.79031   0.64423   0.26180   0.00000  Uiso   1.00
C447   C     0.83435   0.62449   0.25154   0.00000  Uiso   1.00
C448   C     0.98611   0.47659   0.21388   0.00000  Uiso   1.00
C449   C     0.70149   0.47591   0.21382   0.00000  Uiso   1.00
C450   C     0.68009   0.52258   0.28683   0.00000  Uiso   1.00
C451   C     0.96531   0.52177   0.28760   0.00000  Uiso   1.00
C452   C     0.83303   0.42001   0.24910   0.00000  Uiso   1.00
C453   C     0.85994   0.50010   0.14808   0.00000  Uiso   1.00
C454   C     0.93054   0.47503   0.00529   0.00000  Uiso   1.00
C455   C     0.87599   0.49833   0.08998   0.00000  Uiso   1.00
C456   C     0.74636   0.51772   0.43665   0.00000  Uiso   1.00
C457   C     0.73777   0.53360   0.48733   0.00000  Uiso   1.00
C458   C     0.77219   0.53045   0.01307   0.00000  Uiso   1.00
H459   H     0.91041   0.37396   0.22319   0.00000  Uiso   1.00
H460   H     0.75653   0.62693   0.27102   0.00000  Uiso   1.00
H461   H     0.97426   0.45793   0.18655   0.00000  Uiso   1.00
H462   H     0.96481   0.46179   0.48245   0.00000  Uiso   1.00
H463   H     0.80565   0.51232   0.09202   0.00000  Uiso   1.00
H464   H     0.72124   0.52455   0.41619   0.00000  Uiso   1.00
H465   H     0.70586   0.55177   0.00433   0.00000  Uiso   1.00
H466   H     0.86475   0.44546   0.37768   0.00000  Uiso   1.00
N467   N     0.71426   0.50001   0.25002   0.00000  Uiso   1.00
N468   N     0.95239   0.49998   0.25001   0.00000  Uiso   1.00
O469   O     0.79512   0.56108   0.25001   0.00000  Uiso   1.00
O470   O     0.87157   0.56107   0.25001   0.00000  Uiso   1.00
O471   O     0.77613   0.50000   0.32681   0.00000  Uiso   1.00
O472   O     0.85258   0.49999   0.32681   0.00000  Uiso   1.00
O473   O     0.79510   0.43893   0.25000   0.00000  Uiso   1.00
O474   O     0.87154   0.43892   0.25000   0.00000  Uiso   1.00
O475   O     0.81409   0.50001   0.17319   0.00000  Uiso   1.00
O476   O     0.89053   0.50000   0.17319   0.00000  Uiso   1.00
Zn477  Zn    0.78229   0.50001   0.25000   0.00000  Uiso   1.00
Zn478  Zn    0.88438   0.49999   0.25000   0.00000  Uiso   1.00
F479   F     0.95635   0.47818   0.08079   0.00000  Uiso   1.00
F480   F     0.74600   0.37181   0.27227   0.00000  Uiso   1.00
O481   O     0.73613   0.44910   0.18220   0.00000  Uiso   1.00
C482   C     0.72984   0.43702   0.13356   0.00000  Uiso   1.00
H483   H     0.76623   0.43526   0.10272   0.00000  Uiso   1.00
H484   H     0.71056   0.46004   0.11793   0.00000  Uiso   1.00
C485   C     0.70603   0.39373   0.13897   0.00000  Uiso   1.00
H486   H     0.73044   0.37070   0.14648   0.00000  Uiso   1.00
H487   H     0.67186   0.39270   0.17346   0.00000  Uiso   1.00
C488   C     0.69533   0.38160   0.08837   0.00000  Uiso   1.00
H489   H     0.67084   0.40420   0.08027   0.00000  Uiso   1.00
H490   H     0.67742   0.35052   0.09372   0.00000  Uiso   1.00
H491   H     0.72929   0.38057   0.05357   0.00000  Uiso   1.00
F492   F     0.69222   0.54529   0.32377   0.00000  Uiso   1.00
F493   F     0.93152   0.54224   0.32687   0.00000  Uiso   1.00
F494   F     0.93847   0.43937   0.40642   0.00000  Uiso   1.00
O495   O     0.76897   0.55666   0.05606   0.00000  Uiso   1.00
C496   C     0.72311   0.55336   0.09684   0.00000  Uiso   1.00
H497   H     0.72881   0.54845   0.13562   0.00000  Uiso   1.00
H498   H     0.70089   0.52612   0.09202   0.00000  Uiso   1.00
C499   C     0.69571   0.59371   0.10077   0.00000  Uiso   1.00
H500   H     0.70664   0.61606   0.12693   0.00000  Uiso   1.00
H501   H     0.70477   0.60820   0.06068   0.00000  Uiso   1.00
C502   C     0.97466   0.58587   0.12337   0.00000  Uiso   1.00
H503   H     0.96280   0.56554   0.09597   0.00000  Uiso   1.00
H504   H     0.95588   0.61573   0.12732   0.00000  Uiso   1.00
H505   H     0.96460   0.57074   0.16316   0.00000  Uiso   1.00
O506   O     0.92207   0.62973   0.23068   0.00000  Uiso   1.00
C507   C     0.93349   0.62799   0.27832   0.00000  Uiso   1.00
H508   H     0.96167   0.60448   0.27146   0.00000  Uiso   1.00
H509   H     0.90208   0.61757   0.31337   0.00000  Uiso   1.00
C510   C     0.95498   0.33574   0.29081   0.00000  Uiso   1.00
H511   H     0.98485   0.34656   0.25479   0.00000  Uiso   1.00
H512   H     0.92699   0.35972   0.30265   0.00000  Uiso   1.00
C513   C     0.97420   0.66393   0.33700   0.00000  Uiso   1.00
H514   H     0.94478   0.65328   0.37352   0.00000  Uiso   1.00
H515   H     0.98878   0.36081   0.34582   0.00000  Uiso   1.00
H516   H     0.67013   0.64104   0.32641   0.00000  Uiso   1.00
C517   C     0.16710   0.91349   0.25058   0.00000  Uiso   1.00
C518   C     0.14750   0.83929   0.48878   0.00000  Uiso   1.00
C519   C     0.15473   0.82197   0.43761   0.00000  Uiso   1.00
C520   C     0.18332   0.83181   0.01245   0.00000  Uiso   1.00
C521   C     0.22729   0.81259   0.48288   0.00000  Uiso   1.00
C522   C     0.23217   0.79457   0.43362   0.00000  Uiso   1.00
C523   C     0.19475   0.79660   0.41345   0.00000  Uiso   1.00
C524   C     0.17470   0.83893   0.06634   0.00000  Uiso   1.00
C525   C     0.25517   0.81845   0.05877   0.00000  Uiso   1.00
C526   C     0.12312   0.83187   0.41008   0.00000  Uiso   1.00
C527   C     0.21109   0.98100   0.24095   0.00000  Uiso   1.00
C528   C     0.14004   0.83123   0.35181   0.00000  Uiso   1.00
C529   C     0.20993   0.68980   0.23559   0.00000  Uiso   1.00
C530   C     0.16593   0.70933   0.24785   0.00000  Uiso   1.00
C531   C     0.12255   0.68664   0.26067   0.00000  Uiso   1.00
C532   C     0.12364   0.97756   0.26180   0.00000  Uiso   1.00
C533   C     0.16769   0.95783   0.25154   0.00000  Uiso   1.00
C534   C     0.31944   0.80993   0.21388   0.00000  Uiso   1.00
C535   C     0.03482   0.80924   0.21382   0.00000  Uiso   1.00
C536   C     0.01342   0.85592   0.28683   0.00000  Uiso   1.00
C537   C     0.29864   0.85510   0.28760   0.00000  Uiso   1.00
C538   C     0.16636   0.75334   0.24910   0.00000  Uiso   1.00
C539   C     0.19328   0.83343   0.14808   0.00000  Uiso   1.00
C540   C     0.26387   0.80836   0.00529   0.00000  Uiso   1.00
C541   C     0.20932   0.83166   0.08998   0.00000  Uiso   1.00
C542   C     0.07970   0.85105   0.43665   0.00000  Uiso   1.00
C543   C     0.07110   0.86694   0.48733   0.00000  Uiso   1.00
C544   C     0.10552   0.86378   0.01307   0.00000  Uiso   1.00
H545   H     0.24375   0.70730   0.22319   0.00000  Uiso   1.00
H546   H     0.08986   0.96027   0.27102   0.00000  Uiso   1.00
H547   H     0.30759   0.79126   0.18655   0.00000  Uiso   1.00
H548   H     0.29815   0.79512   0.48245   0.00000  Uiso   1.00
H549   H     0.13898   0.84565   0.09202   0.00000  Uiso   1.00
H550   H     0.05457   0.85788   0.41619   0.00000  Uiso   1.00
H551   H     0.03920   0.88510   0.00433   0.00000  Uiso   1.00
H552   H     0.19808   0.77879   0.37768   0.00000  Uiso   1.00
N553   N     0.04760   0.83334   0.25002   0.00000  Uiso   1.00
N554   N     0.28573   0.83331   0.25001   0.00000  Uiso   1.00
O555   O     0.12846   0.89442   0.25001   0.00000  Uiso   1.00
O556   O     0.20490   0.89441   0.25001   0.00000  Uiso   1.00
O557   O     0.10947   0.83333   0.32681   0.00000  Uiso   1.00
O558   O     0.18591   0.83332   0.32681   0.00000  Uiso   1.00
O559   O     0.12843   0.77226   0.25000   0.00000  Uiso   1.00
O560   O     0.20488   0.77225   0.25000   0.00000  Uiso   1.00
O561   O     0.14742   0.83335   0.17319   0.00000  Uiso   1.00
O562   O     0.22387   0.83334   0.17319   0.00000  Uiso   1.00
Zn563  Zn    0.11562   0.83334   0.25000   0.00000  Uiso   1.00
Zn564  Zn    0.21771   0.83333   0.25000   0.00000  Uiso   1.00
F565   F     0.28968   0.81151   0.08079   0.00000  Uiso   1.00
F566   F     0.07933   0.70514   0.27227   0.00000  Uiso   1.00
O567   O     0.06946   0.78243   0.18220   0.00000  Uiso   1.00
C568   C     0.06317   0.77035   0.13356   0.00000  Uiso   1.00
H569   H     0.09957   0.76859   0.10272   0.00000  Uiso   1.00
H570   H     0.04389   0.79337   0.11793   0.00000  Uiso   1.00
C571   C     0.03937   0.72706   0.13897   0.00000  Uiso   1.00
H572   H     0.06378   0.70403   0.14648   0.00000  Uiso   1.00
H573   H     0.00520   0.72604   0.17346   0.00000  Uiso   1.00
C574   C     0.02867   0.71493   0.08837   0.00000  Uiso   1.00
H575   H     0.00417   0.73753   0.08027   0.00000  Uiso   1.00
H576   H     0.01075   0.68386   0.09372   0.00000  Uiso   1.00
H577   H     0.06263   0.71390   0.05357   0.00000  Uiso   1.00
F578   F     0.02555   0.87863   0.32377   0.00000  Uiso   1.00
F579   F     0.26485   0.87558   0.32687   0.00000  Uiso   1.00
F580   F     0.27180   0.77270   0.40642   0.00000  Uiso   1.00
O581   O     0.10230   0.88999   0.05606   0.00000  Uiso   1.00
C582   C     0.05645   0.88670   0.09684   0.00000  Uiso   1.00
H583   H     0.06214   0.88178   0.13562   0.00000  Uiso   1.00
H584   H     0.03422   0.85946   0.09202   0.00000  Uiso   1.00
C585   C     0.02904   0.92704   0.10077   0.00000  Uiso   1.00
H586   H     0.03998   0.94939   0.12693   0.00000  Uiso   1.00
H587   H     0.03810   0.94153   0.06068   0.00000  Uiso   1.00
C588   C     0.30799   0.91920   0.12337   0.00000  Uiso   1.00
H589   H     0.29613   0.89887   0.09597   0.00000  Uiso   1.00
H590   H     0.28921   0.94907   0.12732   0.00000  Uiso   1.00
H591   H     0.29793   0.90408   0.16316   0.00000  Uiso   1.00
O592   O     0.25540   0.96306   0.23068   0.00000  Uiso   1.00
C593   C     0.26682   0.96133   0.27832   0.00000  Uiso   1.00
H594   H     0.29500   0.93782   0.27146   0.00000  Uiso   1.00
H595   H     0.23542   0.95090   0.31337   0.00000  Uiso   1.00
C596   C     0.28832   0.66908   0.29081   0.00000  Uiso   1.00
H597   H     0.31819   0.67989   0.25479   0.00000  Uiso   1.00
H598   H     0.26032   0.69306   0.30265   0.00000  Uiso   1.00
C599   C     0.30754   0.99726   0.33700   0.00000  Uiso   1.00
H600   H     0.27811   0.98662   0.37352   0.00000  Uiso   1.00
H601   H     0.32212   0.69415   0.34582   0.00000  Uiso   1.00
H602   H     0.00346   0.97437   0.32641   0.00000  Uiso   1.00
C603   C     0.50043   0.91349   0.25058   0.00000  Uiso   1.00
C604   C     0.48084   0.83929   0.48878   0.00000  Uiso   1.00
C605   C     0.48806   0.82197   0.43761   0.00000  Uiso   1.00
C606   C     0.51666   0.83181   0.01245   0.00000  Uiso   1.00
C607   C     0.56062   0.81259   0.48288   0.00000  Uiso   1.00
C608   C     0.56550   0.79457   0.43362   0.00000  Uiso   1.00
C609   C     0.52808   0.79660   0.41345   0.00000  Uiso   1.00
C610   C     0.50804   0.83893   0.06634   0.00000  Uiso   1.00
C611   C     0.58851   0.81845   0.05877   0.00000  Uiso   1.00
C612   C     0.45645   0.83187   0.41008   0.00000  Uiso   1.00
C613   C     0.54442   0.98100   0.24095   0.00000  Uiso   1.00
C614   C     0.47337   0.83123   0.35181   0.00000  Uiso   1.00
C615   C     0.54326   0.68980   0.23559   0.00000  Uiso   1.00
C616   C     0.49926   0.70933   0.24785   0.00000  Uiso   1.00
C617   C     0.45588   0.68664   0.26067   0.00000  Uiso   1.00
C618   C     0.45698   0.97756   0.26180   0.00000  Uiso   1.00
C619   C     0.50102   0.95783   0.25154   0.00000  Uiso   1.00
C620   C     0.65277   0.80993   0.21388   0.00000  Uiso   1.00
C621   C     0.36816   0.80924   0.21382   0.00000  Uiso   1.00
C622   C     0.34676   0.85592   0.28683   0.00000  Uiso   1.00
C623   C     0.63197   0.85510   0.28760   0.00000  Uiso   1.00
C624   C     0.49969   0.75334   0.24910   0.00000  Uiso   1.00
C625   C     0.52661   0.83343   0.14808   0.00000  Uiso   1.00
C626   C     0.59720   0.80836   0.00529   0.00000  Uiso   1.00
C627   C     0.54265   0.83166   0.08998   0.00000  Uiso   1.00
C628   C     0.41303   0.85105   0.43665   0.00000  Uiso   1.00
C629   C     0.40443   0.86694   0.48733   0.00000  Uiso   1.00
C630   C     0.43886   0.86378   0.01307   0.00000  Uiso   1.00
H631   H     0.57708   0.70730   0.22319   0.00000  Uiso   1.00
H632   H     0.42319   0.96027   0.27102   0.00000  Uiso   1.00
H633   H     0.64093   0.79126   0.18655   0.00000  Uiso   1.00
H634   H     0.63148   0.79512   0.48245   0.00000  Uiso   1.00
H635   H     0.47232   0.84565   0.09202   0.00000  Uiso   1.00
H636   H     0.38791   0.85788   0.41619   0.00000  Uiso   1.00
H637   H     0.37253   0.88510   0.00433   0.00000  Uiso   1.00
H638   H     0.53141   0.77879   0.37768   0.00000  Uiso   1.00
N639   N     0.38093   0.83334   0.25002   0.00000  Uiso   1.00
N640   N     0.61906   0.83331   0.25001   0.00000  Uiso   1.00
O641   O     0.46179   0.89442   0.25001   0.00000  Uiso   1.00
O642   O     0.53823   0.89441   0.25001   0.00000  Uiso   1.00
O643   O     0.44280   0.83333   0.32681   0.00000  Uiso   1.00
O644   O     0.51924   0.83332   0.32681   0.00000  Uiso   1.00
O645   O     0.46177   0.77226   0.25000   0.00000  Uiso   1.00
O646   O     0.53821   0.77225   0.25000   0.00000  Uiso   1.00
O647   O     0.48076   0.83335   0.17319   0.00000  Uiso   1.00
O648   O     0.55720   0.83334   0.17319   0.00000  Uiso   1.00
Zn649  Zn    0.44896   0.83334   0.25000   0.00000  Uiso   1.00
Zn650  Zn    0.55104   0.83333   0.25000   0.00000  Uiso   1.00
F651   F     0.62302   0.81151   0.08079   0.00000  Uiso   1.00
F652   F     0.41266   0.70514   0.27227   0.00000  Uiso   1.00
O653   O     0.40279   0.78243   0.18220   0.00000  Uiso   1.00
C654   C     0.39650   0.77035   0.13356   0.00000  Uiso   1.00
H655   H     0.43290   0.76859   0.10272   0.00000  Uiso   1.00
H656   H     0.37723   0.79337   0.11793   0.00000  Uiso   1.00
C657   C     0.37270   0.72706   0.13897   0.00000  Uiso   1.00
H658   H     0.39711   0.70403   0.14648   0.00000  Uiso   1.00
H659   H     0.33853   0.72604   0.17346   0.00000  Uiso   1.00
C660   C     0.36200   0.71493   0.08837   0.00000  Uiso   1.00
H661   H     0.33750   0.73753   0.08027   0.00000  Uiso   1.00
H662   H     0.34409   0.68386   0.09372   0.00000  Uiso   1.00
H663   H     0.39596   0.71390   0.05357   0.00000  Uiso   1.00
F664   F     0.35889   0.87863   0.32377   0.00000  Uiso   1.00
F665   F     0.59819   0.87558   0.32687   0.00000  Uiso   1.00
F666   F     0.60513   0.77270   0.40642   0.00000  Uiso   1.00
O667   O     0.43564   0.88999   0.05606   0.00000  Uiso   1.00
C668   C     0.38978   0.88670   0.09684   0.00000  Uiso   1.00
H669   H     0.39548   0.88178   0.13562   0.00000  Uiso   1.00
H670   H     0.36756   0.85946   0.09202   0.00000  Uiso   1.00
C671   C     0.36238   0.92704   0.10077   0.00000  Uiso   1.00
H672   H     0.37331   0.94939   0.12693   0.00000  Uiso   1.00
H673   H     0.37144   0.94153   0.06068   0.00000  Uiso   1.00
C674   C     0.64133   0.91920   0.12337   0.00000  Uiso   1.00
H675   H     0.62946   0.89887   0.09597   0.00000  Uiso   1.00
H676   H     0.62254   0.94907   0.12732   0.00000  Uiso   1.00
H677   H     0.63127   0.90408   0.16316   0.00000  Uiso   1.00
O678   O     0.58873   0.96306   0.23068   0.00000  Uiso   1.00
C679   C     0.60016   0.96133   0.27832   0.00000  Uiso   1.00
H680   H     0.62834   0.93782   0.27146   0.00000  Uiso   1.00
H681   H     0.56875   0.95090   0.31337   0.00000  Uiso   1.00
C682   C     0.62165   0.66908   0.29081   0.00000  Uiso   1.00
H683   H     0.65152   0.67989   0.25479   0.00000  Uiso   1.00
H684   H     0.59365   0.69306   0.30265   0.00000  Uiso   1.00
C685   C     0.64087   0.99726   0.33700   0.00000  Uiso   1.00
H686   H     0.61145   0.98662   0.37352   0.00000  Uiso   1.00
H687   H     0.65545   0.69415   0.34582   0.00000  Uiso   1.00
H688   H     0.33680   0.97437   0.32641   0.00000  Uiso   1.00
C689   C     0.83377   0.91349   0.25058   0.00000  Uiso   1.00
C690   C     0.81417   0.83929   0.48878   0.00000  Uiso   1.00
C691   C     0.82139   0.82197   0.43761   0.00000  Uiso   1.00
C692   C     0.84999   0.83181   0.01245   0.00000  Uiso   1.00
C693   C     0.89395   0.81259   0.48288   0.00000  Uiso   1.00
C694   C     0.89883   0.79457   0.43362   0.00000  Uiso   1.00
C695   C     0.86142   0.79660   0.41345   0.00000  Uiso   1.00
C696   C     0.84137   0.83893   0.06634   0.00000  Uiso   1.00
C697   C     0.92184   0.81845   0.05877   0.00000  Uiso   1.00
C698   C     0.78978   0.83187   0.41008   0.00000  Uiso   1.00
C699   C     0.87775   0.98100   0.24095   0.00000  Uiso   1.00
C700   C     0.80671   0.83123   0.35181   0.00000  Uiso   1.00
C701   C     0.87660   0.68980   0.23559   0.00000  Uiso   1.00
C702   C     0.83260   0.70933   0.24785   0.00000  Uiso   1.00
C703   C     0.78921   0.68664   0.26067   0.00000  Uiso   1.00
C704   C     0.79031   0.97756   0.26180   0.00000  Uiso   1.00
C705   C     0.83435   0.95783   0.25154   0.00000  Uiso   1.00
C706   C     0.98611   0.80993   0.21388   0.00000  Uiso   1.00
C707   C     0.70149   0.80924   0.21382   0.00000  Uiso   1.00
C708   C     0.68009   0.85592   0.28683   0.00000  Uiso   1.00
C709   C     0.96531   0.85510   0.28760   0.00000  Uiso   1.00
C710   C     0.83303   0.75334   0.24910   0.00000  Uiso   1.00
C711   C     0.85994   0.83343   0.14808   0.00000  Uiso   1.00
C712   C     0.93054   0.80836   0.00529   0.00000  Uiso   1.00
C713   C     0.87599   0.83166   0.08998   0.00000  Uiso   1.00
C714   C     0.74636   0.85105   0.43665   0.00000  Uiso   1.00
C715   C     0.73777   0.86694   0.48733   0.00000  Uiso   1.00
C716   C     0.77219   0.86378   0.01307   0.00000  Uiso   1.00
H717   H     0.91041   0.70730   0.22319   0.00000  Uiso   1.00
H718   H     0.75653   0.96027   0.27102   0.00000  Uiso   1.00
H719   H     0.97426   0.79126   0.18655   0.00000  Uiso   1.00
H720   H     0.96481   0.79512   0.48245   0.00000  Uiso   1.00
H721   H     0.80565   0.84565   0.09202   0.00000  Uiso   1.00
H722   H     0.72124   0.85788   0.41619   0.00000  Uiso   1.00
H723   H     0.70586   0.88510   0.00433   0.00000  Uiso   1.00
H724   H     0.86475   0.77879   0.37768   0.00000  Uiso   1.00
N725   N     0.71426   0.83334   0.25002   0.00000  Uiso   1.00
N726   N     0.95239   0.83331   0.25001   0.00000  Uiso   1.00
O727   O     0.79512   0.89442   0.25001   0.00000  Uiso   1.00
O728   O     0.87157   0.89441   0.25001   0.00000  Uiso   1.00
O729   O     0.77613   0.83333   0.32681   0.00000  Uiso   1.00
O730   O     0.85258   0.83332   0.32681   0.00000  Uiso   1.00
O731   O     0.79510   0.77226   0.25000   0.00000  Uiso   1.00
O732   O     0.87154   0.77225   0.25000   0.00000  Uiso   1.00
O733   O     0.81409   0.83335   0.17319   0.00000  Uiso   1.00
O734   O     0.89053   0.83334   0.17319   0.00000  Uiso   1.00
Zn735  Zn    0.78229   0.83334   0.25000   0.00000  Uiso   1.00
Zn736  Zn    0.88438   0.83333   0.25000   0.00000  Uiso   1.00
F737   F     0.95635   0.81151   0.08079   0.00000  Uiso   1.00
F738   F     0.74600   0.70514   0.27227   0.00000  Uiso   1.00
O739   O     0.73613   0.78243   0.18220   0.00000  Uiso   1.00
C740   C     0.72984   0.77035   0.13356   0.00000  Uiso   1.00
H741   H     0.76623   0.76859   0.10272   0.00000  Uiso   1.00
H742   H     0.71056   0.79337   0.11793   0.00000  Uiso   1.00
C743   C     0.70603   0.72706   0.13897   0.00000  Uiso   1.00
H744   H     0.73044   0.70403   0.14648   0.00000  Uiso   1.00
H745   H     0.67186   0.72604   0.17346   0.00000  Uiso   1.00
C746   C     0.69533   0.71493   0.08837   0.00000  Uiso   1.00
H747   H     0.67084   0.73753   0.08027   0.00000  Uiso   1.00
H748   H     0.67742   0.68386   0.09372   0.00000  Uiso   1.00
H749   H     0.72929   0.71390   0.05357   0.00000  Uiso   1.00
F750   F     0.69222   0.87863   0.32377   0.00000  Uiso   1.00
F751   F     0.93152   0.87558   0.32687   0.00000  Uiso   1.00
F752   F     0.93847   0.77270   0.40642   0.00000  Uiso   1.00
O753   O     0.76897   0.88999   0.05606   0.00000  Uiso   1.00
C754   C     0.72311   0.88670   0.09684   0.00000  Uiso   1.00
H755   H     0.72881   0.88178   0.13562   0.00000  Uiso   1.00
H756   H     0.70089   0.85946   0.09202   0.00000  Uiso   1.00
C757   C     0.69571   0.92704   0.10077   0.00000  Uiso   1.00
H758   H     0.70664   0.94939   0.12693   0.00000  Uiso   1.00
H759   H     0.70477   0.94153   0.06068   0.00000  Uiso   1.00
C760   C     0.97466   0.91920   0.12337   0.00000  Uiso   1.00
H761   H     0.96280   0.89887   0.09597   0.00000  Uiso   1.00
H762   H     0.95588   0.94907   0.12732   0.00000  Uiso   1.00
H763   H     0.96460   0.90408   0.16316   0.00000  Uiso   1.00
O764   O     0.92207   0.96306   0.23068   0.00000  Uiso   1.00
C765   C     0.93349   0.96133   0.27832   0.00000  Uiso   1.00
H766   H     0.96167   0.93782   0.27146   0.00000  Uiso   1.00
H767   H     0.90208   0.95090   0.31337   0.00000  Uiso   1.00
C768   C     0.95498   0.66908   0.29081   0.00000  Uiso   1.00
H769   H     0.98485   0.67989   0.25479   0.00000  Uiso   1.00
H770   H     0.92699   0.69306   0.30265   0.00000  Uiso   1.00
C771   C     0.97420   0.99726   0.33700   0.00000  Uiso   1.00
H772   H     0.94478   0.98662   0.37352   0.00000  Uiso   1.00
H773   H     0.98878   0.69415   0.34582   0.00000  Uiso   1.00
H774   H     0.67013   0.97437   0.32641   0.00000  Uiso   1.00
C775   C     0.16710   0.24682   0.75058   0.00000  Uiso   1.00
C776   C     0.14750   0.17263   0.98878   0.00000  Uiso   1.00
C777   C     0.15473   0.15530   0.93761   0.00000  Uiso   1.00
C778   C     0.18332   0.16515   0.51245   0.00000  Uiso   1.00
C779   C     0.22729   0.14593   0.98288   0.00000  Uiso   1.00
C780   C     0.23217   0.12790   0.93362   0.00000  Uiso   1.00
C781   C     0.19475   0.12993   0.91345   0.00000  Uiso   1.00
C782   C     0.17470   0.17227   0.56634   0.00000  Uiso   1.00
C783   C     0.25517   0.15179   0.55877   0.00000  Uiso   1.00
C784   C     0.12312   0.16521   0.91008   0.00000  Uiso   1.00
C785   C     0.21109   0.31433   0.74095   0.00000  Uiso   1.00
C786   C     0.14004   0.16456   0.85181   0.00000  Uiso   1.00
C787   C     0.20993   0.02313   0.73559   0.00000  Uiso   1.00
C788   C     0.16593   0.04266   0.74785   0.00000  Uiso   1.00
C789   C     0.12255   0.01998   0.76067   0.00000  Uiso   1.00
C790   C     0.12364   0.31089   0.76180   0.00000  Uiso   1.00
C791   C     0.16769   0.29116   0.75154   0.00000  Uiso   1.00
C792   C     0.31944   0.14326   0.71388   0.00000  Uiso   1.00
C793   C     0.03482   0.14258   0.71382   0.00000  Uiso   1.00
C794   C     0.01342   0.18925   0.78683   0.00000  Uiso   1.00
C795   C     0.29864   0.18843   0.78760   0.00000  Uiso   1.00
C796   C     0.16636   0.08668   0.74910   0.00000  Uiso   1.00
C797   C     0.19328   0.16676   0.64808   0.00000  Uiso   1.00
C798   C     0.26387   0.14169   0.50529   0.00000  Uiso   1.00
C799   C     0.20932   0.16500   0.58998   0.00000  Uiso   1.00
C800   C     0.07970   0.18438   0.93665   0.00000  Uiso   1.00
C801   C     0.07110   0.20027   0.98733   0.00000  Uiso   1.00
C802   C     0.10552   0.19712   0.51307   0.00000  Uiso   1.00
H803   H     0.24375   0.04063   0.72319   0.00000  Uiso   1.00
H804   H     0.08986   0.29360   0.77102   0.00000  Uiso   1.00
H805   H     0.30759   0.12459   0.68655   0.00000  Uiso   1.00
H806   H     0.29815   0.12845   0.98245   0.00000  Uiso   1.00
H807   H     0.13898   0.17898   0.59202   0.00000  Uiso   1.00
H808   H     0.05457   0.19121   0.91619   0.00000  Uiso   1.00
H809   H     0.03920   0.21844   0.50433   0.00000  Uiso   1.00
H810   H     0.19808   0.11212   0.87768   0.00000  Uiso   1.00
N811   N     0.04760   0.16668   0.75002   0.00000  Uiso   1.00
N812   N     0.28573   0.16665   0.75001   0.00000  Uiso   1.00
O813   O     0.12846   0.22775   0.75001   0.00000  Uiso   1.00
O814   O     0.20490   0.22774   0.75001   0.00000  Uiso   1.00
O815   O     0.10947   0.16666   0.82681   0.00000  Uiso   1.00
O816   O     0.18591   0.16665   0.82681   0.00000  Uiso   1.00
O817   O     0.12843   0.10559   0.75000   0.00000  Uiso   1.00
O818   O     0.20488   0.10558   0.75000   0.00000  Uiso   1.00
O819   O     0.14742   0.16668   0.67319   0.00000  Uiso   1.00
O820   O     0.22387   0.16667   0.67319   0.00000  Uiso   1.00
Zn821  Zn    0.11562   0.16667   0.75000   0.00000  Uiso   1.00
Zn822  Zn    0.21771   0.16666   0.75000   0.00000  Uiso   1.00
F823   F     0.28968   0.14484   0.58079   0.00000  Uiso   1.00
F824   F     0.07933   0.03848   0.77227   0.00000  Uiso   1.00
O825   O     0.06946   0.11577   0.68220   0.00000  Uiso   1.00
C826   C     0.06317   0.10368   0.63356   0.00000  Uiso   1.00
H827   H     0.09957   0.10192   0.60272   0.00000  Uiso   1.00
H828   H     0.04389   0.12671   0.61793   0.00000  Uiso   1.00
C829   C     0.03937   0.06040   0.63897   0.00000  Uiso   1.00
H830   H     0.06378   0.03737   0.64648   0.00000  Uiso   1.00
H831   H     0.00520   0.05937   0.67346   0.00000  Uiso   1.00
C832   C     0.02867   0.04826   0.58837   0.00000  Uiso   1.00
H833   H     0.00417   0.07086   0.58027   0.00000  Uiso   1.00
H834   H     0.01075   0.01719   0.59372   0.00000  Uiso   1.00
H835   H     0.06263   0.04724   0.55357   0.00000  Uiso   1.00
F836   F     0.02555   0.21196   0.82377   0.00000  Uiso   1.00
F837   F     0.26485   0.20891   0.82687   0.00000  Uiso   1.00
F838   F     0.27180   0.10603   0.90642   0.00000  Uiso   1.00
O839   O     0.10230   0.22333   0.55606   0.00000  Uiso   1.00
C840   C     0.05645   0.22003   0.59684   0.00000  Uiso   1.00
H841   H     0.06214   0.21512   0.63562   0.00000  Uiso   1.00
H842   H     0.03422   0.19279   0.59202   0.00000  Uiso   1.00
C843   C     0.02904   0.26038   0.60077   0.00000  Uiso   1.00
H844   H     0.03998   0.28273   0.62693   0.00000  Uiso   1.00
H845   H     0.03810   0.27487   0.56068   0.00000  Uiso   1.00
C846   C     0.30799   0.25254   0.62337   0.00000  Uiso   1.00
H847   H     0.29613   0.23221   0.59597   0.00000  Uiso   1.00
H848   H     0.28921   0.28240   0.62732   0.00000  Uiso   1.00
H849   H     0.29793   0.23741   0.66316   0.00000  Uiso   1.00
O850   O     0.25540   0.29639   0.73068   0.00000  Uiso   1.00
C851   C     0.26682   0.29466   0.77832   0.00000  Uiso   1.00
H852   H     0.29500   0.27115   0.77146   0.00000  Uiso   1.00
H853   H     0.23542   0.28424   0.81337   0.00000  Uiso   1.00
C854   C     0.28832   0.00241   0.79081   0.00000  Uiso   1.00
H855   H     0.31819   0.01322   0.75479   0.00000  Uiso   1.00
H856   H     0.26032   0.02639   0.80265   0.00000  Uiso   1.00
C857   C     0.30754   0.33060   0.83700   0.00000  Uiso   1.00
H858   H     0.27811   0.31995   0.87352   0.00000  Uiso   1.00
H859   H     0.32212   0.02748   0.84582   0.00000  Uiso   1.00
H860   H     0.00346   0.30770   0.82641   0.00000  Uiso   1.00
C861   C     0.50043   0.24682   0.75058   0.00000  Uiso   1.00
C862   C     0.48084   0.17263   0.98878   0.00000  Uiso   1.00
C863   C     0.48806   0.15530   0.93761   0.00000  Uiso   1.00
C864   C     0.51666   0.16515   0.51245   0.00000  Uiso   1.00
C865   C     0.56062   0.14593   0.98288   0.00000  Uiso   1.00
C866   C     0.56550   0.12790   0.93362   0.00000  Uiso   1.00
C867   C     0.52808   0.12993   0.91345   0.00000  Uiso   1.00
C868   C     0.50804   0.17227   0.56634   0.00000  Uiso   1.00
C869   C     0.58851   0.15179   0.55877   0.00000  Uiso   1.00
C870   C     0.45645   0.16521   0.91008   0.00000  Uiso   1.00
C871   C     0.54442   0.31433   0.74095   0.00000  Uiso   1.00
C872   C     0.47337   0.16456   0.85181   0.00000  Uiso   1.00
C873   C     0.54326   0.02313   0.73559   0.00000  Uiso   1.00
C874   C     0.49926   0.04266   0.74785   0.00000  Uiso   1.00
C875   C     0.45588   0.01998   0.76067   0.00000  Uiso   1.00
C876   C     0.45698   0.31089   0.76180   0.00000  Uiso   1.00
C877   C     0.50102   0.29116   0.75154   0.00000  Uiso   1.00
C878   C     0.65277   0.14326   0.71388   0.00000  Uiso   1.00
C879   C     0.36816   0.14258   0.71382   0.00000  Uiso   1.00
C880   C     0.34676   0.18925   0.78683   0.00000  Uiso   1.00
C881   C     0.63197   0.18843   0.78760   0.00000  Uiso   1.00
C882   C     0.49969   0.08668   0.74910   0.00000  Uiso   1.00
C883   C     0.52661   0.16676   0.64808   0.00000  Uiso   1.00
C884   C     0.59720   0.14169   0.50529   0.00000  Uiso   1.00
C885   C     0.54265   0.16500   0.58998   0.00000  Uiso   1.00
C886   C     0.41303   0.18438   0.93665   0.00000  Uiso   1.00
C887   C     0.40443   0.20027   0.98733   0.00000  Uiso   1.00
C888   C     0.43886   0.19712   0.51307   0.00000  Uiso   1.00
H889   H     0.57708   0.04063   0.72319   0.00000  Uiso   1.00
H890   H     0.42319   0.29360   0.77102   0.00000  Uiso   1.00
H891   H     0.64093   0.12459   0.68655   0.00000  Uiso   1.00
H892   H     0.63148   0.12845   0.98245   0.00000  Uiso   1.00
H893   H     0.47232   0.17898   0.59202   0.00000  Uiso   1.00
H894   H     0.38791   0.19121   0.91619   0.00000  Uiso   1.00
H895   H     0.37253   0.21844   0.50433   0.00000  Uiso   1.00
H896   H     0.53141   0.11212   0.87768   0.00000  Uiso   1.00
N897   N     0.38093   0.16668   0.75002   0.00000  Uiso   1.00
N898   N     0.61906   0.16665   0.75001   0.00000  Uiso   1.00
O899   O     0.46179   0.22775   0.75001   0.00000  Uiso   1.00
O900   O     0.53823   0.22774   0.75001   0.00000  Uiso   1.00
O901   O     0.44280   0.16666   0.82681   0.00000  Uiso   1.00
O902   O     0.51924   0.16665   0.82681   0.00000  Uiso   1.00
O903   O     0.46177   0.10559   0.75000   0.00000  Uiso   1.00
O904   O     0.53821   0.10558   0.75000   0.00000  Uiso   1.00
O905   O     0.48076   0.16668   0.67319   0.00000  Uiso   1.00
O906   O     0.55720   0.16667   0.67319   0.00000  Uiso   1.00
Zn907  Zn    0.44896   0.16667   0.75000   0.00000  Uiso   1.00
Zn908  Zn    0.55104   0.16666   0.75000   0.00000  Uiso   1.00
F909   F     0.62302   0.14484   0.58079   0.00000  Uiso   1.00
F910   F     0.41266   0.03848   0.77227   0.00000  Uiso   1.00
O911   O     0.40279   0.11577   0.68220   0.00000  Uiso   1.00
C912   C     0.39650   0.10368   0.63356   0.00000  Uiso   1.00
H913   H     0.43290   0.10192   0.60272   0.00000  Uiso   1.00
H914   H     0.37723   0.12671   0.61793   0.00000  Uiso   1.00
C915   C     0.37270   0.06040   0.63897   0.00000  Uiso   1.00
H916   H     0.39711   0.03737   0.64648   0.00000  Uiso   1.00
H917   H     0.33853   0.05937   0.67346   0.00000  Uiso   1.00
C918   C     0.36200   0.04826   0.58837   0.00000  Uiso   1.00
H919   H     0.33750   0.07086   0.58027   0.00000  Uiso   1.00
H920   H     0.34409   0.01719   0.59372   0.00000  Uiso   1.00
H921   H     0.39596   0.04724   0.55357   0.00000  Uiso   1.00
F922   F     0.35889   0.21196   0.82377   0.00000  Uiso   1.00
F923   F     0.59819   0.20891   0.82687   0.00000  Uiso   1.00
F924   F     0.60513   0.10603   0.90642   0.00000  Uiso   1.00
O925   O     0.43564   0.22333   0.55606   0.00000  Uiso   1.00
C926   C     0.38978   0.22003   0.59684   0.00000  Uiso   1.00
H927   H     0.39548   0.21512   0.63562   0.00000  Uiso   1.00
H928   H     0.36756   0.19279   0.59202   0.00000  Uiso   1.00
C929   C     0.36238   0.26038   0.60077   0.00000  Uiso   1.00
H930   H     0.37331   0.28273   0.62693   0.00000  Uiso   1.00
H931   H     0.37144   0.27487   0.56068   0.00000  Uiso   1.00
C932   C     0.64133   0.25254   0.62337   0.00000  Uiso   1.00
H933   H     0.62946   0.23221   0.59597   0.00000  Uiso   1.00
H934   H     0.62254   0.28240   0.62732   0.00000  Uiso   1.00
H935   H     0.63127   0.23741   0.66316   0.00000  Uiso   1.00
O936   O     0.58873   0.29639   0.73068   0.00000  Uiso   1.00
C937   C     0.60016   0.29466   0.77832   0.00000  Uiso   1.00
H938   H     0.62834   0.27115   0.77146   0.00000  Uiso   1.00
H939   H     0.56875   0.28424   0.81337   0.00000  Uiso   1.00
C940   C     0.62165   0.00241   0.79081   0.00000  Uiso   1.00
H941   H     0.65152   0.01322   0.75479   0.00000  Uiso   1.00
H942   H     0.59365   0.02639   0.80265   0.00000  Uiso   1.00
C943   C     0.64087   0.33060   0.83700   0.00000  Uiso   1.00
H944   H     0.61145   0.31995   0.87352   0.00000  Uiso   1.00
H945   H     0.65545   0.02748   0.84582   0.00000  Uiso   1.00
H946   H     0.33680   0.30770   0.82641   0.00000  Uiso   1.00
C947   C     0.83377   0.24682   0.75058   0.00000  Uiso   1.00
C948   C     0.81417   0.17263   0.98878   0.00000  Uiso   1.00
C949   C     0.82139   0.15530   0.93761   0.00000  Uiso   1.00
C950   C     0.84999   0.16515   0.51245   0.00000  Uiso   1.00
C951   C     0.89395   0.14593   0.98288   0.00000  Uiso   1.00
C952   C     0.89883   0.12790   0.93362   0.00000  Uiso   1.00
C953   C     0.86142   0.12993   0.91345   0.00000  Uiso   1.00
C954   C     0.84137   0.17227   0.56634   0.00000  Uiso   1.00
C955   C     0.92184   0.15179   0.55877   0.00000  Uiso   1.00
C956   C     0.78978   0.16521   0.91008   0.00000  Uiso   1.00
C957   C     0.87775   0.31433   0.74095   0.00000  Uiso   1.00
C958   C     0.80671   0.16456   0.85181   0.00000  Uiso   1.00
C959   C     0.87660   0.02313   0.73559   0.00000  Uiso   1.00
C960   C     0.83260   0.04266   0.74785   0.00000  Uiso   1.00
C961   C     0.78921   0.01998   0.76067   0.00000  Uiso   1.00
C962   C     0.79031   0.31089   0.76180   0.00000  Uiso   1.00
C963   C     0.83435   0.29116   0.75154   0.00000  Uiso   1.00
C964   C     0.98611   0.14326   0.71388   0.00000  Uiso   1.00
C965   C     0.70149   0.14258   0.71382   0.00000  Uiso   1.00
C966   C     0.68009   0.18925   0.78683   0.00000  Uiso   1.00
C967   C     0.96531   0.18843   0.78760   0.00000  Uiso   1.00
C968   C     0.83303   0.08668   0.74910   0.00000  Uiso   1.00
C969   C     0.85994   0.16676   0.64808   0.00000  Uiso   1.00
C970   C     0.93054   0.14169   0.50529   0.00000  Uiso   1.00
C971   C     0.87599   0.16500   0.58998   0.00000  Uiso   1.00
C972   C     0.74636   0.18438   0.93665   0.00000  Uiso   1.00
C973   C     0.73777   0.20027   0.98733   0.00000  Uiso   1.00
C974   C     0.77219   0.19712   0.51307   0.00000  Uiso   1.00
H975   H     0.91041   0.04063   0.72319   0.00000  Uiso   1.00
H976   H     0.75653   0.29360   0.77102   0.00000  Uiso   1.00
H977   H     0.97426   0.12459   0.68655   0.00000  Uiso   1.00
H978   H     0.96481   0.12845   0.98245   0.00000  Uiso   1.00
H979   H     0.80565   0.17898   0.59202   0.00000  Uiso   1.00
H980   H     0.72124   0.19121   0.91619   0.00000  Uiso   1.00
H981   H     0.70586   0.21844   0.50433   0.00000  Uiso   1.00
H982   H     0.86475   0.11212   0.87768   0.00000  Uiso   1.00
N983   N     0.71426   0.16668   0.75002   0.00000  Uiso   1.00
N984   N     0.95239   0.16665   0.75001   0.00000  Uiso   1.00
O985   O     0.79512   0.22775   0.75001   0.00000  Uiso   1.00
O986   O     0.87157   0.22774   0.75001   0.00000  Uiso   1.00
O987   O     0.77613   0.16666   0.82681   0.00000  Uiso   1.00
O988   O     0.85258   0.16665   0.82681   0.00000  Uiso   1.00
O989   O     0.79510   0.10559   0.75000   0.00000  Uiso   1.00
O990   O     0.87154   0.10558   0.75000   0.00000  Uiso   1.00
O991   O     0.81409   0.16668   0.67319   0.00000  Uiso   1.00
O992   O     0.89053   0.16667   0.67319   0.00000  Uiso   1.00
Zn993  Zn    0.78229   0.16667   0.75000   0.00000  Uiso   1.00
Zn994  Zn    0.88438   0.16666   0.75000   0.00000  Uiso   1.00
F995   F     0.95635   0.14484   0.58079   0.00000  Uiso   1.00
F996   F     0.74600   0.03848   0.77227   0.00000  Uiso   1.00
O997   O     0.73613   0.11577   0.68220   0.00000  Uiso   1.00
C998   C     0.72984   0.10368   0.63356   0.00000  Uiso   1.00
H999   H     0.76623   0.10192   0.60272   0.00000  Uiso   1.00
H1000  H     0.71056   0.12671   0.61793   0.00000  Uiso   1.00
C1001  C     0.70603   0.06040   0.63897   0.00000  Uiso   1.00
H1002  H     0.73044   0.03737   0.64648   0.00000  Uiso   1.00
H1003  H     0.67186   0.05937   0.67346   0.00000  Uiso   1.00
C1004  C     0.69533   0.04826   0.58837   0.00000  Uiso   1.00
H1005  H     0.67084   0.07086   0.58027   0.00000  Uiso   1.00
H1006  H     0.67742   0.01719   0.59372   0.00000  Uiso   1.00
H1007  H     0.72929   0.04724   0.55357   0.00000  Uiso   1.00
F1008  F     0.69222   0.21196   0.82377   0.00000  Uiso   1.00
F1009  F     0.93152   0.20891   0.82687   0.00000  Uiso   1.00
F1010  F     0.93847   0.10603   0.90642   0.00000  Uiso   1.00
O1011  O     0.76897   0.22333   0.55606   0.00000  Uiso   1.00
C1012  C     0.72311   0.22003   0.59684   0.00000  Uiso   1.00
H1013  H     0.72881   0.21512   0.63562   0.00000  Uiso   1.00
H1014  H     0.70089   0.19279   0.59202   0.00000  Uiso   1.00
C1015  C     0.69571   0.26038   0.60077   0.00000  Uiso   1.00
H1016  H     0.70664   0.28273   0.62693   0.00000  Uiso   1.00
H1017  H     0.70477   0.27487   0.56068   0.00000  Uiso   1.00
C1018  C     0.97466   0.25254   0.62337   0.00000  Uiso   1.00
H1019  H     0.96280   0.23221   0.59597   0.00000  Uiso   1.00
H1020  H     0.95588   0.28240   0.62732   0.00000  Uiso   1.00
H1021  H     0.96460   0.23741   0.66316   0.00000  Uiso   1.00
O1022  O     0.92207   0.29639   0.73068   0.00000  Uiso   1.00
C1023  C     0.93349   0.29466   0.77832   0.00000  Uiso   1.00
H1024  H     0.96167   0.27115   0.77146   0.00000  Uiso   1.00
H1025  H     0.90208   0.28424   0.81337   0.00000  Uiso   1.00
C1026  C     0.95498   0.00241   0.79081   0.00000  Uiso   1.00
H1027  H     0.98485   0.01322   0.75479   0.00000  Uiso   1.00
H1028  H     0.92699   0.02639   0.80265   0.00000  Uiso   1.00
C1029  C     0.97420   0.33060   0.83700   0.00000  Uiso   1.00
H1030  H     0.94478   0.31995   0.87352   0.00000  Uiso   1.00
H1031  H     0.98878   0.02748   0.84582   0.00000  Uiso   1.00
H1032  H     0.67013   0.30770   0.82641   0.00000  Uiso   1.00
C1033  C     0.16710   0.58016   0.75058   0.00000  Uiso   1.00
C1034  C     0.14750   0.50596   0.98878   0.00000  Uiso   1.00
C1035  C     0.15473   0.48864   0.93761   0.00000  Uiso   1.00
C1036  C     0.18332   0.49848   0.51245   0.00000  Uiso   1.00
C1037  C     0.22729   0.47926   0.98288   0.00000  Uiso   1.00
C1038  C     0.23217   0.46123   0.93362   0.00000  Uiso   1.00
C1039  C     0.19475   0.46326   0.91345   0.00000  Uiso   1.00
C1040  C     0.17470   0.50560   0.56634   0.00000  Uiso   1.00
C1041  C     0.25517   0.48512   0.55877   0.00000  Uiso   1.00
C1042  C     0.12312   0.49854   0.91008   0.00000  Uiso   1.00
C1043  C     0.21109   0.64767   0.74095   0.00000  Uiso   1.00
C1044  C     0.14004   0.49790   0.85181   0.00000  Uiso   1.00
C1045  C     0.20993   0.35646   0.73559   0.00000  Uiso   1.00
C1046  C     0.16593   0.37600   0.74785   0.00000  Uiso   1.00
C1047  C     0.12255   0.35331   0.76067   0.00000  Uiso   1.00
C1048  C     0.12364   0.64423   0.76180   0.00000  Uiso   1.00
C1049  C     0.16769   0.62449   0.75154   0.00000  Uiso   1.00
C1050  C     0.31944   0.47659   0.71388   0.00000  Uiso   1.00
C1051  C     0.03482   0.47591   0.71382   0.00000  Uiso   1.00
C1052  C     0.01342   0.52258   0.78683   0.00000  Uiso   1.00
C1053  C     0.29864   0.52177   0.78760   0.00000  Uiso   1.00
C1054  C     0.16636   0.42001   0.74910   0.00000  Uiso   1.00
C1055  C     0.19328   0.50010   0.64808   0.00000  Uiso   1.00
C1056  C     0.26387   0.47503   0.50529   0.00000  Uiso   1.00
C1057  C     0.20932   0.49833   0.58998   0.00000  Uiso   1.00
C1058  C     0.07970   0.51772   0.93665   0.00000  Uiso   1.00
C1059  C     0.07110   0.53360   0.98733   0.00000  Uiso   1.00
C1060  C     0.10552   0.53045   0.51307   0.00000  Uiso   1.00
H1061  H     0.24375   0.37396   0.72319   0.00000  Uiso   1.00
H1062  H     0.08986   0.62693   0.77102   0.00000  Uiso   1.00
H1063  H     0.30759   0.45793   0.68655   0.00000  Uiso   1.00
H1064  H     0.29815   0.46179   0.98245   0.00000  Uiso   1.00
H1065  H     0.13898   0.51232   0.59202   0.00000  Uiso   1.00
H1066  H     0.05457   0.52455   0.91619   0.00000  Uiso   1.00
H1067  H     0.03920   0.55177   0.50433   0.00000  Uiso   1.00
H1068  H     0.19808   0.44546   0.87768   0.00000  Uiso   1.00
N1069  N     0.04760   0.50001   0.75002   0.00000  Uiso   1.00
N1070  N     0.28573   0.49998   0.75001   0.00000  Uiso   1.00
O1071  O     0.12846   0.56108   0.75001   0.00000  Uiso   1.00
O1072  O     0.20490   0.56107   0.75001   0.00000  Uiso   1.00
O1073  O     0.10947   0.50000   0.82681   0.00000  Uiso   1.00
O1074  O     0.18591   0.49999   0.82681   0.00000  Uiso   1.00
O1075  O     0.12843   0.43893   0.75000   0.00000  Uiso   1.00
O1076  O     0.20488   0.43892   0.75000   0.00000  Uiso   1.00
O1077  O     0.14742   0.50001   0.67319   0.00000  Uiso   1.00
O1078  O     0.22387   0.50000   0.67319   0.00000  Uiso   1.00
Zn1079 Zn    0.11562   0.50001   0.75000   0.00000  Uiso   1.00
Zn1080 Zn    0.21771   0.49999   0.75000   0.00000  Uiso   1.00
F1081  F     0.28968   0.47818   0.58079   0.00000  Uiso   1.00
F1082  F     0.07933   0.37181   0.77227   0.00000  Uiso   1.00
O1083  O     0.06946   0.44910   0.68220   0.00000  Uiso   1.00
C1084  C     0.06317   0.43702   0.63356   0.00000  Uiso   1.00
H1085  H     0.09957   0.43526   0.60272   0.00000  Uiso   1.00
H1086  H     0.04389   0.46004   0.61793   0.00000  Uiso   1.00
C1087  C     0.03937   0.39373   0.63897   0.00000  Uiso   1.00
H1088  H     0.06378   0.37070   0.64648   0.00000  Uiso   1.00
H1089  H     0.00520   0.39270   0.67346   0.00000  Uiso   1.00
C1090  C     0.02867   0.38160   0.58837   0.00000  Uiso   1.00
H1091  H     0.00417   0.40420   0.58027   0.00000  Uiso   1.00
H1092  H     0.01075   0.35052   0.59372   0.00000  Uiso   1.00
H1093  H     0.06263   0.38057   0.55357   0.00000  Uiso   1.00
F1094  F     0.02555   0.54529   0.82377   0.00000  Uiso   1.00
F1095  F     0.26485   0.54224   0.82687   0.00000  Uiso   1.00
F1096  F     0.27180   0.43937   0.90642   0.00000  Uiso   1.00
O1097  O     0.10230   0.55666   0.55606   0.00000  Uiso   1.00
C1098  C     0.05645   0.55336   0.59684   0.00000  Uiso   1.00
H1099  H     0.06214   0.54845   0.63562   0.00000  Uiso   1.00
H1100  H     0.03422   0.52612   0.59202   0.00000  Uiso   1.00
C1101  C     0.02904   0.59371   0.60077   0.00000  Uiso   1.00
H1102  H     0.03998   0.61606   0.62693   0.00000  Uiso   1.00
H1103  H     0.03810   0.60820   0.56068   0.00000  Uiso   1.00
C1104  C     0.30799   0.58587   0.62337   0.00000  Uiso   1.00
H1105  H     0.29613   0.56554   0.59597   0.00000  Uiso   1.00
H1106  H     0.28921   0.61573   0.62732   0.00000  Uiso   1.00
H1107  H     0.29793   0.57074   0.66316   0.00000  Uiso   1.00
O1108  O     0.25540   0.62973   0.73068   0.00000  Uiso   1.00
C1109  C     0.26682   0.62799   0.77832   0.00000  Uiso   1.00
H1110  H     0.29500   0.60448   0.77146   0.00000  Uiso   1.00
H1111  H     0.23542   0.61757   0.81337   0.00000  Uiso   1.00
C1112  C     0.28832   0.33574   0.79081   0.00000  Uiso   1.00
H1113  H     0.31819   0.34656   0.75479   0.00000  Uiso   1.00
H1114  H     0.26032   0.35972   0.80265   0.00000  Uiso   1.00
C1115  C     0.30754   0.66393   0.83700   0.00000  Uiso   1.00
H1116  H     0.27811   0.65328   0.87352   0.00000  Uiso   1.00
H1117  H     0.32212   0.36081   0.84582   0.00000  Uiso   1.00
H1118  H     0.00346   0.64104   0.82641   0.00000  Uiso   1.00
C1119  C     0.50043   0.58016   0.75058   0.00000  Uiso   1.00
C1120  C     0.48084   0.50596   0.98878   0.00000  Uiso   1.00
C1121  C     0.48806   0.48864   0.93761   0.00000  Uiso   1.00
C1122  C     0.51666   0.49848   0.51245   0.00000  Uiso   1.00
C1123  C     0.56062   0.47926   0.98288   0.00000  Uiso   1.00
C1124  C     0.56550   0.46123   0.93362   0.00000  Uiso   1.00
C1125  C     0.52808   0.46326   0.91345   0.00000  Uiso   1.00
C1126  C     0.50804   0.50560   0.56634   0.00000  Uiso   1.00
C1127  C     0.58851   0.48512   0.55877   0.00000  Uiso   1.00
C1128  C     0.45645   0.49854   0.91008   0.00000  Uiso   1.00
C1129  C     0.54442   0.64767   0.74095   0.00000  Uiso   1.00
C1130  C     0.47337   0.49790   0.85181   0.00000  Uiso   1.00
C1131  C     0.54326   0.35646   0.73559   0.00000  Uiso   1.00
C1132  C     0.49926   0.37600   0.74785   0.00000  Uiso   1.00
C1133  C     0.45588   0.35331   0.76067   0.00000  Uiso   1.00
C1134  C     0.45698   0.64423   0.76180   0.00000  Uiso   1.00
C1135  C     0.50102   0.62449   0.75154   0.00000  Uiso   1.00
C1136  C     0.65277   0.47659   0.71388   0.00000  Uiso   1.00
C1137  C     0.36816   0.47591   0.71382   0.00000  Uiso   1.00
C1138  C     0.34676   0.52258   0.78683   0.00000  Uiso   1.00
C1139  C     0.63197   0.52177   0.78760   0.00000  Uiso   1.00
C1140  C     0.49969   0.42001   0.74910   0.00000  Uiso   1.00
C1141  C     0.52661   0.50010   0.64808   0.00000  Uiso   1.00
C1142  C     0.59720   0.47503   0.50529   0.00000  Uiso   1.00
C1143  C     0.54265   0.49833   0.58998   0.00000  Uiso   1.00
C1144  C     0.41303   0.51772   0.93665   0.00000  Uiso   1.00
C1145  C     0.40443   0.53360   0.98733   0.00000  Uiso   1.00
C1146  C     0.43886   0.53045   0.51307   0.00000  Uiso   1.00
H1147  H     0.57708   0.37396   0.72319   0.00000  Uiso   1.00
H1148  H     0.42319   0.62693   0.77102   0.00000  Uiso   1.00
H1149  H     0.64093   0.45793   0.68655   0.00000  Uiso   1.00
H1150  H     0.63148   0.46179   0.98245   0.00000  Uiso   1.00
H1151  H     0.47232   0.51232   0.59202   0.00000  Uiso   1.00
H1152  H     0.38791   0.52455   0.91619   0.00000  Uiso   1.00
H1153  H     0.37253   0.55177   0.50433   0.00000  Uiso   1.00
H1154  H     0.53141   0.44546   0.87768   0.00000  Uiso   1.00
N1155  N     0.38093   0.50001   0.75002   0.00000  Uiso   1.00
N1156  N     0.61906   0.49998   0.75001   0.00000  Uiso   1.00
O1157  O     0.46179   0.56108   0.75001   0.00000  Uiso   1.00
O1158  O     0.53823   0.56107   0.75001   0.00000  Uiso   1.00
O1159  O     0.44280   0.50000   0.82681   0.00000  Uiso   1.00
O1160  O     0.51924   0.49999   0.82681   0.00000  Uiso   1.00
O1161  O     0.46177   0.43893   0.75000   0.00000  Uiso   1.00
O1162  O     0.53821   0.43892   0.75000   0.00000  Uiso   1.00
O1163  O     0.48076   0.50001   0.67319   0.00000  Uiso   1.00
O1164  O     0.55720   0.50000   0.67319   0.00000  Uiso   1.00
Zn1165 Zn    0.44896   0.50001   0.75000   0.00000  Uiso   1.00
Zn1166 Zn    0.55104   0.49999   0.75000   0.00000  Uiso   1.00
F1167  F     0.62302   0.47818   0.58079   0.00000  Uiso   1.00
F1168  F     0.41266   0.37181   0.77227   0.00000  Uiso   1.00
O1169  O     0.40279   0.44910   0.68220   0.00000  Uiso   1.00
C1170  C     0.39650   0.43702   0.63356   0.00000  Uiso   1.00
H1171  H     0.43290   0.43526   0.60272   0.00000  Uiso   1.00
H1172  H     0.37723   0.46004   0.61793   0.00000  Uiso   1.00
C1173  C     0.37270   0.39373   0.63897   0.00000  Uiso   1.00
H1174  H     0.39711   0.37070   0.64648   0.00000  Uiso   1.00
H1175  H     0.33853   0.39270   0.67346   0.00000  Uiso   1.00
C1176  C     0.36200   0.38160   0.58837   0.00000  Uiso   1.00
H1177  H     0.33750   0.40420   0.58027   0.00000  Uiso   1.00
H1178  H     0.34409   0.35052   0.59372   0.00000  Uiso   1.00
H1179  H     0.39596   0.38057   0.55357   0.00000  Uiso   1.00
F1180  F     0.35889   0.54529   0.82377   0.00000  Uiso   1.00
F1181  F     0.59819   0.54224   0.82687   0.00000  Uiso   1.00
F1182  F     0.60513   0.43937   0.90642   0.00000  Uiso   1.00
O1183  O     0.43564   0.55666   0.55606   0.00000  Uiso   1.00
C1184  C     0.38978   0.55336   0.59684   0.00000  Uiso   1.00
H1185  H     0.39548   0.54845   0.63562   0.00000  Uiso   1.00
H1186  H     0.36756   0.52612   0.59202   0.00000  Uiso   1.00
C1187  C     0.36238   0.59371   0.60077   0.00000  Uiso   1.00
H1188  H     0.37331   0.61606   0.62693   0.00000  Uiso   1.00
H1189  H     0.37144   0.60820   0.56068   0.00000  Uiso   1.00
C1190  C     0.64133   0.58587   0.62337   0.00000  Uiso   1.00
H1191  H     0.62946   0.56554   0.59597   0.00000  Uiso   1.00
H1192  H     0.62254   0.61573   0.62732   0.00000  Uiso   1.00
H1193  H     0.63127   0.57074   0.66316   0.00000  Uiso   1.00
O1194  O     0.58873   0.62973   0.73068   0.00000  Uiso   1.00
C1195  C     0.60016   0.62799   0.77832   0.00000  Uiso   1.00
H1196  H     0.62834   0.60448   0.77146   0.00000  Uiso   1.00
H1197  H     0.56875   0.61757   0.81337   0.00000  Uiso   1.00
C1198  C     0.62165   0.33574   0.79081   0.00000  Uiso   1.00
H1199  H     0.65152   0.34656   0.75479   0.00000  Uiso   1.00
H1200  H     0.59365   0.35972   0.80265   0.00000  Uiso   1.00
C1201  C     0.64087   0.66393   0.83700   0.00000  Uiso   1.00
H1202  H     0.61145   0.65328   0.87352   0.00000  Uiso   1.00
H1203  H     0.65545   0.36081   0.84582   0.00000  Uiso   1.00
H1204  H     0.33680   0.64104   0.82641   0.00000  Uiso   1.00
C1205  C     0.83377   0.58016   0.75058   0.00000  Uiso   1.00
C1206  C     0.81417   0.50596   0.98878   0.00000  Uiso   1.00
C1207  C     0.82139   0.48864   0.93761   0.00000  Uiso   1.00
C1208  C     0.84999   0.49848   0.51245   0.00000  Uiso   1.00
C1209  C     0.89395   0.47926   0.98288   0.00000  Uiso   1.00
C1210  C     0.89883   0.46123   0.93362   0.00000  Uiso   1.00
C1211  C     0.86142   0.46326   0.91345   0.00000  Uiso   1.00
C1212  C     0.84137   0.50560   0.56634   0.00000  Uiso   1.00
C1213  C     0.92184   0.48512   0.55877   0.00000  Uiso   1.00
C1214  C     0.78978   0.49854   0.91008   0.00000  Uiso   1.00
C1215  C     0.87775   0.64767   0.74095   0.00000  Uiso   1.00
C1216  C     0.80671   0.49790   0.85181   0.00000  Uiso   1.00
C1217  C     0.87660   0.35646   0.73559   0.00000  Uiso   1.00
C1218  C     0.83260   0.37600   0.74785   0.00000  Uiso   1.00
C1219  C     0.78921   0.35331   0.76067   0.00000  Uiso   1.00
C1220  C     0.79031   0.64423   0.76180   0.00000  Uiso   1.00
C1221  C     0.83435   0.62449   0.75154   0.00000  Uiso   1.00
C1222  C     0.98611   0.47659   0.71388   0.00000  Uiso   1.00
C1223  C     0.70149   0.47591   0.71382   0.00000  Uiso   1.00
C1224  C     0.68009   0.52258   0.78683   0.00000  Uiso   1.00
C1225  C     0.96531   0.52177   0.78760   0.00000  Uiso   1.00
C1226  C     0.83303   0.42001   0.74910   0.00000  Uiso   1.00
C1227  C     0.85994   0.50010   0.64808   0.00000  Uiso   1.00
C1228  C     0.93054   0.47503   0.50529   0.00000  Uiso   1.00
C1229  C     0.87599   0.49833   0.58998   0.00000  Uiso   1.00
C1230  C     0.74636   0.51772   0.93665   0.00000  Uiso   1.00
C1231  C     0.73777   0.53360   0.98733   0.00000  Uiso   1.00
C1232  C     0.77219   0.53045   0.51307   0.00000  Uiso   1.00
H1233  H     0.91041   0.37396   0.72319   0.00000  Uiso   1.00
H1234  H     0.75653   0.62693   0.77102   0.00000  Uiso   1.00
H1235  H     0.97426   0.45793   0.68655   0.00000  Uiso   1.00
H1236  H     0.96481   0.46179   0.98245   0.00000  Uiso   1.00
H1237  H     0.80565   0.51232   0.59202   0.00000  Uiso   1.00
H1238  H     0.72124   0.52455   0.91619   0.00000  Uiso   1.00
H1239  H     0.70586   0.55177   0.50433   0.00000  Uiso   1.00
H1240  H     0.86475   0.44546   0.87768   0.00000  Uiso   1.00
N1241  N     0.71426   0.50001   0.75002   0.00000  Uiso   1.00
N1242  N     0.95239   0.49998   0.75001   0.00000  Uiso   1.00
O1243  O     0.79512   0.56108   0.75001   0.00000  Uiso   1.00
O1244  O     0.87157   0.56107   0.75001   0.00000  Uiso   1.00
O1245  O     0.77613   0.50000   0.82681   0.00000  Uiso   1.00
O1246  O     0.85258   0.49999   0.82681   0.00000  Uiso   1.00
O1247  O     0.79510   0.43893   0.75000   0.00000  Uiso   1.00
O1248  O     0.87154   0.43892   0.75000   0.00000  Uiso   1.00
O1249  O     0.81409   0.50001   0.67319   0.00000  Uiso   1.00
O1250  O     0.89053   0.50000   0.67319   0.00000  Uiso   1.00
Zn1251 Zn    0.78229   0.50001   0.75000   0.00000  Uiso   1.00
Zn1252 Zn    0.88438   0.49999   0.75000   0.00000  Uiso   1.00
F1253  F     0.95635   0.47818   0.58079   0.00000  Uiso   1.00
F1254  F     0.74600   0.37181   0.77227   0.00000  Uiso   1.00
O1255  O     0.73613   0.44910   0.68220   0.00000  Uiso   1.00
C1256  C     0.72984   0.43702   0.63356   0.00000  Uiso   1.00
H1257  H     0.76623   0.43526   0.60272   0.00000  Uiso   1.00
H1258  H     0.71056   0.46004   0.61793   0.00000  Uiso   1.00
C1259  C     0.70603   0.39373   0.63897   0.00000  Uiso   1.00
H1260  H     0.73044   0.37070   0.64648   0.00000  Uiso   1.00
H1261  H     0.67186   0.39270   0.67346   0.00000  Uiso   1.00
C1262  C     0.69533   0.38160   0.58837   0.00000  Uiso   1.00
H1263  H     0.67084   0.40420   0.58027   0.00000  Uiso   1.00
H1264  H     0.67742   0.35052   0.59372   0.00000  Uiso   1.00
H1265  H     0.72929   0.38057   0.55357   0.00000  Uiso   1.00
F1266  F     0.69222   0.54529   0.82377   0.00000  Uiso   1.00
F1267  F     0.93152   0.54224   0.82687   0.00000  Uiso   1.00
F1268  F     0.93847   0.43937   0.90642   0.00000  Uiso   1.00
O1269  O     0.76897   0.55666   0.55606   0.00000  Uiso   1.00
C1270  C     0.72311   0.55336   0.59684   0.00000  Uiso   1.00
H1271  H     0.72881   0.54845   0.63562   0.00000  Uiso   1.00
H1272  H     0.70089   0.52612   0.59202   0.00000  Uiso   1.00
C1273  C     0.69571   0.59371   0.60077   0.00000  Uiso   1.00
H1274  H     0.70664   0.61606   0.62693   0.00000  Uiso   1.00
H1275  H     0.70477   0.60820   0.56068   0.00000  Uiso   1.00
C1276  C     0.97466   0.58587   0.62337   0.00000  Uiso   1.00
H1277  H     0.96280   0.56554   0.59597   0.00000  Uiso   1.00
H1278  H     0.95588   0.61573   0.62732   0.00000  Uiso   1.00
H1279  H     0.96460   0.57074   0.66316   0.00000  Uiso   1.00
O1280  O     0.92207   0.62973   0.73068   0.00000  Uiso   1.00
C1281  C     0.93349   0.62799   0.77832   0.00000  Uiso   1.00
H1282  H     0.96167   0.60448   0.77146   0.00000  Uiso   1.00
H1283  H     0.90208   0.61757   0.81337   0.00000  Uiso   1.00
C1284  C     0.95498   0.33574   0.79081   0.00000  Uiso   1.00
H1285  H     0.98485   0.34656   0.75479   0.00000  Uiso   1.00
H1286  H     0.92699   0.35972   0.80265   0.00000  Uiso   1.00
C1287  C     0.97420   0.66393   0.83700   0.00000  Uiso   1.00
H1288  H     0.94478   0.65328   0.87352   0.00000  Uiso   1.00
H1289  H     0.98878   0.36081   0.84582   0.00000  Uiso   1.00
H1290  H     0.67013   0.64104   0.82641   0.00000  Uiso   1.00
C1291  C     0.16710   0.91349   0.75058   0.00000  Uiso   1.00
C1292  C     0.14750   0.83929   0.98878   0.00000  Uiso   1.00
C1293  C     0.15473   0.82197   0.93761   0.00000  Uiso   1.00
C1294  C     0.18332   0.83181   0.51245   0.00000  Uiso   1.00
C1295  C     0.22729   0.81259   0.98288   0.00000  Uiso   1.00
C1296  C     0.23217   0.79457   0.93362   0.00000  Uiso   1.00
C1297  C     0.19475   0.79660   0.91345   0.00000  Uiso   1.00
C1298  C     0.17470   0.83893   0.56634   0.00000  Uiso   1.00
C1299  C     0.25517   0.81845   0.55877   0.00000  Uiso   1.00
C1300  C     0.12312   0.83187   0.91008   0.00000  Uiso   1.00
C1301  C     0.21109   0.98100   0.74095   0.00000  Uiso   1.00
C1302  C     0.14004   0.83123   0.85181   0.00000  Uiso   1.00
C1303  C     0.20993   0.68980   0.73559   0.00000  Uiso   1.00
C1304  C     0.16593   0.70933   0.74785   0.00000  Uiso   1.00
C1305  C     0.12255   0.68664   0.76067   0.00000  Uiso   1.00
C1306  C     0.12364   0.97756   0.76180   0.00000  Uiso   1.00
C1307  C     0.16769   0.95783   0.75154   0.00000  Uiso   1.00
C1308  C     0.31944   0.80993   0.71388   0.00000  Uiso   1.00
C1309  C     0.03482   0.80924   0.71382   0.00000  Uiso   1.00
C1310  C     0.01342   0.85592   0.78683   0.00000  Uiso   1.00
C1311  C     0.29864   0.85510   0.78760   0.00000  Uiso   1.00
C1312  C     0.16636   0.75334   0.74910   0.00000  Uiso   1.00
C1313  C     0.19328   0.83343   0.64808   0.00000  Uiso   1.00
C1314  C     0.26387   0.80836   0.50529   0.00000  Uiso   1.00
C1315  C     0.20932   0.83166   0.58998   0.00000  Uiso   1.00
C1316  C     0.07970   0.85105   0.93665   0.00000  Uiso   1.00
C1317  C     0.07110   0.86694   0.98733   0.00000  Uiso   1.00
C1318  C     0.10552   0.86378   0.51307   0.00000  Uiso   1.00
H1319  H     0.24375   0.70730   0.72319   0.00000  Uiso   1.00
H1320  H     0.08986   0.96027   0.77102   0.00000  Uiso   1.00
H1321  H     0.30759   0.79126   0.68655   0.00000  Uiso   1.00
H1322  H     0.29815   0.79512   0.98245   0.00000  Uiso   1.00
H1323  H     0.13898   0.84565   0.59202   0.00000  Uiso   1.00
H1324  H     0.05457   0.85788   0.91619   0.00000  Uiso   1.00
H1325  H     0.03920   0.88510   0.50433   0.00000  Uiso   1.00
H1326  H     0.19808   0.77879   0.87768   0.00000  Uiso   1.00
N1327  N     0.04760   0.83334   0.75002   0.00000  Uiso   1.00
N1328  N     0.28573   0.83331   0.75001   0.00000  Uiso   1.00
O1329  O     0.12846   0.89442   0.75001   0.00000  Uiso   1.00
O1330  O     0.20490   0.89441   0.75001   0.00000  Uiso   1.00
O1331  O     0.10947   0.83333   0.82681   0.00000  Uiso   1.00
O1332  O     0.18591   0.83332   0.82681   0.00000  Uiso   1.00
O1333  O     0.12843   0.77226   0.75000   0.00000  Uiso   1.00
O1334  O     0.20488   0.77225   0.75000   0.00000  Uiso   1.00
O1335  O     0.14742   0.83335   0.67319   0.00000  Uiso   1.00
O1336  O     0.22387   0.83334   0.67319   0.00000  Uiso   1.00
Zn1337 Zn    0.11562   0.83334   0.75000   0.00000  Uiso   1.00
Zn1338 Zn    0.21771   0.83333   0.75000   0.00000  Uiso   1.00
F1339  F     0.28968   0.81151   0.58079   0.00000  Uiso   1.00
F1340  F     0.07933   0.70514   0.77227   0.00000  Uiso   1.00
O1341  O     0.06946   0.78243   0.68220   0.00000  Uiso   1.00
C1342  C     0.06317   0.77035   0.63356   0.00000  Uiso   1.00
H1343  H     0.09957   0.76859   0.60272   0.00000  Uiso   1.00
H1344  H     0.04389   0.79337   0.61793   0.00000  Uiso   1.00
C1345  C     0.03937   0.72706   0.63897   0.00000  Uiso   1.00
H1346  H     0.06378   0.70403   0.64648   0.00000  Uiso   1.00
H1347  H     0.00520   0.72604   0.67346   0.00000  Uiso   1.00
C1348  C     0.02867   0.71493   0.58837   0.00000  Uiso   1.00
H1349  H     0.00417   0.73753   0.58027   0.00000  Uiso   1.00
H1350  H     0.01075   0.68386   0.59372   0.00000  Uiso   1.00
H1351  H     0.06263   0.71390   0.55357   0.00000  Uiso   1.00
F1352  F     0.02555   0.87863   0.82377   0.00000  Uiso   1.00
F1353  F     0.26485   0.87558   0.82687   0.00000  Uiso   1.00
F1354  F     0.27180   0.77270   0.90642   0.00000  Uiso   1.00
O1355  O     0.10230   0.88999   0.55606   0.00000  Uiso   1.00
C1356  C     0.05645   0.88670   0.59684   0.00000  Uiso   1.00
H1357  H     0.06214   0.88178   0.63562   0.00000  Uiso   1.00
H1358  H     0.03422   0.85946   0.59202   0.00000  Uiso   1.00
C1359  C     0.02904   0.92704   0.60077   0.00000  Uiso   1.00
H1360  H     0.03998   0.94939   0.62693   0.00000  Uiso   1.00
H1361  H     0.03810   0.94153   0.56068   0.00000  Uiso   1.00
C1362  C     0.30799   0.91920   0.62337   0.00000  Uiso   1.00
H1363  H     0.29613   0.89887   0.59597   0.00000  Uiso   1.00
H1364  H     0.28921   0.94907   0.62732   0.00000  Uiso   1.00
H1365  H     0.29793   0.90408   0.66316   0.00000  Uiso   1.00
O1366  O     0.25540   0.96306   0.73068   0.00000  Uiso   1.00
C1367  C     0.26682   0.96133   0.77832   0.00000  Uiso   1.00
H1368  H     0.29500   0.93782   0.77146   0.00000  Uiso   1.00
H1369  H     0.23542   0.95090   0.81337   0.00000  Uiso   1.00
C1370  C     0.28832   0.66908   0.79081   0.00000  Uiso   1.00
H1371  H     0.31819   0.67989   0.75479   0.00000  Uiso   1.00
H1372  H     0.26032   0.69306   0.80265   0.00000  Uiso   1.00
C1373  C     0.30754   0.99726   0.83700   0.00000  Uiso   1.00
H1374  H     0.27811   0.98662   0.87352   0.00000  Uiso   1.00
H1375  H     0.32212   0.69415   0.84582   0.00000  Uiso   1.00
H1376  H     0.00346   0.97437   0.82641   0.00000  Uiso   1.00
C1377  C     0.50043   0.91349   0.75058   0.00000  Uiso   1.00
C1378  C     0.48084   0.83929   0.98878   0.00000  Uiso   1.00
C1379  C     0.48806   0.82197   0.93761   0.00000  Uiso   1.00
C1380  C     0.51666   0.83181   0.51245   0.00000  Uiso   1.00
C1381  C     0.56062   0.81259   0.98288   0.00000  Uiso   1.00
C1382  C     0.56550   0.79457   0.93362   0.00000  Uiso   1.00
C1383  C     0.52808   0.79660   0.91345   0.00000  Uiso   1.00
C1384  C     0.50804   0.83893   0.56634   0.00000  Uiso   1.00
C1385  C     0.58851   0.81845   0.55877   0.00000  Uiso   1.00
C1386  C     0.45645   0.83187   0.91008   0.00000  Uiso   1.00
C1387  C     0.54442   0.98100   0.74095   0.00000  Uiso   1.00
C1388  C     0.47337   0.83123   0.85181   0.00000  Uiso   1.00
C1389  C     0.54326   0.68980   0.73559   0.00000  Uiso   1.00
C1390  C     0.49926   0.70933   0.74785   0.00000  Uiso   1.00
C1391  C     0.45588   0.68664   0.76067   0.00000  Uiso   1.00
C1392  C     0.45698   0.97756   0.76180   0.00000  Uiso   1.00
C1393  C     0.50102   0.95783   0.75154   0.00000  Uiso   1.00
C1394  C     0.65277   0.80993   0.71388   0.00000  Uiso   1.00
C1395  C     0.36816   0.80924   0.71382   0.00000  Uiso   1.00
C1396  C     0.34676   0.85592   0.78683   0.00000  Uiso   1.00
C1397  C     0.63197   0.85510   0.78760   0.00000  Uiso   1.00
C1398  C     0.49969   0.75334   0.74910   0.00000  Uiso   1.00
C1399  C     0.52661   0.83343   0.64808   0.00000  Uiso   1.00
C1400  C     0.59720   0.80836   0.50529   0.00000  Uiso   1.00
C1401  C     0.54265   0.83166   0.58998   0.00000  Uiso   1.00
C1402  C     0.41303   0.85105   0.93665   0.00000  Uiso   1.00
C1403  C     0.40443   0.86694   0.98733   0.00000  Uiso   1.00
C1404  C     0.43886   0.86378   0.51307   0.00000  Uiso   1.00
H1405  H     0.57708   0.70730   0.72319   0.00000  Uiso   1.00
H1406  H     0.42319   0.96027   0.77102   0.00000  Uiso   1.00
H1407  H     0.64093   0.79126   0.68655   0.00000  Uiso   1.00
H1408  H     0.63148   0.79512   0.98245   0.00000  Uiso   1.00
H1409  H     0.47232   0.84565   0.59202   0.00000  Uiso   1.00
H1410  H     0.38791   0.85788   0.91619   0.00000  Uiso   1.00
H1411  H     0.37253   0.88510   0.50433   0.00000  Uiso   1.00
H1412  H     0.53141   0.77879   0.87768   0.00000  Uiso   1.00
N1413  N     0.38093   0.83334   0.75002   0.00000  Uiso   1.00
N1414  N     0.61906   0.83331   0.75001   0.00000  Uiso   1.00
O1415  O     0.46179   0.89442   0.75001   0.00000  Uiso   1.00
O1416  O     0.53823   0.89441   0.75001   0.00000  Uiso   1.00
O1417  O     0.44280   0.83333   0.82681   0.00000  Uiso   1.00
O1418  O     0.51924   0.83332   0.82681   0.00000  Uiso   1.00
O1419  O     0.46177   0.77226   0.75000   0.00000  Uiso   1.00
O1420  O     0.53821   0.77225   0.75000   0.00000  Uiso   1.00
O1421  O     0.48076   0.83335   0.67319   0.00000  Uiso   1.00
O1422  O     0.55720   0.83334   0.67319   0.00000  Uiso   1.00
Zn1423 Zn    0.44896   0.83334   0.75000   0.00000  Uiso   1.00
Zn1424 Zn    0.55104   0.83333   0.75000   0.00000  Uiso   1.00
F1425  F     0.62302   0.81151   0.58079   0.00000  Uiso   1.00
F1426  F     0.41266   0.70514   0.77227   0.00000  Uiso   1.00
O1427  O     0.40279   0.78243   0.68220   0.00000  Uiso   1.00
C1428  C     0.39650   0.77035   0.63356   0.00000  Uiso   1.00
H1429  H     0.43290   0.76859   0.60272   0.00000  Uiso   1.00
H1430  H     0.37723   0.79337   0.61793   0.00000  Uiso   1.00
C1431  C     0.37270   0.72706   0.63897   0.00000  Uiso   1.00
H1432  H     0.39711   0.70403   0.64648   0.00000  Uiso   1.00
H1433  H     0.33853   0.72604   0.67346   0.00000  Uiso   1.00
C1434  C     0.36200   0.71493   0.58837   0.00000  Uiso   1.00
H1435  H     0.33750   0.73753   0.58027   0.00000  Uiso   1.00
H1436  H     0.34409   0.68386   0.59372   0.00000  Uiso   1.00
H1437  H     0.39596   0.71390   0.55357   0.00000  Uiso   1.00
F1438  F     0.35889   0.87863   0.82377   0.00000  Uiso   1.00
F1439  F     0.59819   0.87558   0.82687   0.00000  Uiso   1.00
F1440  F     0.60513   0.77270   0.90642   0.00000  Uiso   1.00
O1441  O     0.43564   0.88999   0.55606   0.00000  Uiso   1.00
C1442  C     0.38978   0.88670   0.59684   0.00000  Uiso   1.00
H1443  H     0.39548   0.88178   0.63562   0.00000  Uiso   1.00
H1444  H     0.36756   0.85946   0.59202   0.00000  Uiso   1.00
C1445  C     0.36238   0.92704   0.60077   0.00000  Uiso   1.00
H1446  H     0.37331   0.94939   0.62693   0.00000  Uiso   1.00
H1447  H     0.37144   0.94153   0.56068   0.00000  Uiso   1.00
C1448  C     0.64133   0.91920   0.62337   0.00000  Uiso   1.00
H1449  H     0.62946   0.89887   0.59597   0.00000  Uiso   1.00
H1450  H     0.62254   0.94907   0.62732   0.00000  Uiso   1.00
H1451  H     0.63127   0.90408   0.66316   0.00000  Uiso   1.00
O1452  O     0.58873   0.96306   0.73068   0.00000  Uiso   1.00
C1453  C     0.60016   0.96133   0.77832   0.00000  Uiso   1.00
H1454  H     0.62834   0.93782   0.77146   0.00000  Uiso   1.00
H1455  H     0.56875   0.95090   0.81337   0.00000  Uiso   1.00
C1456  C     0.62165   0.66908   0.79081   0.00000  Uiso   1.00
H1457  H     0.65152   0.67989   0.75479   0.00000  Uiso   1.00
H1458  H     0.59365   0.69306   0.80265   0.00000  Uiso   1.00
C1459  C     0.64087   0.99726   0.83700   0.00000  Uiso   1.00
H1460  H     0.61145   0.98662   0.87352   0.00000  Uiso   1.00
H1461  H     0.65545   0.69415   0.84582   0.00000  Uiso   1.00
H1462  H     0.33680   0.97437   0.82641   0.00000  Uiso   1.00
C1463  C     0.83377   0.91349   0.75058   0.00000  Uiso   1.00
C1464  C     0.81417   0.83929   0.98878   0.00000  Uiso   1.00
C1465  C     0.82139   0.82197   0.93761   0.00000  Uiso   1.00
C1466  C     0.84999   0.83181   0.51245   0.00000  Uiso   1.00
C1467  C     0.89395   0.81259   0.98288   0.00000  Uiso   1.00
C1468  C     0.89883   0.79457   0.93362   0.00000  Uiso   1.00
C1469  C     0.86142   0.79660   0.91345   0.00000  Uiso   1.00
C1470  C     0.84137   0.83893   0.56634   0.00000  Uiso   1.00
C1471  C     0.92184   0.81845   0.55877   0.00000  Uiso   1.00
C1472  C     0.78978   0.83187   0.91008   0.00000  Uiso   1.00
C1473  C     0.87775   0.98100   0.74095   0.00000  Uiso   1.00
C1474  C     0.80671   0.83123   0.85181   0.00000  Uiso   1.00
C1475  C     0.87660   0.68980   0.73559   0.00000  Uiso   1.00
C1476  C     0.83260   0.70933   0.74785   0.00000  Uiso   1.00
C1477  C     0.78921   0.68664   0.76067   0.00000  Uiso   1.00
C1478  C     0.79031   0.97756   0.76180   0.00000  Uiso   1.00
C1479  C     0.83435   0.95783   0.75154   0.00000  Uiso   1.00
C1480  C     0.98611   0.80993   0.71388   0.00000  Uiso   1.00
C1481  C     0.70149   0.80924   0.71382   0.00000  Uiso   1.00
C1482  C     0.68009   0.85592   0.78683   0.00000  Uiso   1.00
C1483  C     0.96531   0.85510   0.78760   0.00000  Uiso   1.00
C1484  C     0.83303   0.75334   0.74910   0.00000  Uiso   1.00
C1485  C     0.85994   0.83343   0.64808   0.00000  Uiso   1.00
C1486  C     0.93054   0.80836   0.50529   0.00000  Uiso   1.00
C1487  C     0.87599   0.83166   0.58998   0.00000  Uiso   1.00
C1488  C     0.74636   0.85105   0.93665   0.00000  Uiso   1.00
C1489  C     0.73777   0.86694   0.98733   0.00000  Uiso   1.00
C1490  C     0.77219   0.86378   0.51307   0.00000  Uiso   1.00
H1491  H     0.91041   0.70730   0.72319   0.00000  Uiso   1.00
H1492  H     0.75653   0.96027   0.77102   0.00000  Uiso   1.00
H1493  H     0.97426   0.79126   0.68655   0.00000  Uiso   1.00
H1494  H     0.96481   0.79512   0.98245   0.00000  Uiso   1.00
H1495  H     0.80565   0.84565   0.59202   0.00000  Uiso   1.00
H1496  H     0.72124   0.85788   0.91619   0.00000  Uiso   1.00
H1497  H     0.70586   0.88510   0.50433   0.00000  Uiso   1.00
H1498  H     0.86475   0.77879   0.87768   0.00000  Uiso   1.00
N1499  N     0.71426   0.83334   0.75002   0.00000  Uiso   1.00
N1500  N     0.95239   0.83331   0.75001   0.00000  Uiso   1.00
O1501  O     0.79512   0.89442   0.75001   0.00000  Uiso   1.00
O1502  O     0.87157   0.89441   0.75001   0.00000  Uiso   1.00
O1503  O     0.77613   0.83333   0.82681   0.00000  Uiso   1.00
O1504  O     0.85258   0.83332   0.82681   0.00000  Uiso   1.00
O1505  O     0.79510   0.77226   0.75000   0.00000  Uiso   1.00
O1506  O     0.87154   0.77225   0.75000   0.00000  Uiso   1.00
O1507  O     0.81409   0.83335   0.67319   0.00000  Uiso   1.00
O1508  O     0.89053   0.83334   0.67319   0.00000  Uiso   1.00
Zn1509 Zn    0.78229   0.83334   0.75000   0.00000  Uiso   1.00
Zn1510 Zn    0.88438   0.83333   0.75000   0.00000  Uiso   1.00
F1511  F     0.95635   0.81151   0.58079   0.00000  Uiso   1.00
F1512  F     0.74600   0.70514   0.77227   0.00000  Uiso   1.00
O1513  O     0.73613   0.78243   0.68220   0.00000  Uiso   1.00
C1514  C     0.72984   0.77035   0.63356   0.00000  Uiso   1.00
H1515  H     0.76623   0.76859   0.60272   0.00000  Uiso   1.00
H1516  H     0.71056   0.79337   0.61793   0.00000  Uiso   1.00
C1517  C     0.70603   0.72706   0.63897   0.00000  Uiso   1.00
H1518  H     0.73044   0.70403   0.64648   0.00000  Uiso   1.00
H1519  H     0.67186   0.72604   0.67346   0.00000  Uiso   1.00
C1520  C     0.69533   0.71493   0.58837   0.00000  Uiso   1.00
H1521  H     0.67084   0.73753   0.58027   0.00000  Uiso   1.00
H1522  H     0.67742   0.68386   0.59372   0.00000  Uiso   1.00
H1523  H     0.72929   0.71390   0.55357   0.00000  Uiso   1.00
F1524  F     0.69222   0.87863   0.82377   0.00000  Uiso   1.00
F1525  F     0.93152   0.87558   0.82687   0.00000  Uiso   1.00
F1526  F     0.93847   0.77270   0.90642   0.00000  Uiso   1.00
O1527  O     0.76897   0.88999   0.55606   0.00000  Uiso   1.00
C1528  C     0.72311   0.88670   0.59684   0.00000  Uiso   1.00
H1529  H     0.72881   0.88178   0.63562   0.00000  Uiso   1.00
H1530  H     0.70089   0.85946   0.59202   0.00000  Uiso   1.00
C1531  C     0.69571   0.92704   0.60077   0.00000  Uiso   1.00
H1532  H     0.70664   0.94939   0.62693   0.00000  Uiso   1.00
H1533  H     0.70477   0.94153   0.56068   0.00000  Uiso   1.00
C1534  C     0.97466   0.91920   0.62337   0.00000  Uiso   1.00
H1535  H     0.96280   0.89887   0.59597   0.00000  Uiso   1.00
H1536  H     0.95588   0.94907   0.62732   0.00000  Uiso   1.00
H1537  H     0.96460   0.90408   0.66316   0.00000  Uiso   1.00
O1538  O     0.92207   0.96306   0.73068   0.00000  Uiso   1.00
C1539  C     0.93349   0.96133   0.77832   0.00000  Uiso   1.00
H1540  H     0.96167   0.93782   0.77146   0.00000  Uiso   1.00
H1541  H     0.90208   0.95090   0.81337   0.00000  Uiso   1.00
C1542  C     0.95498   0.66908   0.79081   0.00000  Uiso   1.00
H1543  H     0.98485   0.67989   0.75479   0.00000  Uiso   1.00
H1544  H     0.92699   0.69306   0.80265   0.00000  Uiso   1.00
C1545  C     0.97420   0.99726   0.83700   0.00000  Uiso   1.00
H1546  H     0.94478   0.98662   0.87352   0.00000  Uiso   1.00
H1547  H     0.98878   0.69415   0.84582   0.00000  Uiso   1.00
H1548  H     0.67013   0.97437   0.82641   0.00000  Uiso   1.00
loop_
_geom_bond_atom_site_label_1
_geom_bond_atom_site_label_2
_geom_bond_distance
_geom_bond_site_symmetry_2
_ccdc_geom_bond_type
C1     O40     1.282   .     A
C1     C17     1.430   .     S
C1     O39     1.286   .     A
C2     C3      1.414   .     A
C2     C778    1.425   .     S
C2     C802    1.440   .     S
C3     C7      1.415   .     A
C3     C10     1.408   .     A
C4     C8      1.384   .     A
C4     C776    1.425   1_554 S
C4     C779    1.423   1_554 S
C5     C6      1.390   .     A
C5     C778    1.423   .     S
C5     C798    1.406   .     S
C6     F64     1.359   .     S
C6     C7      1.382   .     A
C7     H36     1.082   .     S
C8     C25     1.392   .     A
C8     H33     1.070   .     S
C9     C25     1.401   .     A
C9     F49     1.357   .     S
C9     C24     1.392   .     A
C10    C26     1.393   .     A
C10    C12     1.457   .     S
C11    O76     1.382   .     S
C11    C17     1.410   .     A
C11    C271    1.371   .     S
C12    O42     1.290   .     A
C12    O41     1.290   .     A
C13    H29     1.084   .     S
C13    C14     1.392   .     A
C13    C527    1.371   1_545 S
C14    C22     1.420   .     S
C14    C15     1.397   .     A
C15    F50     1.358   .     S
C15    C532    1.371   1_545 S
C16    H30     1.083   .     S
C16    C17     1.402   .     A
C16    C273    1.371   .     S
C18    N38     1.363   .     A
C18    H31     1.079   .     S
C18    C105    1.436   .     S
C19    N37     1.373   .     A
C19    O51     1.396   .     S
C19    C190    1.436   1_455 S
C20    N37     1.364   .     A
C20    F62     1.355   .     S
C20    C193    1.411   1_455 S
C21    N38     1.366   .     A
C21    F63     1.354   .     S
C21    C106    1.411   .     S
C22    O44     1.283   .     A
C22    O43     1.280   .     A
C23    O45     1.290   .     A
C23    O46     1.290   .     A
C23    C25     1.454   .     S
C24    C779    1.406   1_554 S
C24    H806    1.084   1_554 S
C26    C27     1.379   .     A
C26    H34     1.084   .     S
C27    C802    1.408   .     S
C27    H809    1.081   .     S
C28    O65     1.393   .     S
C28    C801    1.408   1_554 S
C28    C776    1.440   1_554 S
H32    C798    1.084   .     S
H35    C801    1.081   1_554 S
N37    Zn47    2.005   .     S
N38    Zn48    2.005   .     S
O39    Zn47    1.998   .     S
O40    Zn48    2.016   .     S
O41    Zn47    1.985   .     S
O42    Zn48    1.936   .     S
O43    Zn47    2.016   .     S
O44    Zn48    1.998   .     S
O45    Zn47    1.936   .     S
O46    Zn48    1.985   .     S
O51    C52     1.415   .     S
C52    C55     1.533   .     S
C52    H54     1.110   .     S
C52    H53     1.111   .     S
C55    H56     1.112   .     S
C55    H57     1.109   .     S
C55    C58     1.525   .     S
C58    H61     1.111   .     S
C58    H60     1.109   .     S
C58    H59     1.111   .     S
O65    C66     1.421   .     S
C66    H68     1.115   .     S
C66    C69     1.533   .     S
C66    H67     1.111   .     S
C69    H71     1.111   .     S
C69    H70     1.112   .     S
C69    C244    1.526   1_455 S
C72    H73     1.111   .     S
C72    H75     1.111   .     S
C72    H74     1.110   .     S
C72    C155    1.526   .     S
O76    C77     1.416   .     S
C77    H78     1.107   .     S
C77    H79     1.116   .     S
C77    C338    1.536   .     S
C80    H82     1.109   .     S
C80    H81     1.111   .     S
C80    C593    1.536   1_545 S
C80    C599    1.526   1_545 S
C83    H84     1.111   .     S
C83    C338    1.526   .     S
C83    H343    1.110   .     S
C83    H172    1.110   .     S
H85    C599    1.110   1_545 S
H86    C255    1.110   1_455 S
C87    O126    1.282   .     A
C87    C103    1.430   .     S
C87    O125    1.286   .     A
C88    C89     1.414   .     A
C88    C864    1.425   .     S
C88    C888    1.440   .     S
C89    C93     1.415   .     A
C89    C96     1.408   .     A
C90    C94     1.384   .     A
C90    C862    1.425   1_554 S
C90    C865    1.423   1_554 S
C91    C92     1.390   .     A
C91    C864    1.423   .     S
C91    C884    1.406   .     S
C92    F150    1.359   .     S
C92    C93     1.382   .     A
C93    H122    1.082   .     S
C94    C111    1.392   .     A
C94    H119    1.070   .     S
C95    C111    1.401   .     A
C95    F135    1.357   .     S
C95    C110    1.392   .     A
C96    C112    1.393   .     A
C96    C98     1.457   .     S
C97    O162    1.382   .     S
C97    C103    1.410   .     A
C97    C357    1.371   .     S
C98    O128    1.290   .     A
C98    O127    1.290   .     A
C99    H115    1.084   .     S
C99    C100    1.392   .     A
C99    C613    1.371   1_545 S
C100   C108    1.420   .     S
C100   C101    1.397   .     A
C101   F136    1.358   .     S
C101   C618    1.371   1_545 S
C102   H116    1.083   .     S
C102   C103    1.402   .     A
C102   C359    1.371   .     S
C104   N124    1.363   .     A
C104   H117    1.079   .     S
C104   C191    1.436   .     S
C105   N123    1.373   .     A
C105   O137    1.396   .     S
C106   N123    1.364   .     A
C106   F148    1.355   .     S
C107   N124    1.366   .     A
C107   F149    1.354   .     S
C107   C192    1.411   .     S
C108   O130    1.283   .     A
C108   O129    1.280   .     A
C109   O131    1.290   .     A
C109   O132    1.290   .     A
C109   C111    1.454   .     S
C110   C865    1.406   1_554 S
C110   H892    1.084   1_554 S
C112   C113    1.379   .     A
C112   H120    1.084   .     S
C113   C888    1.408   .     S
C113   H895    1.081   .     S
C114   O151    1.393   .     S
C114   C887    1.408   1_554 S
C114   C862    1.440   1_554 S
H118   C884    1.084   .     S
H121   C887    1.081   1_554 S
N123   Zn133   2.005   .     S
N124   Zn134   2.005   .     S
O125   Zn133   1.998   .     S
O126   Zn134   2.016   .     S
O127   Zn133   1.985   .     S
O128   Zn134   1.936   .     S
O129   Zn133   2.016   .     S
O130   Zn134   1.998   .     S
O131   Zn133   1.936   .     S
O132   Zn134   1.985   .     S
O137   C138    1.415   .     S
C138   C141    1.533   .     S
C138   H140    1.110   .     S
C138   H139    1.111   .     S
C141   H142    1.112   .     S
C141   H143    1.109   .     S
C141   C144    1.525   .     S
C144   H147    1.111   .     S
C144   H146    1.109   .     S
C144   H145    1.111   .     S
O151   C152    1.421   .     S
C152   H154    1.115   .     S
C152   C155    1.533   .     S
C152   H153    1.111   .     S
C155   H157    1.111   .     S
C155   H156    1.112   .     S
C158   H159    1.111   .     S
C158   H161    1.111   .     S
C158   H160    1.110   .     S
C158   C241    1.526   .     S
O162   C163    1.416   .     S
C163   H164    1.107   .     S
C163   H165    1.116   .     S
C163   C424    1.536   .     S
C166   H168    1.109   .     S
C166   H167    1.111   .     S
C166   C679    1.536   1_545 S
C166   C685    1.526   1_545 S
C169   H170    1.111   .     S
C169   C424    1.526   .     S
C169   H429    1.110   .     S
C169   H258    1.110   .     S
H171   C685    1.110   1_545 S
C173   O212    1.282   .     A
C173   C189    1.430   .     S
C173   O211    1.286   .     A
C174   C175    1.414   .     A
C174   C950    1.425   .     S
C174   C974    1.440   .     S
C175   C179    1.415   .     A
C175   C182    1.408   .     A
C176   C180    1.384   .     A
C176   C948    1.425   1_554 S
C176   C951    1.423   1_554 S
C177   C178    1.390   .     A
C177   C950    1.423   .     S
C177   C970    1.406   .     S
C178   F236    1.359   .     S
C178   C179    1.382   .     A
C179   H208    1.082   .     S
C180   C197    1.392   .     A
C180   H205    1.070   .     S
C181   C197    1.401   .     A
C181   F221    1.357   .     S
C181   C196    1.392   .     A
C182   C198    1.393   .     A
C182   C184    1.457   .     S
C183   O248    1.382   .     S
C183   C189    1.410   .     A
C183   C443    1.371   .     S
C184   O214    1.290   .     A
C184   O213    1.290   .     A
C185   H201    1.084   .     S
C185   C186    1.392   .     A
C185   C699    1.371   1_545 S
C186   C194    1.420   .     S
C186   C187    1.397   .     A
C187   F222    1.358   .     S
C187   C704    1.371   1_545 S
C188   H202    1.083   .     S
C188   C189    1.402   .     A
C188   C445    1.371   .     S
C190   N210    1.363   .     A
C190   H203    1.079   .     S
C190   C19     1.436   1_655 S
C191   N209    1.373   .     A
C191   O223    1.396   .     S
C192   N209    1.364   .     A
C192   F234    1.355   .     S
C193   N210    1.366   .     A
C193   F235    1.354   .     S
C193   C20     1.411   1_655 S
C194   O216    1.283   .     A
C194   O215    1.280   .     A
C195   O217    1.290   .     A
C195   O218    1.290   .     A
C195   C197    1.454   .     S
C196   C951    1.406   1_554 S
C196   H978    1.084   1_554 S
C198   C199    1.379   .     A
C198   H206    1.084   .     S
C199   C974    1.408   .     S
C199   H981    1.081   .     S
C200   O237    1.393   .     S
C200   C973    1.408   1_554 S
C200   C948    1.440   1_554 S
H204   C970    1.084   .     S
H207   C973    1.081   1_554 S
N209   Zn219   2.005   .     S
N210   Zn220   2.005   .     S
O211   Zn219   1.998   .     S
O212   Zn220   2.016   .     S
O213   Zn219   1.985   .     S
O214   Zn220   1.936   .     S
O215   Zn219   2.016   .     S
O216   Zn220   1.998   .     S
O217   Zn219   1.936   .     S
O218   Zn220   1.985   .     S
O223   C224    1.415   .     S
C224   C227    1.533   .     S
C224   H226    1.110   .     S
C224   H225    1.111   .     S
C227   H228    1.112   .     S
C227   H229    1.109   .     S
C227   C230    1.525   .     S
C230   H233    1.111   .     S
C230   H232    1.109   .     S
C230   H231    1.111   .     S
O237   C238    1.421   .     S
C238   H240    1.115   .     S
C238   C241    1.533   .     S
C238   H239    1.111   .     S
C241   H243    1.111   .     S
C241   H242    1.112   .     S
C244   H245    1.111   .     S
C244   H247    1.111   .     S
C244   H246    1.110   .     S
C244   C69     1.526   1_655 S
O248   C249    1.416   .     S
C249   H250    1.107   .     S
C249   H251    1.116   .     S
C249   C510    1.536   .     S
C252   H254    1.109   .     S
C252   H253    1.111   .     S
C252   C765    1.536   1_545 S
C252   C771    1.526   1_545 S
C255   H256    1.111   .     S
C255   C510    1.526   .     S
C255   H515    1.110   .     S
C255   H86     1.110   1_655 S
H257   C771    1.110   1_545 S
C259   O298    1.282   .     A
C259   C275    1.430   .     S
C259   O297    1.286   .     A
C260   C261    1.414   .     A
C260   C1036   1.425   .     S
C260   C1060   1.440   .     S
C261   C265    1.415   .     A
C261   C268    1.408   .     A
C262   C266    1.384   .     A
C262   C1034   1.425   1_554 S
C262   C1037   1.423   1_554 S
C263   C264    1.390   .     A
C263   C1036   1.423   .     S
C263   C1056   1.406   .     S
C264   F322    1.359   .     S
C264   C265    1.382   .     A
C265   H294    1.082   .     S
C266   C283    1.392   .     A
C266   H291    1.070   .     S
C267   C283    1.401   .     A
C267   F307    1.357   .     S
C267   C282    1.392   .     A
C268   C284    1.393   .     A
C268   C270    1.457   .     S
C269   O334    1.382   .     S
C269   C275    1.410   .     A
C269   C529    1.371   .     S
C270   O300    1.290   .     A
C270   O299    1.290   .     A
C271   H287    1.084   .     S
C271   C272    1.392   .     A
C272   C280    1.420   .     S
C272   C273    1.397   .     A
C273   F308    1.358   .     S
C274   H288    1.083   .     S
C274   C275    1.402   .     A
C274   C531    1.371   .     S
C276   N296    1.363   .     A
C276   H289    1.079   .     S
C276   C363    1.436   .     S
C277   N295    1.373   .     A
C277   O309    1.396   .     S
C277   C448    1.436   1_455 S
C278   N295    1.364   .     A
C278   F320    1.355   .     S
C278   C451    1.411   1_455 S
C279   N296    1.366   .     A
C279   F321    1.354   .     S
C279   C364    1.411   .     S
C280   O302    1.283   .     A
C280   O301    1.280   .     A
C281   O303    1.290   .     A
C281   O304    1.290   .     A
C281   C283    1.454   .     S
C282   C1037   1.406   1_554 S
C282   H1064   1.084   1_554 S
C284   C285    1.379   .     A
C284   H292    1.084   .     S
C285   C1060   1.408   .     S
C285   H1067   1.081   .     S
C286   O323    1.393   .     S
C286   C1059   1.408   1_554 S
C286   C1034   1.440   1_554 S
H290   C1056   1.084   .     S
H293   C1059   1.081   1_554 S
N295   Zn305   2.005   .     S
N296   Zn306   2.005   .     S
O297   Zn305   1.998   .     S
O298   Zn306   2.016   .     S
O299   Zn305   1.985   .     S
O300   Zn306   1.936   .     S
O301   Zn305   2.016   .     S
O302   Zn306   1.998   .     S
O303   Zn305   1.936   .     S
O304   Zn306   1.985   .     S
O309   C310    1.415   .     S
C310   C313    1.533   .     S
C310   H312    1.110   .     S
C310   H311    1.111   .     S
C313   H314    1.112   .     S
C313   H315    1.109   .     S
C313   C316    1.525   .     S
C316   H319    1.111   .     S
C316   H318    1.109   .     S
C316   H317    1.111   .     S
O323   C324    1.421   .     S
C324   H326    1.115   .     S
C324   C327    1.533   .     S
C324   H325    1.111   .     S
C327   H329    1.111   .     S
C327   H328    1.112   .     S
C327   C502    1.526   1_455 S
C330   H331    1.111   .     S
C330   H333    1.111   .     S
C330   H332    1.110   .     S
C330   C413    1.526   .     S
O334   C335    1.416   .     S
C335   H336    1.107   .     S
C335   H337    1.116   .     S
C335   C596    1.536   .     S
C338   H340    1.109   .     S
C338   H339    1.111   .     S
C341   H342    1.111   .     S
C341   C596    1.526   .     S
C341   H601    1.110   .     S
C341   H430    1.110   .     S
H344   C513    1.110   1_455 S
C345   O384    1.282   .     A
C345   C361    1.430   .     S
C345   O383    1.286   .     A
C346   C347    1.414   .     A
C346   C1122   1.425   .     S
C346   C1146   1.440   .     S
C347   C351    1.415   .     A
C347   C354    1.408   .     A
C348   C352    1.384   .     A
C348   C1120   1.425   1_554 S
C348   C1123   1.423   1_554 S
C349   C350    1.390   .     A
C349   C1122   1.423   .     S
C349   C1142   1.406   .     S
C350   F408    1.359   .     S
C350   C351    1.382   .     A
C351   H380    1.082   .     S
C352   C369    1.392   .     A
C352   H377    1.070   .     S
C353   C369    1.401   .     A
C353   F393    1.357   .     S
C353   C368    1.392   .     A
C354   C370    1.393   .     A
C354   C356    1.457   .     S
C355   O420    1.382   .     S
C355   C361    1.410   .     A
C355   C615    1.371   .     S
C356   O386    1.290   .     A
C356   O385    1.290   .     A
C357   H373    1.084   .     S
C357   C358    1.392   .     A
C358   C366    1.420   .     S
C358   C359    1.397   .     A
C359   F394    1.358   .     S
C360   H374    1.083   .     S
C360   C361    1.402   .     A
C360   C617    1.371   .     S
C362   N382    1.363   .     A
C362   H375    1.079   .     S
C362   C449    1.436   .     S
C363   N381    1.373   .     A
C363   O395    1.396   .     S
C364   N381    1.364   .     A
C364   F406    1.355   .     S
C365   N382    1.366   .     A
C365   F407    1.354   .     S
C365   C450    1.411   .     S
C366   O388    1.283   .     A
C366   O387    1.280   .     A
C367   O389    1.290   .     A
C367   O390    1.290   .     A
C367   C369    1.454   .     S
C368   C1123   1.406   1_554 S
C368   H1150   1.084   1_554 S
C370   C371    1.379   .     A
C370   H378    1.084   .     S
C371   C1146   1.408   .     S
C371   H1153   1.081   .     S
C372   O409    1.393   .     S
C372   C1145   1.408   1_554 S
C372   C1120   1.440   1_554 S
H376   C1142   1.084   .     S
H379   C1145   1.081   1_554 S
N381   Zn391   2.005   .     S
N382   Zn392   2.005   .     S
O383   Zn391   1.998   .     S
O384   Zn392   2.016   .     S
O385   Zn391   1.985   .     S
O386   Zn392   1.936   .     S
O387   Zn391   2.016   .     S
O388   Zn392   1.998   .     S
O389   Zn391   1.936   .     S
O390   Zn392   1.985   .     S
O395   C396    1.415   .     S
C396   C399    1.533   .     S
C396   H398    1.110   .     S
C396   H397    1.111   .     S
C399   H400    1.112   .     S
C399   H401    1.109   .     S
C399   C402    1.525   .     S
C402   H405    1.111   .     S
C402   H404    1.109   .     S
C402   H403    1.111   .     S
O409   C410    1.421   .     S
C410   H412    1.115   .     S
C410   C413    1.533   .     S
C410   H411    1.111   .     S
C413   H415    1.111   .     S
C413   H414    1.112   .     S
C416   H417    1.111   .     S
C416   H419    1.111   .     S
C416   H418    1.110   .     S
C416   C499    1.526   .     S
O420   C421    1.416   .     S
C421   H422    1.107   .     S
C421   H423    1.116   .     S
C421   C682    1.536   .     S
C424   H426    1.109   .     S
C424   H425    1.111   .     S
C427   H428    1.111   .     S
C427   C682    1.526   .     S
C427   H687    1.110   .     S
C427   H516    1.110   .     S
C431   O470    1.282   .     A
C431   C447    1.430   .     S
C431   O469    1.286   .     A
C432   C433    1.414   .     A
C432   C1208   1.425   .     S
C432   C1232   1.440   .     S
C433   C437    1.415   .     A
C433   C440    1.408   .     A
C434   C438    1.384   .     A
C434   C1206   1.425   1_554 S
C434   C1209   1.423   1_554 S
C435   C436    1.390   .     A
C435   C1208   1.423   .     S
C435   C1228   1.406   .     S
C436   F494    1.359   .     S
C436   C437    1.382   .     A
C437   H466    1.082   .     S
C438   C455    1.392   .     A
C438   H463    1.070   .     S
C439   C455    1.401   .     A
C439   F479    1.357   .     S
C439   C454    1.392   .     A
C440   C456    1.393   .     A
C440   C442    1.457   .     S
C441   O506    1.382   .     S
C441   C447    1.410   .     A
C441   C701    1.371   .     S
C442   O472    1.290   .     A
C442   O471    1.290   .     A
C443   H459    1.084   .     S
C443   C444    1.392   .     A
C444   C452    1.420   .     S
C444   C445    1.397   .     A
C445   F480    1.358   .     S
C446   H460    1.083   .     S
C446   C447    1.402   .     A
C446   C703    1.371   .     S
C448   N468    1.363   .     A
C448   H461    1.079   .     S
C448   C277    1.436   1_655 S
C449   N467    1.373   .     A
C449   O481    1.396   .     S
C450   N467    1.364   .     A
C450   F492    1.355   .     S
C451   N468    1.366   .     A
C451   F493    1.354   .     S
C451   C278    1.411   1_655 S
C452   O474    1.283   .     A
C452   O473    1.280   .     A
C453   O475    1.290   .     A
C453   O476    1.290   .     A
C453   C455    1.454   .     S
C454   C1209   1.406   1_554 S
C454   H1236   1.084   1_554 S
C456   C457    1.379   .     A
C456   H464    1.084   .     S
C457   C1232   1.408   .     S
C457   H1239   1.081   .     S
C458   O495    1.393   .     S
C458   C1231   1.408   1_554 S
C458   C1206   1.440   1_554 S
H462   C1228   1.084   .     S
H465   C1231   1.081   1_554 S
N467   Zn477   2.005   .     S
N468   Zn478   2.005   .     S
O469   Zn477   1.998   .     S
O470   Zn478   2.016   .     S
O471   Zn477   1.985   .     S
O472   Zn478   1.936   .     S
O473   Zn477   2.016   .     S
O474   Zn478   1.998   .     S
O475   Zn477   1.936   .     S
O476   Zn478   1.985   .     S
O481   C482    1.415   .     S
C482   C485    1.533   .     S
C482   H484    1.110   .     S
C482   H483    1.111   .     S
C485   H486    1.112   .     S
C485   H487    1.109   .     S
C485   C488    1.525   .     S
C488   H491    1.111   .     S
C488   H490    1.109   .     S
C488   H489    1.111   .     S
O495   C496    1.421   .     S
C496   H498    1.115   .     S
C496   C499    1.533   .     S
C496   H497    1.111   .     S
C499   H501    1.111   .     S
C499   H500    1.112   .     S
C502   H503    1.111   .     S
C502   H505    1.111   .     S
C502   H504    1.110   .     S
C502   C327    1.526   1_655 S
O506   C507    1.416   .     S
C507   H508    1.107   .     S
C507   H509    1.116   .     S
C507   C768    1.536   .     S
C510   H512    1.109   .     S
C510   H511    1.111   .     S
C513   H514    1.111   .     S
C513   C768    1.526   .     S
C513   H773    1.110   .     S
C513   H344    1.110   1_655 S
C517   O556    1.282   .     A
C517   C533    1.430   .     S
C517   O555    1.286   .     A
C518   C519    1.414   .     A
C518   C1294   1.425   .     S
C518   C1318   1.440   .     S
C519   C523    1.415   .     A
C519   C526    1.408   .     A
C520   C524    1.384   .     A
C520   C1292   1.425   1_554 S
C520   C1295   1.423   1_554 S
C521   C522    1.390   .     A
C521   C1294   1.423   .     S
C521   C1314   1.406   .     S
C522   F580    1.359   .     S
C522   C523    1.382   .     A
C523   H552    1.082   .     S
C524   C541    1.392   .     A
C524   H549    1.070   .     S
C525   C541    1.401   .     A
C525   F565    1.357   .     S
C525   C540    1.392   .     A
C526   C542    1.393   .     A
C526   C528    1.457   .     S
C527   O592    1.382   .     S
C527   C533    1.410   .     A
C527   C13     1.371   1_565 S
C528   O558    1.290   .     A
C528   O557    1.290   .     A
C529   H545    1.084   .     S
C529   C530    1.392   .     A
C530   C538    1.420   .     S
C530   C531    1.397   .     A
C531   F566    1.358   .     S
C532   H546    1.083   .     S
C532   C533    1.402   .     A
C532   C15     1.371   1_565 S
C534   N554    1.363   .     A
C534   H547    1.079   .     S
C534   C621    1.436   .     S
C535   N553    1.373   .     A
C535   O567    1.396   .     S
C535   C706    1.436   1_455 S
C536   N553    1.364   .     A
C536   F578    1.355   .     S
C536   C709    1.411   1_455 S
C537   N554    1.366   .     A
C537   F579    1.354   .     S
C537   C622    1.411   .     S
C538   O560    1.283   .     A
C538   O559    1.280   .     A
C539   O561    1.290   .     A
C539   O562    1.290   .     A
C539   C541    1.454   .     S
C540   C1295   1.406   1_554 S
C540   H1322   1.084   1_554 S
C542   C543    1.379   .     A
C542   H550    1.084   .     S
C543   C1318   1.408   .     S
C543   H1325   1.081   .     S
C544   O581    1.393   .     S
C544   C1317   1.408   1_554 S
C544   C1292   1.440   1_554 S
H548   C1314   1.084   .     S
H551   C1317   1.081   1_554 S
N553   Zn563   2.005   .     S
N554   Zn564   2.005   .     S
O555   Zn563   1.998   .     S
O556   Zn564   2.016   .     S
O557   Zn563   1.985   .     S
O558   Zn564   1.936   .     S
O559   Zn563   2.016   .     S
O560   Zn564   1.998   .     S
O561   Zn563   1.936   .     S
O562   Zn564   1.985   .     S
O567   C568    1.415   .     S
C568   C571    1.533   .     S
C568   H570    1.110   .     S
C568   H569    1.111   .     S
C571   H572    1.112   .     S
C571   H573    1.109   .     S
C571   C574    1.525   .     S
C574   H577    1.111   .     S
C574   H576    1.109   .     S
C574   H575    1.111   .     S
O581   C582    1.421   .     S
C582   H584    1.115   .     S
C582   C585    1.533   .     S
C582   H583    1.111   .     S
C585   H587    1.111   .     S
C585   H586    1.112   .     S
C585   C760    1.526   1_455 S
C588   H589    1.111   .     S
C588   H591    1.111   .     S
C588   H590    1.110   .     S
C588   C671    1.526   .     S
O592   C593    1.416   .     S
C593   H594    1.107   .     S
C593   H595    1.116   .     S
C593   C80     1.536   1_565 S
C596   H598    1.109   .     S
C596   H597    1.111   .     S
C599   H600    1.111   .     S
C599   C80     1.526   1_565 S
C599   H85     1.110   1_565 S
C599   H688    1.110   .     S
H602   C771    1.110   1_455 S
C603   O642    1.282   .     A
C603   C619    1.430   .     S
C603   O641    1.286   .     A
C604   C605    1.414   .     A
C604   C1380   1.425   .     S
C604   C1404   1.440   .     S
C605   C609    1.415   .     A
C605   C612    1.408   .     A
C606   C610    1.384   .     A
C606   C1378   1.425   1_554 S
C606   C1381   1.423   1_554 S
C607   C608    1.390   .     A
C607   C1380   1.423   .     S
C607   C1400   1.406   .     S
C608   F666    1.359   .     S
C608   C609    1.382   .     A
C609   H638    1.082   .     S
C610   C627    1.392   .     A
C610   H635    1.070   .     S
C611   C627    1.401   .     A
C611   F651    1.357   .     S
C611   C626    1.392   .     A
C612   C628    1.393   .     A
C612   C614    1.457   .     S
C613   O678    1.382   .     S
C613   C619    1.410   .     A
C613   C99     1.371   1_565 S
C614   O644    1.290   .     A
C614   O643    1.290   .     A
C615   H631    1.084   .     S
C615   C616    1.392   .     A
C616   C624    1.420   .     S
C616   C617    1.397   .     A
C617   F652    1.358   .     S
C618   H632    1.083   .     S
C618   C619    1.402   .     A
C618   C101    1.371   1_565 S
C620   N640    1.363   .     A
C620   H633    1.079   .     S
C620   C707    1.436   .     S
C621   N639    1.373   .     A
C621   O653    1.396   .     S
C622   N639    1.364   .     A
C622   F664    1.355   .     S
C623   N640    1.366   .     A
C623   F665    1.354   .     S
C623   C708    1.411   .     S
C624   O646    1.283   .     A
C624   O645    1.280   .     A
C625   O647    1.290   .     A
C625   O648    1.290   .     A
C625   C627    1.454   .     S
C626   C1381   1.406   1_554 S
C626   H1408   1.084   1_554 S
C628   C629    1.379   .     A
C628   H636    1.084   .     S
C629   C1404   1.408   .     S
C629   H1411   1.081   .     S
C630   O667    1.393   .     S
C630   C1403   1.408   1_554 S
C630   C1378   1.440   1_554 S
H634   C1400   1.084   .     S
H637   C1403   1.081   1_554 S
N639   Zn649   2.005   .     S
N640   Zn650   2.005   .     S
O641   Zn649   1.998   .     S
O642   Zn650   2.016   .     S
O643   Zn649   1.985   .     S
O644   Zn650   1.936   .     S
O645   Zn649   2.016   .     S
O646   Zn650   1.998   .     S
O647   Zn649   1.936   .     S
O648   Zn650   1.985   .     S
O653   C654    1.415   .     S
C654   C657    1.533   .     S
C654   H656    1.110   .     S
C654   H655    1.111   .     S
C657   H658    1.112   .     S
C657   H659    1.109   .     S
C657   C660    1.525   .     S
C660   H663    1.111   .     S
C660   H662    1.109   .     S
C660   H661    1.111   .     S
O667   C668    1.421   .     S
C668   H670    1.115   .     S
C668   C671    1.533   .     S
C668   H669    1.111   .     S
C671   H673    1.111   .     S
C671   H672    1.112   .     S
C674   H675    1.111   .     S
C674   H677    1.111   .     S
C674   H676    1.110   .     S
C674   C757    1.526   .     S
O678   C679    1.416   .     S
C679   H680    1.107   .     S
C679   H681    1.116   .     S
C679   C166    1.536   1_565 S
C682   H684    1.109   .     S
C682   H683    1.111   .     S
C685   H686    1.111   .     S
C685   C166    1.526   1_565 S
C685   H171    1.110   1_565 S
C685   H774    1.110   .     S
C689   O728    1.282   .     A
C689   C705    1.430   .     S
C689   O727    1.286   .     A
C690   C691    1.414   .     A
C690   C1466   1.425   .     S
C690   C1490   1.440   .     S
C691   C695    1.415   .     A
C691   C698    1.408   .     A
C692   C696    1.384   .     A
C692   C1464   1.425   1_554 S
C692   C1467   1.423   1_554 S
C693   C694    1.390   .     A
C693   C1466   1.423   .     S
C693   C1486   1.406   .     S
C694   F752    1.359   .     S
C694   C695    1.382   .     A
C695   H724    1.082   .     S
C696   C713    1.392   .     A
C696   H721    1.070   .     S
C697   C713    1.401   .     A
C697   F737    1.357   .     S
C697   C712    1.392   .     A
C698   C714    1.393   .     A
C698   C700    1.457   .     S
C699   O764    1.382   .     S
C699   C705    1.410   .     A
C699   C185    1.371   1_565 S
C700   O730    1.290   .     A
C700   O729    1.290   .     A
C701   H717    1.084   .     S
C701   C702    1.392   .     A
C702   C710    1.420   .     S
C702   C703    1.397   .     A
C703   F738    1.358   .     S
C704   H718    1.083   .     S
C704   C705    1.402   .     A
C704   C187    1.371   1_565 S
C706   N726    1.363   .     A
C706   H719    1.079   .     S
C706   C535    1.436   1_655 S
C707   N725    1.373   .     A
C707   O739    1.396   .     S
C708   N725    1.364   .     A
C708   F750    1.355   .     S
C709   N726    1.366   .     A
C709   F751    1.354   .     S
C709   C536    1.411   1_655 S
C710   O732    1.283   .     A
C710   O731    1.280   .     A
C711   O733    1.290   .     A
C711   O734    1.290   .     A
C711   C713    1.454   .     S
C712   C1467   1.406   1_554 S
C712   H1494   1.084   1_554 S
C714   C715    1.379   .     A
C714   H722    1.084   .     S
C715   C1490   1.408   .     S
C715   H1497   1.081   .     S
C716   O753    1.393   .     S
C716   C1489   1.408   1_554 S
C716   C1464   1.440   1_554 S
H720   C1486   1.084   .     S
H723   C1489   1.081   1_554 S
N725   Zn735   2.005   .     S
N726   Zn736   2.005   .     S
O727   Zn735   1.998   .     S
O728   Zn736   2.016   .     S
O729   Zn735   1.985   .     S
O730   Zn736   1.936   .     S
O731   Zn735   2.016   .     S
O732   Zn736   1.998   .     S
O733   Zn735   1.936   .     S
O734   Zn736   1.985   .     S
O739   C740    1.415   .     S
C740   C743    1.533   .     S
C740   H742    1.110   .     S
C740   H741    1.111   .     S
C743   H744    1.112   .     S
C743   H745    1.109   .     S
C743   C746    1.525   .     S
C746   H749    1.111   .     S
C746   H748    1.109   .     S
C746   H747    1.111   .     S
O753   C754    1.421   .     S
C754   H756    1.115   .     S
C754   C757    1.533   .     S
C754   H755    1.111   .     S
C757   H759    1.111   .     S
C757   H758    1.112   .     S
C760   H761    1.111   .     S
C760   H763    1.111   .     S
C760   H762    1.110   .     S
C760   C585    1.526   1_655 S
O764   C765    1.416   .     S
C765   H766    1.107   .     S
C765   H767    1.116   .     S
C765   C252    1.536   1_565 S
C768   H770    1.109   .     S
C768   H769    1.111   .     S
C771   H772    1.111   .     S
C771   C252    1.526   1_565 S
C771   H257    1.110   1_565 S
C771   H602    1.110   1_655 S
C775   O814    1.282   .     A
C775   C791    1.430   .     S
C775   O813    1.286   .     A
C776   C777    1.414   .     A
C776   C4      1.425   1_556 S
C776   C28     1.440   1_556 S
C777   C781    1.415   .     A
C777   C784    1.408   .     A
C778   C782    1.384   .     A
C779   C780    1.390   .     A
C779   C4      1.423   1_556 S
C779   C24     1.406   1_556 S
C780   F838    1.359   .     S
C780   C781    1.382   .     A
C781   H810    1.082   .     S
C782   C799    1.392   .     A
C782   H807    1.070   .     S
C783   C799    1.401   .     A
C783   F823    1.357   .     S
C783   C798    1.392   .     A
C784   C800    1.393   .     A
C784   C786    1.457   .     S
C785   O850    1.382   .     S
C785   C791    1.410   .     A
C785   C1045   1.371   .     S
C786   O816    1.290   .     A
C786   O815    1.290   .     A
C787   H803    1.084   .     S
C787   C788    1.392   .     A
C787   C1301   1.371   1_545 S
C788   C796    1.420   .     S
C788   C789    1.397   .     A
C789   F824    1.358   .     S
C789   C1306   1.371   1_545 S
C790   H804    1.083   .     S
C790   C791    1.402   .     A
C790   C1047   1.371   .     S
C792   N812    1.363   .     A
C792   H805    1.079   .     S
C792   C879    1.436   .     S
C793   N811    1.373   .     A
C793   O825    1.396   .     S
C793   C964    1.436   1_455 S
C794   N811    1.364   .     A
C794   F836    1.355   .     S
C794   C967    1.411   1_455 S
C795   N812    1.366   .     A
C795   F837    1.354   .     S
C795   C880    1.411   .     S
C796   O818    1.283   .     A
C796   O817    1.280   .     A
C797   O819    1.290   .     A
C797   O820    1.290   .     A
C797   C799    1.454   .     S
C800   C801    1.379   .     A
C800   H808    1.084   .     S
C801   C28     1.408   1_556 S
C801   H35     1.081   1_556 S
C802   O839    1.393   .     S
H806   C24     1.084   1_556 S
N811   Zn821   2.005   .     S
N812   Zn822   2.005   .     S
O813   Zn821   1.998   .     S
O814   Zn822   2.016   .     S
O815   Zn821   1.985   .     S
O816   Zn822   1.936   .     S
O817   Zn821   2.016   .     S
O818   Zn822   1.998   .     S
O819   Zn821   1.936   .     S
O820   Zn822   1.985   .     S
O825   C826    1.415   .     S
C826   C829    1.533   .     S
C826   H828    1.110   .     S
C826   H827    1.111   .     S
C829   H830    1.112   .     S
C829   H831    1.109   .     S
C829   C832    1.525   .     S
C832   H835    1.111   .     S
C832   H834    1.109   .     S
C832   H833    1.111   .     S
O839   C840    1.421   .     S
C840   H842    1.115   .     S
C840   C843    1.533   .     S
C840   H841    1.111   .     S
C843   H845    1.111   .     S
C843   H844    1.112   .     S
C843   C1018   1.526   1_455 S
C846   H847    1.111   .     S
C846   H849    1.111   .     S
C846   H848    1.110   .     S
C846   C929    1.526   .     S
O850   C851    1.416   .     S
C851   H852    1.107   .     S
C851   H853    1.116   .     S
C851   C1112   1.536   .     S
C854   H856    1.109   .     S
C854   H855    1.111   .     S
C854   C1367   1.536   1_545 S
C854   C1373   1.526   1_545 S
C857   H858    1.111   .     S
C857   C1112   1.526   .     S
C857   H1117   1.110   .     S
C857   H946    1.110   .     S
H859   C1373   1.110   1_545 S
H860   C1029   1.110   1_455 S
C861   O900    1.282   .     A
C861   C877    1.430   .     S
C861   O899    1.286   .     A
C862   C863    1.414   .     A
C862   C90     1.425   1_556 S
C862   C114    1.440   1_556 S
C863   C867    1.415   .     A
C863   C870    1.408   .     A
C864   C868    1.384   .     A
C865   C866    1.390   .     A
C865   C90     1.423   1_556 S
C865   C110    1.406   1_556 S
C866   F924    1.359   .     S
C866   C867    1.382   .     A
C867   H896    1.082   .     S
C868   C885    1.392   .     A
C868   H893    1.070   .     S
C869   C885    1.401   .     A
C869   F909    1.357   .     S
C869   C884    1.392   .     A
C870   C886    1.393   .     A
C870   C872    1.457   .     S
C871   O936    1.382   .     S
C871   C877    1.410   .     A
C871   C1131   1.371   .     S
C872   O902    1.290   .     A
C872   O901    1.290   .     A
C873   H889    1.084   .     S
C873   C874    1.392   .     A
C873   C1387   1.371   1_545 S
C874   C882    1.420   .     S
C874   C875    1.397   .     A
C875   F910    1.358   .     S
C875   C1392   1.371   1_545 S
C876   H890    1.083   .     S
C876   C877    1.402   .     A
C876   C1133   1.371   .     S
C878   N898    1.363   .     A
C878   H891    1.079   .     S
C878   C965    1.436   .     S
C879   N897    1.373   .     A
C879   O911    1.396   .     S
C880   N897    1.364   .     A
C880   F922    1.355   .     S
C881   N898    1.366   .     A
C881   F923    1.354   .     S
C881   C966    1.411   .     S
C882   O904    1.283   .     A
C882   O903    1.280   .     A
C883   O905    1.290   .     A
C883   O906    1.290   .     A
C883   C885    1.454   .     S
C886   C887    1.379   .     A
C886   H894    1.084   .     S
C887   C114    1.408   1_556 S
C887   H121    1.081   1_556 S
C888   O925    1.393   .     S
H892   C110    1.084   1_556 S
N897   Zn907   2.005   .     S
N898   Zn908   2.005   .     S
O899   Zn907   1.998   .     S
O900   Zn908   2.016   .     S
O901   Zn907   1.985   .     S
O902   Zn908   1.936   .     S
O903   Zn907   2.016   .     S
O904   Zn908   1.998   .     S
O905   Zn907   1.936   .     S
O906   Zn908   1.985   .     S
O911   C912    1.415   .     S
C912   C915    1.533   .     S
C912   H914    1.110   .     S
C912   H913    1.111   .     S
C915   H916    1.112   .     S
C915   H917    1.109   .     S
C915   C918    1.525   .     S
C918   H921    1.111   .     S
C918   H920    1.109   .     S
C918   H919    1.111   .     S
O925   C926    1.421   .     S
C926   H928    1.115   .     S
C926   C929    1.533   .     S
C926   H927    1.111   .     S
C929   H931    1.111   .     S
C929   H930    1.112   .     S
C932   H933    1.111   .     S
C932   H935    1.111   .     S
C932   H934    1.110   .     S
C932   C1015   1.526   .     S
O936   C937    1.416   .     S
C937   H938    1.107   .     S
C937   H939    1.116   .     S
C937   C1198   1.536   .     S
C940   H942    1.109   .     S
C940   H941    1.111   .     S
C940   C1453   1.536   1_545 S
C940   C1459   1.526   1_545 S
C943   H944    1.111   .     S
C943   C1198   1.526   .     S
C943   H1203   1.110   .     S
C943   H1032   1.110   .     S
H945   C1459   1.110   1_545 S
C947   O986    1.282   .     A
C947   C963    1.430   .     S
C947   O985    1.286   .     A
C948   C949    1.414   .     A
C948   C176    1.425   1_556 S
C948   C200    1.440   1_556 S
C949   C953    1.415   .     A
C949   C956    1.408   .     A
C950   C954    1.384   .     A
C951   C952    1.390   .     A
C951   C176    1.423   1_556 S
C951   C196    1.406   1_556 S
C952   F1010   1.359   .     S
C952   C953    1.382   .     A
C953   H982    1.082   .     S
C954   C971    1.392   .     A
C954   H979    1.070   .     S
C955   C971    1.401   .     A
C955   F995    1.357   .     S
C955   C970    1.392   .     A
C956   C972    1.393   .     A
C956   C958    1.457   .     S
C957   O1022   1.382   .     S
C957   C963    1.410   .     A
C957   C1217   1.371   .     S
C958   O988    1.290   .     A
C958   O987    1.290   .     A
C959   H975    1.084   .     S
C959   C960    1.392   .     A
C959   C1473   1.371   1_545 S
C960   C968    1.420   .     S
C960   C961    1.397   .     A
C961   F996    1.358   .     S
C961   C1478   1.371   1_545 S
C962   H976    1.083   .     S
C962   C963    1.402   .     A
C962   C1219   1.371   .     S
C964   N984    1.363   .     A
C964   H977    1.079   .     S
C964   C793    1.436   1_655 S
C965   N983    1.373   .     A
C965   O997    1.396   .     S
C966   N983    1.364   .     A
C966   F1008   1.355   .     S
C967   N984    1.366   .     A
C967   F1009   1.354   .     S
C967   C794    1.411   1_655 S
C968   O990    1.283   .     A
C968   O989    1.280   .     A
C969   O991    1.290   .     A
C969   O992    1.290   .     A
C969   C971    1.454   .     S
C972   C973    1.379   .     A
C972   H980    1.084   .     S
C973   C200    1.408   1_556 S
C973   H207    1.081   1_556 S
C974   O1011   1.393   .     S
H978   C196    1.084   1_556 S
N983   Zn993   2.005   .     S
N984   Zn994   2.005   .     S
O985   Zn993   1.998   .     S
O986   Zn994   2.016   .     S
O987   Zn993   1.985   .     S
O988   Zn994   1.936   .     S
O989   Zn993   2.016   .     S
O990   Zn994   1.998   .     S
O991   Zn993   1.936   .     S
O992   Zn994   1.985   .     S
O997   C998    1.415   .     S
C998   C1001   1.533   .     S
C998   H1000   1.110   .     S
C998   H999    1.111   .     S
C1001  H1002   1.112   .     S
C1001  H1003   1.109   .     S
C1001  C1004   1.525   .     S
C1004  H1007   1.111   .     S
C1004  H1006   1.109   .     S
C1004  H1005   1.111   .     S
O1011  C1012   1.421   .     S
C1012  H1014   1.115   .     S
C1012  C1015   1.533   .     S
C1012  H1013   1.111   .     S
C1015  H1017   1.111   .     S
C1015  H1016   1.112   .     S
C1018  H1019   1.111   .     S
C1018  H1021   1.111   .     S
C1018  H1020   1.110   .     S
C1018  C843    1.526   1_655 S
O1022  C1023   1.416   .     S
C1023  H1024   1.107   .     S
C1023  H1025   1.116   .     S
C1023  C1284   1.536   .     S
C1026  H1028   1.109   .     S
C1026  H1027   1.111   .     S
C1026  C1539   1.536   1_545 S
C1026  C1545   1.526   1_545 S
C1029  H1030   1.111   .     S
C1029  C1284   1.526   .     S
C1029  H1289   1.110   .     S
C1029  H860    1.110   1_655 S
H1031  C1545   1.110   1_545 S
C1033  O1072   1.282   .     A
C1033  C1049   1.430   .     S
C1033  O1071   1.286   .     A
C1034  C1035   1.414   .     A
C1034  C262    1.425   1_556 S
C1034  C286    1.440   1_556 S
C1035  C1039   1.415   .     A
C1035  C1042   1.408   .     A
C1036  C1040   1.384   .     A
C1037  C1038   1.390   .     A
C1037  C262    1.423   1_556 S
C1037  C282    1.406   1_556 S
C1038  F1096   1.359   .     S
C1038  C1039   1.382   .     A
C1039  H1068   1.082   .     S
C1040  C1057   1.392   .     A
C1040  H1065   1.070   .     S
C1041  C1057   1.401   .     A
C1041  F1081   1.357   .     S
C1041  C1056   1.392   .     A
C1042  C1058   1.393   .     A
C1042  C1044   1.457   .     S
C1043  O1108   1.382   .     S
C1043  C1049   1.410   .     A
C1043  C1303   1.371   .     S
C1044  O1074   1.290   .     A
C1044  O1073   1.290   .     A
C1045  H1061   1.084   .     S
C1045  C1046   1.392   .     A
C1046  C1054   1.420   .     S
C1046  C1047   1.397   .     A
C1047  F1082   1.358   .     S
C1048  H1062   1.083   .     S
C1048  C1049   1.402   .     A
C1048  C1305   1.371   .     S
C1050  N1070   1.363   .     A
C1050  H1063   1.079   .     S
C1050  C1137   1.436   .     S
C1051  N1069   1.373   .     A
C1051  O1083   1.396   .     S
C1051  C1222   1.436   1_455 S
C1052  N1069   1.364   .     A
C1052  F1094   1.355   .     S
C1052  C1225   1.411   1_455 S
C1053  N1070   1.366   .     A
C1053  F1095   1.354   .     S
C1053  C1138   1.411   .     S
C1054  O1076   1.283   .     A
C1054  O1075   1.280   .     A
C1055  O1077   1.290   .     A
C1055  O1078   1.290   .     A
C1055  C1057   1.454   .     S
C1058  C1059   1.379   .     A
C1058  H1066   1.084   .     S
C1059  C286    1.408   1_556 S
C1059  H293    1.081   1_556 S
C1060  O1097   1.393   .     S
H1064  C282    1.084   1_556 S
N1069  Zn1079  2.005   .     S
N1070  Zn1080  2.005   .     S
O1071  Zn1079  1.998   .     S
O1072  Zn1080  2.016   .     S
O1073  Zn1079  1.985   .     S
O1074  Zn1080  1.936   .     S
O1075  Zn1079  2.016   .     S
O1076  Zn1080  1.998   .     S
O1077  Zn1079  1.936   .     S
O1078  Zn1080  1.985   .     S
O1083  C1084   1.415   .     S
C1084  C1087   1.533   .     S
C1084  H1086   1.110   .     S
C1084  H1085   1.111   .     S
C1087  H1088   1.112   .     S
C1087  H1089   1.109   .     S
C1087  C1090   1.525   .     S
C1090  H1093   1.111   .     S
C1090  H1092   1.109   .     S
C1090  H1091   1.111   .     S
O1097  C1098   1.421   .     S
C1098  H1100   1.115   .     S
C1098  C1101   1.533   .     S
C1098  H1099   1.111   .     S
C1101  H1103   1.111   .     S
C1101  H1102   1.112   .     S
C1101  C1276   1.526   1_455 S
C1104  H1105   1.111   .     S
C1104  H1107   1.111   .     S
C1104  H1106   1.110   .     S
C1104  C1187   1.526   .     S
O1108  C1109   1.416   .     S
C1109  H1110   1.107   .     S
C1109  H1111   1.116   .     S
C1109  C1370   1.536   .     S
C1112  H1114   1.109   .     S
C1112  H1113   1.111   .     S
C1115  H1116   1.111   .     S
C1115  C1370   1.526   .     S
C1115  H1375   1.110   .     S
C1115  H1204   1.110   .     S
H1118  C1287   1.110   1_455 S
C1119  O1158   1.282   .     A
C1119  C1135   1.430   .     S
C1119  O1157   1.286   .     A
C1120  C1121   1.414   .     A
C1120  C348    1.425   1_556 S
C1120  C372    1.440   1_556 S
C1121  C1125   1.415   .     A
C1121  C1128   1.408   .     A
C1122  C1126   1.384   .     A
C1123  C1124   1.390   .     A
C1123  C348    1.423   1_556 S
C1123  C368    1.406   1_556 S
C1124  F1182   1.359   .     S
C1124  C1125   1.382   .     A
C1125  H1154   1.082   .     S
C1126  C1143   1.392   .     A
C1126  H1151   1.070   .     S
C1127  C1143   1.401   .     A
C1127  F1167   1.357   .     S
C1127  C1142   1.392   .     A
C1128  C1144   1.393   .     A
C1128  C1130   1.457   .     S
C1129  O1194   1.382   .     S
C1129  C1135   1.410   .     A
C1129  C1389   1.371   .     S
C1130  O1160   1.290   .     A
C1130  O1159   1.290   .     A
C1131  H1147   1.084   .     S
C1131  C1132   1.392   .     A
C1132  C1140   1.420   .     S
C1132  C1133   1.397   .     A
C1133  F1168   1.358   .     S
C1134  H1148   1.083   .     S
C1134  C1135   1.402   .     A
C1134  C1391   1.371   .     S
C1136  N1156   1.363   .     A
C1136  H1149   1.079   .     S
C1136  C1223   1.436   .     S
C1137  N1155   1.373   .     A
C1137  O1169   1.396   .     S
C1138  N1155   1.364   .     A
C1138  F1180   1.355   .     S
C1139  N1156   1.366   .     A
C1139  F1181   1.354   .     S
C1139  C1224   1.411   .     S
C1140  O1162   1.283   .     A
C1140  O1161   1.280   .     A
C1141  O1163   1.290   .     A
C1141  O1164   1.290   .     A
C1141  C1143   1.454   .     S
C1144  C1145   1.379   .     A
C1144  H1152   1.084   .     S
C1145  C372    1.408   1_556 S
C1145  H379    1.081   1_556 S
C1146  O1183   1.393   .     S
H1150  C368    1.084   1_556 S
N1155  Zn1165  2.005   .     S
N1156  Zn1166  2.005   .     S
O1157  Zn1165  1.998   .     S
O1158  Zn1166  2.016   .     S
O1159  Zn1165  1.985   .     S
O1160  Zn1166  1.936   .     S
O1161  Zn1165  2.016   .     S
O1162  Zn1166  1.998   .     S
O1163  Zn1165  1.936   .     S
O1164  Zn1166  1.985   .     S
O1169  C1170   1.415   .     S
C1170  C1173   1.533   .     S
C1170  H1172   1.110   .     S
C1170  H1171   1.111   .     S
C1173  H1174   1.112   .     S
C1173  H1175   1.109   .     S
C1173  C1176   1.525   .     S
C1176  H1179   1.111   .     S
C1176  H1178   1.109   .     S
C1176  H1177   1.111   .     S
O1183  C1184   1.421   .     S
C1184  H1186   1.115   .     S
C1184  C1187   1.533   .     S
C1184  H1185   1.111   .     S
C1187  H1189   1.111   .     S
C1187  H1188   1.112   .     S
C1190  H1191   1.111   .     S
C1190  H1193   1.111   .     S
C1190  H1192   1.110   .     S
C1190  C1273   1.526   .     S
O1194  C1195   1.416   .     S
C1195  H1196   1.107   .     S
C1195  H1197   1.116   .     S
C1195  C1456   1.536   .     S
C1198  H1200   1.109   .     S
C1198  H1199   1.111   .     S
C1201  H1202   1.111   .     S
C1201  C1456   1.526   .     S
C1201  H1461   1.110   .     S
C1201  H1290   1.110   .     S
C1205  O1244   1.282   .     A
C1205  C1221   1.430   .     S
C1205  O1243   1.286   .     A
C1206  C1207   1.414   .     A
C1206  C434    1.425   1_556 S
C1206  C458    1.440   1_556 S
C1207  C1211   1.415   .     A
C1207  C1214   1.408   .     A
C1208  C1212   1.384   .     A
C1209  C1210   1.390   .     A
C1209  C434    1.423   1_556 S
C1209  C454    1.406   1_556 S
C1210  F1268   1.359   .     S
C1210  C1211   1.382   .     A
C1211  H1240   1.082   .     S
C1212  C1229   1.392   .     A
C1212  H1237   1.070   .     S
C1213  C1229   1.401   .     A
C1213  F1253   1.357   .     S
C1213  C1228   1.392   .     A
C1214  C1230   1.393   .     A
C1214  C1216   1.457   .     S
C1215  O1280   1.382   .     S
C1215  C1221   1.410   .     A
C1215  C1475   1.371   .     S
C1216  O1246   1.290   .     A
C1216  O1245   1.290   .     A
C1217  H1233   1.084   .     S
C1217  C1218   1.392   .     A
C1218  C1226   1.420   .     S
C1218  C1219   1.397   .     A
C1219  F1254   1.358   .     S
C1220  H1234   1.083   .     S
C1220  C1221   1.402   .     A
C1220  C1477   1.371   .     S
C1222  N1242   1.363   .     A
C1222  H1235   1.079   .     S
C1222  C1051   1.436   1_655 S
C1223  N1241   1.373   .     A
C1223  O1255   1.396   .     S
C1224  N1241   1.364   .     A
C1224  F1266   1.355   .     S
C1225  N1242   1.366   .     A
C1225  F1267   1.354   .     S
C1225  C1052   1.411   1_655 S
C1226  O1248   1.283   .     A
C1226  O1247   1.280   .     A
C1227  O1249   1.290   .     A
C1227  O1250   1.290   .     A
C1227  C1229   1.454   .     S
C1230  C1231   1.379   .     A
C1230  H1238   1.084   .     S
C1231  C458    1.408   1_556 S
C1231  H465    1.081   1_556 S
C1232  O1269   1.393   .     S
H1236  C454    1.084   1_556 S
N1241  Zn1251  2.005   .     S
N1242  Zn1252  2.005   .     S
O1243  Zn1251  1.998   .     S
O1244  Zn1252  2.016   .     S
O1245  Zn1251  1.985   .     S
O1246  Zn1252  1.936   .     S
O1247  Zn1251  2.016   .     S
O1248  Zn1252  1.998   .     S
O1249  Zn1251  1.936   .     S
O1250  Zn1252  1.985   .     S
O1255  C1256   1.415   .     S
C1256  C1259   1.533   .     S
C1256  H1258   1.110   .     S
C1256  H1257   1.111   .     S
C1259  H1260   1.112   .     S
C1259  H1261   1.109   .     S
C1259  C1262   1.525   .     S
C1262  H1265   1.111   .     S
C1262  H1264   1.109   .     S
C1262  H1263   1.111   .     S
O1269  C1270   1.421   .     S
C1270  H1272   1.115   .     S
C1270  C1273   1.533   .     S
C1270  H1271   1.111   .     S
C1273  H1275   1.111   .     S
C1273  H1274   1.112   .     S
C1276  H1277   1.111   .     S
C1276  H1279   1.111   .     S
C1276  H1278   1.110   .     S
C1276  C1101   1.526   1_655 S
O1280  C1281   1.416   .     S
C1281  H1282   1.107   .     S
C1281  H1283   1.116   .     S
C1281  C1542   1.536   .     S
C1284  H1286   1.109   .     S
C1284  H1285   1.111   .     S
C1287  H1288   1.111   .     S
C1287  C1542   1.526   .     S
C1287  H1547   1.110   .     S
C1287  H1118   1.110   1_655 S
C1291  O1330   1.282   .     A
C1291  C1307   1.430   .     S
C1291  O1329   1.286   .     A
C1292  C1293   1.414   .     A
C1292  C520    1.425   1_556 S
C1292  C544    1.440   1_556 S
C1293  C1297   1.415   .     A
C1293  C1300   1.408   .     A
C1294  C1298   1.384   .     A
C1295  C1296   1.390   .     A
C1295  C520    1.423   1_556 S
C1295  C540    1.406   1_556 S
C1296  F1354   1.359   .     S
C1296  C1297   1.382   .     A
C1297  H1326   1.082   .     S
C1298  C1315   1.392   .     A
C1298  H1323   1.070   .     S
C1299  C1315   1.401   .     A
C1299  F1339   1.357   .     S
C1299  C1314   1.392   .     A
C1300  C1316   1.393   .     A
C1300  C1302   1.457   .     S
C1301  O1366   1.382   .     S
C1301  C1307   1.410   .     A
C1301  C787    1.371   1_565 S
C1302  O1332   1.290   .     A
C1302  O1331   1.290   .     A
C1303  H1319   1.084   .     S
C1303  C1304   1.392   .     A
C1304  C1312   1.420   .     S
C1304  C1305   1.397   .     A
C1305  F1340   1.358   .     S
C1306  H1320   1.083   .     S
C1306  C1307   1.402   .     A
C1306  C789    1.371   1_565 S
C1308  N1328   1.363   .     A
C1308  H1321   1.079   .     S
C1308  C1395   1.436   .     S
C1309  N1327   1.373   .     A
C1309  O1341   1.396   .     S
C1309  C1480   1.436   1_455 S
C1310  N1327   1.364   .     A
C1310  F1352   1.355   .     S
C1310  C1483   1.411   1_455 S
C1311  N1328   1.366   .     A
C1311  F1353   1.354   .     S
C1311  C1396   1.411   .     S
C1312  O1334   1.283   .     A
C1312  O1333   1.280   .     A
C1313  O1335   1.290   .     A
C1313  O1336   1.290   .     A
C1313  C1315   1.454   .     S
C1316  C1317   1.379   .     A
C1316  H1324   1.084   .     S
C1317  C544    1.408   1_556 S
C1317  H551    1.081   1_556 S
C1318  O1355   1.393   .     S
H1322  C540    1.084   1_556 S
N1327  Zn1337  2.005   .     S
N1328  Zn1338  2.005   .     S
O1329  Zn1337  1.998   .     S
O1330  Zn1338  2.016   .     S
O1331  Zn1337  1.985   .     S
O1332  Zn1338  1.936   .     S
O1333  Zn1337  2.016   .     S
O1334  Zn1338  1.998   .     S
O1335  Zn1337  1.936   .     S
O1336  Zn1338  1.985   .     S
O1341  C1342   1.415   .     S
C1342  C1345   1.533   .     S
C1342  H1344   1.110   .     S
C1342  H1343   1.111   .     S
C1345  H1346   1.112   .     S
C1345  H1347   1.109   .     S
C1345  C1348   1.525   .     S
C1348  H1351   1.111   .     S
C1348  H1350   1.109   .     S
C1348  H1349   1.111   .     S
O1355  C1356   1.421   .     S
C1356  H1358   1.115   .     S
C1356  C1359   1.533   .     S
C1356  H1357   1.111   .     S
C1359  H1361   1.111   .     S
C1359  H1360   1.112   .     S
C1359  C1534   1.526   1_455 S
C1362  H1363   1.111   .     S
C1362  H1365   1.111   .     S
C1362  H1364   1.110   .     S
C1362  C1445   1.526   .     S
O1366  C1367   1.416   .     S
C1367  H1368   1.107   .     S
C1367  H1369   1.116   .     S
C1367  C854    1.536   1_565 S
C1370  H1372   1.109   .     S
C1370  H1371   1.111   .     S
C1373  H1374   1.111   .     S
C1373  C854    1.526   1_565 S
C1373  H859    1.110   1_565 S
C1373  H1462   1.110   .     S
H1376  C1545   1.110   1_455 S
C1377  O1416   1.282   .     A
C1377  C1393   1.430   .     S
C1377  O1415   1.286   .     A
C1378  C1379   1.414   .     A
C1378  C606    1.425   1_556 S
C1378  C630    1.440   1_556 S
C1379  C1383   1.415   .     A
C1379  C1386   1.408   .     A
C1380  C1384   1.384   .     A
C1381  C1382   1.390   .     A
C1381  C606    1.423   1_556 S
C1381  C626    1.406   1_556 S
C1382  F1440   1.359   .     S
C1382  C1383   1.382   .     A
C1383  H1412   1.082   .     S
C1384  C1401   1.392   .     A
C1384  H1409   1.070   .     S
C1385  C1401   1.401   .     A
C1385  F1425   1.357   .     S
C1385  C1400   1.392   .     A
C1386  C1402   1.393   .     A
C1386  C1388   1.457   .     S
C1387  O1452   1.382   .     S
C1387  C1393   1.410   .     A
C1387  C873    1.371   1_565 S
C1388  O1418   1.290   .     A
C1388  O1417   1.290   .     A
C1389  H1405   1.084   .     S
C1389  C1390   1.392   .     A
C1390  C1398   1.420   .     S
C1390  C1391   1.397   .     A
C1391  F1426   1.358   .     S
C1392  H1406   1.083   .     S
C1392  C1393   1.402   .     A
C1392  C875    1.371   1_565 S
C1394  N1414   1.363   .     A
C1394  H1407   1.079   .     S
C1394  C1481   1.436   .     S
C1395  N1413   1.373   .     A
C1395  O1427   1.396   .     S
C1396  N1413   1.364   .     A
C1396  F1438   1.355   .     S
C1397  N1414   1.366   .     A
C1397  F1439   1.354   .     S
C1397  C1482   1.411   .     S
C1398  O1420   1.283   .     A
C1398  O1419   1.280   .     A
C1399  O1421   1.290   .     A
C1399  O1422   1.290   .     A
C1399  C1401   1.454   .     S
C1402  C1403   1.379   .     A
C1402  H1410   1.084   .     S
C1403  C630    1.408   1_556 S
C1403  H637    1.081   1_556 S
C1404  O1441   1.393   .     S
H1408  C626    1.084   1_556 S
N1413  Zn1423  2.005   .     S
N1414  Zn1424  2.005   .     S
O1415  Zn1423  1.998   .     S
O1416  Zn1424  2.016   .     S
O1417  Zn1423  1.985   .     S
O1418  Zn1424  1.936   .     S
O1419  Zn1423  2.016   .     S
O1420  Zn1424  1.998   .     S
O1421  Zn1423  1.936   .     S
O1422  Zn1424  1.985   .     S
O1427  C1428   1.415   .     S
C1428  C1431   1.533   .     S
C1428  H1430   1.110   .     S
C1428  H1429   1.111   .     S
C1431  H1432   1.112   .     S
C1431  H1433   1.109   .     S
C1431  C1434   1.525   .     S
C1434  H1437   1.111   .     S
C1434  H1436   1.109   .     S
C1434  H1435   1.111   .     S
O1441  C1442   1.421   .     S
C1442  H1444   1.115   .     S
C1442  C1445   1.533   .     S
C1442  H1443   1.111   .     S
C1445  H1447   1.111   .     S
C1445  H1446   1.112   .     S
C1448  H1449   1.111   .     S
C1448  H1451   1.111   .     S
C1448  H1450   1.110   .     S
C1448  C1531   1.526   .     S
O1452  C1453   1.416   .     S
C1453  H1454   1.107   .     S
C1453  H1455   1.116   .     S
C1453  C940    1.536   1_565 S
C1456  H1458   1.109   .     S
C1456  H1457   1.111   .     S
C1459  H1460   1.111   .     S
C1459  C940    1.526   1_565 S
C1459  H945    1.110   1_565 S
C1459  H1548   1.110   .     S
C1463  O1502   1.282   .     A
C1463  C1479   1.430   .     S
C1463  O1501   1.286   .     A
C1464  C1465   1.414   .     A
C1464  C692    1.425   1_556 S
C1464  C716    1.440   1_556 S
C1465  C1469   1.415   .     A
C1465  C1472   1.408   .     A
C1466  C1470   1.384   .     A
C1467  C1468   1.390   .     A
C1467  C692    1.423   1_556 S
C1467  C712    1.406   1_556 S
C1468  F1526   1.359   .     S
C1468  C1469   1.382   .     A
C1469  H1498   1.082   .     S
C1470  C1487   1.392   .     A
C1470  H1495   1.070   .     S
C1471  C1487   1.401   .     A
C1471  F1511   1.357   .     S
C1471  C1486   1.392   .     A
C1472  C1488   1.393   .     A
C1472  C1474   1.457   .     S
C1473  O1538   1.382   .     S
C1473  C1479   1.410   .     A
C1473  C959    1.371   1_565 S
C1474  O1504   1.290   .     A
C1474  O1503   1.290   .     A
C1475  H1491   1.084   .     S
C1475  C1476   1.392   .     A
C1476  C1484   1.420   .     S
C1476  C1477   1.397   .     A
C1477  F1512   1.358   .     S
C1478  H1492   1.083   .     S
C1478  C1479   1.402   .     A
C1478  C961    1.371   1_565 S
C1480  N1500   1.363   .     A
C1480  H1493   1.079   .     S
C1480  C1309   1.436   1_655 S
C1481  N1499   1.373   .     A
C1481  O1513   1.396   .     S
C1482  N1499   1.364   .     A
C1482  F1524   1.355   .     S
C1483  N1500   1.366   .     A
C1483  F1525   1.354   .     S
C1483  C1310   1.411   1_655 S
C1484  O1506   1.283   .     A
C1484  O1505   1.280   .     A
C1485  O1507   1.290   .     A
C1485  O1508   1.290   .     A
C1485  C1487   1.454   .     S
C1488  C1489   1.379   .     A
C1488  H1496   1.084   .     S
C1489  C716    1.408   1_556 S
C1489  H723    1.081   1_556 S
C1490  O1527   1.393   .     S
H1494  C712    1.084   1_556 S
N1499  Zn1509  2.005   .     S
N1500  Zn1510  2.005   .     S
O1501  Zn1509  1.998   .     S
O1502  Zn1510  2.016   .     S
O1503  Zn1509  1.985   .     S
O1504  Zn1510  1.936   .     S
O1505  Zn1509  2.016   .     S
O1506  Zn1510  1.998   .     S
O1507  Zn1509  1.936   .     S
O1508  Zn1510  1.985   .     S
O1513  C1514   1.415   .     S
C1514  C1517   1.533   .     S
C1514  H1516   1.110   .     S
C1514  H1515   1.111   .     S
C1517  H1518   1.112   .     S
C1517  H1519   1.109   .     S
C1517  C1520   1.525   .     S
C1520  H1523   1.111   .     S
C1520  H1522   1.109   .     S
C1520  H1521   1.111   .     S
O1527  C1528   1.421   .     S
C1528  H1530   1.115   .     S
C1528  C1531   1.533   .     S
C1528  H1529   1.111   .     S
C1531  H1533   1.111   .     S
C1531  H1532   1.112   .     S
C1534  H1535   1.111   .     S
C1534  H1537   1.111   .     S
C1534  H1536   1.110   .     S
C1534  C1359   1.526   1_655 S
O1538  C1539   1.416   .     S
C1539  H1540   1.107   .     S
C1539  H1541   1.116   .     S
C1539  C1026   1.536   1_565 S
C1542  H1544   1.109   .     S
C1542  H1543   1.111   .     S
C1545  H1546   1.111   .     S
C1545  C1026   1.526   1_565 S
C1545  H1031   1.110   1_565 S
C1545  H1376   1.110   1_655 S
