data_str_m2_o1_o16_pcu_sym.115
_audit_creation_date              2020-01-03
_audit_creation_method            'Materials Studio'
_symmetry_space_group_name_H-M    'P1'
_symmetry_Int_Tables_number       1
_symmetry_cell_setting            triclinic
loop_
_symmetry_equiv_pos_as_xyz
  x,y,z
_cell_length_a                    28.7896
_cell_length_b                    32.4534
_cell_length_c                    26.7426
_cell_angle_alpha                 90.5734
_cell_angle_beta                  73.1638
_cell_angle_gamma                 90.2438
loop_
_atom_site_label
_atom_site_type_symbol
_atom_site_fract_x
_atom_site_fract_y
_atom_site_fract_z
_atom_site_U_iso_or_equiv
_atom_site_adp_type
_atom_site_occupancy
C1     C     0.16672   0.24589   0.24998   0.00000  Uiso   1.00
C2     C     0.14664   0.14264   0.48810   0.00000  Uiso   1.00
C3     C     0.16135   0.14196   0.43281   0.00000  Uiso   1.00
C4     C     0.18234   0.14659   0.01454   0.00000  Uiso   1.00
C5     C     0.23172   0.14307   0.48583   0.00000  Uiso   1.00
C6     C     0.24432   0.12852   0.43394   0.00000  Uiso   1.00
C7     C     0.20922   0.12954   0.40720   0.00000  Uiso   1.00
C8     C     0.17053   0.15600   0.06807   0.00000  Uiso   1.00
C9     C     0.25540   0.16310   0.06269   0.00000  Uiso   1.00
C10    C     0.12660   0.15048   0.40583   0.00000  Uiso   1.00
C11    C     0.21067   0.31212   0.23840   0.00000  Uiso   1.00
C12    C     0.14101   0.16168   0.34956   0.00000  Uiso   1.00
C13    C     0.21062   0.02142   0.23868   0.00000  Uiso   1.00
C14    C     0.16657   0.04280   0.24982   0.00000  Uiso   1.00
C15    C     0.12256   0.02124   0.26075   0.00000  Uiso   1.00
C16    C     0.12261   0.31193   0.26084   0.00000  Uiso   1.00
C17    C     0.16669   0.29055   0.24981   0.00000  Uiso   1.00
C18    C     0.30128   0.19580   0.27808   0.00000  Uiso   1.00
C19    C     0.01783   0.19577   0.27730   0.00000  Uiso   1.00
C20    C     0.03220   0.13823   0.22149   0.00000  Uiso   1.00
C21    C     0.31618   0.13834   0.22133   0.00000  Uiso   1.00
C22    C     0.16660   0.08744   0.24993   0.00000  Uiso   1.00
C23    C     0.19253   0.16640   0.14992   0.00000  Uiso   1.00
C24    C     0.26735   0.15470   0.00926   0.00000  Uiso   1.00
C25    C     0.20676   0.16218   0.09277   0.00000  Uiso   1.00
C26    C     0.07720   0.14788   0.43380   0.00000  Uiso   1.00
C27    C     0.06322   0.13890   0.48699   0.00000  Uiso   1.00
C28    C     0.09705   0.13862   0.01451   0.00000  Uiso   1.00
Cu29   Cu    0.11978   0.16666   0.25000   0.00000  Uiso   1.00
Cu30   Cu    0.21355   0.16667   0.25000   0.00000  Uiso   1.00
H31    H     0.28396   0.17039   0.08027   0.00000  Uiso   1.00
H32    H     0.24503   0.03756   0.22965   0.00000  Uiso   1.00
H33    H     0.08815   0.03727   0.26965   0.00000  Uiso   1.00
H34    H     0.08821   0.29577   0.26986   0.00000  Uiso   1.00
H35    H     0.03099   0.21803   0.30029   0.00000  Uiso   1.00
H36    H     0.05662   0.11525   0.19867   0.00000  Uiso   1.00
H37    H     0.30382   0.11546   0.19837   0.00000  Uiso   1.00
H38    H     0.30382   0.15924   0.48505   0.00000  Uiso   1.00
H39    H     0.13323   0.15933   0.09109   0.00000  Uiso   1.00
H40    H     0.04953   0.15179   0.41443   0.00000  Uiso   1.00
H41    H     0.08369   0.13305   0.05594   0.00000  Uiso   1.00
H42    H     0.02622   0.13252   0.00823   0.00000  Uiso   1.00
H43    H     0.21849   0.11735   0.36785   0.00000  Uiso   1.00
H44    H     0.24506   0.29611   0.22873   0.00000  Uiso   1.00
N45    N     0.04931   0.16666   0.24998   0.00000  Uiso   1.00
N46    N     0.28402   0.16669   0.24999   0.00000  Uiso   1.00
O47    O     0.12708   0.22678   0.25000   0.00000  Uiso   1.00
O48    O     0.20627   0.22679   0.25000   0.00000  Uiso   1.00
O49    O     0.10775   0.16665   0.32549   0.00000  Uiso   1.00
O50    O     0.18694   0.16666   0.32549   0.00000  Uiso   1.00
O51    O     0.12706   0.10654   0.24999   0.00000  Uiso   1.00
O52    O     0.20625   0.10655   0.24999   0.00000  Uiso   1.00
O53    O     0.14640   0.16667   0.17451   0.00000  Uiso   1.00
O54    O     0.22559   0.16668   0.17451   0.00000  Uiso   1.00
N55    N     0.26828   0.22417   0.31074   0.00000  Uiso   1.00
H56    H     0.25064   0.21238   0.34692   0.00000  Uiso   1.00
C57    C     0.28482   0.26614   0.31313   0.00000  Uiso   1.00
H58    H     0.25292   0.28650   0.32880   0.00000  Uiso   1.00
H59    H     0.30520   0.27705   0.27357   0.00000  Uiso   1.00
H60    H     0.30816   0.26841   0.33963   0.00000  Uiso   1.00
N61    N     0.28924   0.10767   0.41148   0.00000  Uiso   1.00
H62    H     0.30857   0.09948   0.43682   0.00000  Uiso   1.00
C63    C     0.31896   0.12281   0.36205   0.00000  Uiso   1.00
H64    H     0.02034   0.10548   0.34980   0.00000  Uiso   1.00
H65    H     0.32689   0.15591   0.36616   0.00000  Uiso   1.00
H66    H     0.30043   0.11826   0.33145   0.00000  Uiso   1.00
C67    C     0.50006   0.24589   0.24998   0.00000  Uiso   1.00
C68    C     0.47997   0.14264   0.48810   0.00000  Uiso   1.00
C69    C     0.49468   0.14196   0.43281   0.00000  Uiso   1.00
C70    C     0.51568   0.14659   0.01454   0.00000  Uiso   1.00
C71    C     0.56505   0.14307   0.48583   0.00000  Uiso   1.00
C72    C     0.57766   0.12852   0.43394   0.00000  Uiso   1.00
C73    C     0.54255   0.12954   0.40720   0.00000  Uiso   1.00
C74    C     0.50387   0.15600   0.06807   0.00000  Uiso   1.00
C75    C     0.58873   0.16310   0.06269   0.00000  Uiso   1.00
C76    C     0.45994   0.15048   0.40583   0.00000  Uiso   1.00
C77    C     0.54400   0.31212   0.23840   0.00000  Uiso   1.00
C78    C     0.47435   0.16168   0.34956   0.00000  Uiso   1.00
C79    C     0.54395   0.02142   0.23868   0.00000  Uiso   1.00
C80    C     0.49990   0.04280   0.24982   0.00000  Uiso   1.00
C81    C     0.45589   0.02124   0.26075   0.00000  Uiso   1.00
C82    C     0.45595   0.31193   0.26084   0.00000  Uiso   1.00
C83    C     0.50002   0.29055   0.24981   0.00000  Uiso   1.00
C84    C     0.63461   0.19580   0.27808   0.00000  Uiso   1.00
C85    C     0.35116   0.19577   0.27730   0.00000  Uiso   1.00
C86    C     0.36553   0.13823   0.22149   0.00000  Uiso   1.00
C87    C     0.64951   0.13834   0.22133   0.00000  Uiso   1.00
C88    C     0.49994   0.08744   0.24993   0.00000  Uiso   1.00
C89    C     0.52586   0.16640   0.14992   0.00000  Uiso   1.00
C90    C     0.60068   0.15470   0.00926   0.00000  Uiso   1.00
C91    C     0.54009   0.16218   0.09277   0.00000  Uiso   1.00
C92    C     0.41054   0.14788   0.43380   0.00000  Uiso   1.00
C93    C     0.39655   0.13890   0.48699   0.00000  Uiso   1.00
C94    C     0.43038   0.13862   0.01451   0.00000  Uiso   1.00
Cu95   Cu    0.45311   0.16666   0.25000   0.00000  Uiso   1.00
Cu96   Cu    0.54689   0.16667   0.25000   0.00000  Uiso   1.00
H97    H     0.61729   0.17039   0.08027   0.00000  Uiso   1.00
H98    H     0.57837   0.03756   0.22965   0.00000  Uiso   1.00
H99    H     0.42148   0.03727   0.26965   0.00000  Uiso   1.00
H100   H     0.42154   0.29577   0.26986   0.00000  Uiso   1.00
H101   H     0.36432   0.21803   0.30029   0.00000  Uiso   1.00
H102   H     0.38996   0.11525   0.19867   0.00000  Uiso   1.00
H103   H     0.63715   0.11546   0.19837   0.00000  Uiso   1.00
H104   H     0.63716   0.15924   0.48505   0.00000  Uiso   1.00
H105   H     0.46656   0.15933   0.09109   0.00000  Uiso   1.00
H106   H     0.38286   0.15179   0.41443   0.00000  Uiso   1.00
H107   H     0.41702   0.13305   0.05594   0.00000  Uiso   1.00
H108   H     0.35955   0.13252   0.00823   0.00000  Uiso   1.00
H109   H     0.55182   0.11735   0.36785   0.00000  Uiso   1.00
H110   H     0.57840   0.29611   0.22873   0.00000  Uiso   1.00
N111   N     0.38265   0.16666   0.24998   0.00000  Uiso   1.00
N112   N     0.61735   0.16669   0.24999   0.00000  Uiso   1.00
O113   O     0.46042   0.22678   0.25000   0.00000  Uiso   1.00
O114   O     0.53961   0.22679   0.25000   0.00000  Uiso   1.00
O115   O     0.44108   0.16665   0.32549   0.00000  Uiso   1.00
O116   O     0.52027   0.16666   0.32549   0.00000  Uiso   1.00
O117   O     0.46039   0.10654   0.24999   0.00000  Uiso   1.00
O118   O     0.53958   0.10655   0.24999   0.00000  Uiso   1.00
O119   O     0.47973   0.16667   0.17451   0.00000  Uiso   1.00
O120   O     0.55892   0.16668   0.17451   0.00000  Uiso   1.00
N121   N     0.60162   0.22417   0.31074   0.00000  Uiso   1.00
H122   H     0.58397   0.21238   0.34692   0.00000  Uiso   1.00
C123   C     0.61815   0.26614   0.31313   0.00000  Uiso   1.00
H124   H     0.58625   0.28650   0.32880   0.00000  Uiso   1.00
H125   H     0.63853   0.27705   0.27357   0.00000  Uiso   1.00
H126   H     0.64149   0.26841   0.33963   0.00000  Uiso   1.00
N127   N     0.62258   0.10767   0.41148   0.00000  Uiso   1.00
H128   H     0.64190   0.09948   0.43682   0.00000  Uiso   1.00
C129   C     0.65229   0.12281   0.36205   0.00000  Uiso   1.00
H130   H     0.35367   0.10548   0.34980   0.00000  Uiso   1.00
H131   H     0.66022   0.15591   0.36616   0.00000  Uiso   1.00
H132   H     0.63377   0.11826   0.33145   0.00000  Uiso   1.00
C133   C     0.83339   0.24589   0.24998   0.00000  Uiso   1.00
C134   C     0.81331   0.14264   0.48810   0.00000  Uiso   1.00
C135   C     0.82801   0.14196   0.43281   0.00000  Uiso   1.00
C136   C     0.84901   0.14659   0.01454   0.00000  Uiso   1.00
C137   C     0.89839   0.14307   0.48583   0.00000  Uiso   1.00
C138   C     0.91099   0.12852   0.43394   0.00000  Uiso   1.00
C139   C     0.87588   0.12954   0.40720   0.00000  Uiso   1.00
C140   C     0.83720   0.15600   0.06807   0.00000  Uiso   1.00
C141   C     0.92207   0.16310   0.06269   0.00000  Uiso   1.00
C142   C     0.79327   0.15048   0.40583   0.00000  Uiso   1.00
C143   C     0.87734   0.31212   0.23840   0.00000  Uiso   1.00
C144   C     0.80768   0.16168   0.34956   0.00000  Uiso   1.00
C145   C     0.87729   0.02142   0.23868   0.00000  Uiso   1.00
C146   C     0.83323   0.04280   0.24982   0.00000  Uiso   1.00
C147   C     0.78923   0.02124   0.26075   0.00000  Uiso   1.00
C148   C     0.78928   0.31193   0.26084   0.00000  Uiso   1.00
C149   C     0.83336   0.29055   0.24981   0.00000  Uiso   1.00
C150   C     0.96794   0.19580   0.27808   0.00000  Uiso   1.00
C151   C     0.68449   0.19577   0.27730   0.00000  Uiso   1.00
C152   C     0.69886   0.13823   0.22149   0.00000  Uiso   1.00
C153   C     0.98285   0.13834   0.22133   0.00000  Uiso   1.00
C154   C     0.83327   0.08744   0.24993   0.00000  Uiso   1.00
C155   C     0.85919   0.16640   0.14992   0.00000  Uiso   1.00
C156   C     0.93401   0.15470   0.00926   0.00000  Uiso   1.00
C157   C     0.87342   0.16218   0.09277   0.00000  Uiso   1.00
C158   C     0.74387   0.14788   0.43380   0.00000  Uiso   1.00
C159   C     0.72988   0.13890   0.48699   0.00000  Uiso   1.00
C160   C     0.76372   0.13862   0.01451   0.00000  Uiso   1.00
Cu161  Cu    0.78645   0.16666   0.25000   0.00000  Uiso   1.00
Cu162  Cu    0.88022   0.16667   0.25000   0.00000  Uiso   1.00
H163   H     0.95063   0.17039   0.08027   0.00000  Uiso   1.00
H164   H     0.91170   0.03756   0.22965   0.00000  Uiso   1.00
H165   H     0.75482   0.03727   0.26965   0.00000  Uiso   1.00
H166   H     0.75487   0.29577   0.26986   0.00000  Uiso   1.00
H167   H     0.69766   0.21803   0.30029   0.00000  Uiso   1.00
H168   H     0.72329   0.11525   0.19867   0.00000  Uiso   1.00
H169   H     0.97049   0.11546   0.19837   0.00000  Uiso   1.00
H170   H     0.97049   0.15924   0.48505   0.00000  Uiso   1.00
H171   H     0.79990   0.15933   0.09109   0.00000  Uiso   1.00
H172   H     0.71620   0.15179   0.41443   0.00000  Uiso   1.00
H173   H     0.75036   0.13305   0.05594   0.00000  Uiso   1.00
H174   H     0.69289   0.13252   0.00823   0.00000  Uiso   1.00
H175   H     0.88516   0.11735   0.36785   0.00000  Uiso   1.00
H176   H     0.91173   0.29611   0.22873   0.00000  Uiso   1.00
N177   N     0.71598   0.16666   0.24998   0.00000  Uiso   1.00
N178   N     0.95069   0.16669   0.24999   0.00000  Uiso   1.00
O179   O     0.79375   0.22678   0.25000   0.00000  Uiso   1.00
O180   O     0.87294   0.22679   0.25000   0.00000  Uiso   1.00
O181   O     0.77441   0.16665   0.32549   0.00000  Uiso   1.00
O182   O     0.85360   0.16666   0.32549   0.00000  Uiso   1.00
O183   O     0.79373   0.10654   0.24999   0.00000  Uiso   1.00
O184   O     0.87292   0.10655   0.24999   0.00000  Uiso   1.00
O185   O     0.81306   0.16667   0.17451   0.00000  Uiso   1.00
O186   O     0.89225   0.16668   0.17451   0.00000  Uiso   1.00
N187   N     0.93495   0.22417   0.31074   0.00000  Uiso   1.00
H188   H     0.91730   0.21238   0.34692   0.00000  Uiso   1.00
C189   C     0.95149   0.26614   0.31313   0.00000  Uiso   1.00
H190   H     0.91959   0.28650   0.32880   0.00000  Uiso   1.00
H191   H     0.97187   0.27705   0.27357   0.00000  Uiso   1.00
H192   H     0.97483   0.26841   0.33963   0.00000  Uiso   1.00
N193   N     0.95591   0.10767   0.41148   0.00000  Uiso   1.00
H194   H     0.97523   0.09948   0.43682   0.00000  Uiso   1.00
C195   C     0.98562   0.12281   0.36205   0.00000  Uiso   1.00
H196   H     0.68700   0.10548   0.34980   0.00000  Uiso   1.00
H197   H     0.99356   0.15591   0.36616   0.00000  Uiso   1.00
H198   H     0.96710   0.11826   0.33145   0.00000  Uiso   1.00
C199   C     0.16672   0.57923   0.24998   0.00000  Uiso   1.00
C200   C     0.14664   0.47598   0.48810   0.00000  Uiso   1.00
C201   C     0.16135   0.47529   0.43281   0.00000  Uiso   1.00
C202   C     0.18234   0.47993   0.01454   0.00000  Uiso   1.00
C203   C     0.23172   0.47640   0.48583   0.00000  Uiso   1.00
C204   C     0.24432   0.46185   0.43394   0.00000  Uiso   1.00
C205   C     0.20922   0.46287   0.40720   0.00000  Uiso   1.00
C206   C     0.17053   0.48934   0.06807   0.00000  Uiso   1.00
C207   C     0.25540   0.49643   0.06269   0.00000  Uiso   1.00
C208   C     0.12660   0.48381   0.40583   0.00000  Uiso   1.00
C209   C     0.21067   0.64545   0.23840   0.00000  Uiso   1.00
C210   C     0.14101   0.49501   0.34956   0.00000  Uiso   1.00
C211   C     0.21062   0.35475   0.23868   0.00000  Uiso   1.00
C212   C     0.16657   0.37613   0.24982   0.00000  Uiso   1.00
C213   C     0.12256   0.35458   0.26075   0.00000  Uiso   1.00
C214   C     0.12261   0.64526   0.26084   0.00000  Uiso   1.00
C215   C     0.16669   0.62389   0.24981   0.00000  Uiso   1.00
C216   C     0.30128   0.52913   0.27808   0.00000  Uiso   1.00
C217   C     0.01783   0.52911   0.27730   0.00000  Uiso   1.00
C218   C     0.03220   0.47157   0.22149   0.00000  Uiso   1.00
C219   C     0.31618   0.47167   0.22133   0.00000  Uiso   1.00
C220   C     0.16660   0.42078   0.24993   0.00000  Uiso   1.00
C221   C     0.19253   0.49974   0.14992   0.00000  Uiso   1.00
C222   C     0.26735   0.48803   0.00926   0.00000  Uiso   1.00
C223   C     0.20676   0.49552   0.09277   0.00000  Uiso   1.00
C224   C     0.07720   0.48121   0.43380   0.00000  Uiso   1.00
C225   C     0.06322   0.47224   0.48699   0.00000  Uiso   1.00
C226   C     0.09705   0.47195   0.01451   0.00000  Uiso   1.00
Cu227  Cu    0.11978   0.49999   0.25000   0.00000  Uiso   1.00
Cu228  Cu    0.21355   0.50001   0.25000   0.00000  Uiso   1.00
H229   H     0.28396   0.50373   0.08027   0.00000  Uiso   1.00
H230   H     0.24503   0.37089   0.22965   0.00000  Uiso   1.00
H231   H     0.08815   0.37060   0.26965   0.00000  Uiso   1.00
H232   H     0.08821   0.62910   0.26986   0.00000  Uiso   1.00
H233   H     0.03099   0.55137   0.30029   0.00000  Uiso   1.00
H234   H     0.05662   0.44859   0.19867   0.00000  Uiso   1.00
H235   H     0.30382   0.44880   0.19837   0.00000  Uiso   1.00
H236   H     0.30382   0.49257   0.48505   0.00000  Uiso   1.00
H237   H     0.13323   0.49266   0.09109   0.00000  Uiso   1.00
H238   H     0.04953   0.48512   0.41443   0.00000  Uiso   1.00
H239   H     0.08369   0.46638   0.05594   0.00000  Uiso   1.00
H240   H     0.02622   0.46585   0.00823   0.00000  Uiso   1.00
H241   H     0.21849   0.45068   0.36785   0.00000  Uiso   1.00
H242   H     0.24506   0.62944   0.22873   0.00000  Uiso   1.00
N243   N     0.04931   0.49999   0.24998   0.00000  Uiso   1.00
N244   N     0.28402   0.50002   0.24999   0.00000  Uiso   1.00
O245   O     0.12708   0.56011   0.25000   0.00000  Uiso   1.00
O246   O     0.20627   0.56012   0.25000   0.00000  Uiso   1.00
O247   O     0.10775   0.49998   0.32549   0.00000  Uiso   1.00
O248   O     0.18694   0.49999   0.32549   0.00000  Uiso   1.00
O249   O     0.12706   0.43988   0.24999   0.00000  Uiso   1.00
O250   O     0.20625   0.43989   0.24999   0.00000  Uiso   1.00
O251   O     0.14640   0.50001   0.17451   0.00000  Uiso   1.00
O252   O     0.22559   0.50002   0.17451   0.00000  Uiso   1.00
N253   N     0.26828   0.55750   0.31074   0.00000  Uiso   1.00
H254   H     0.25064   0.54571   0.34692   0.00000  Uiso   1.00
C255   C     0.28482   0.59948   0.31313   0.00000  Uiso   1.00
H256   H     0.25292   0.61983   0.32880   0.00000  Uiso   1.00
H257   H     0.30520   0.61039   0.27357   0.00000  Uiso   1.00
H258   H     0.30816   0.60174   0.33963   0.00000  Uiso   1.00
N259   N     0.28924   0.44100   0.41148   0.00000  Uiso   1.00
H260   H     0.30857   0.43281   0.43682   0.00000  Uiso   1.00
C261   C     0.31896   0.45615   0.36205   0.00000  Uiso   1.00
H262   H     0.02034   0.43881   0.34980   0.00000  Uiso   1.00
H263   H     0.32689   0.48924   0.36616   0.00000  Uiso   1.00
H264   H     0.30043   0.45159   0.33145   0.00000  Uiso   1.00
C265   C     0.50006   0.57923   0.24998   0.00000  Uiso   1.00
C266   C     0.47997   0.47598   0.48810   0.00000  Uiso   1.00
C267   C     0.49468   0.47529   0.43281   0.00000  Uiso   1.00
C268   C     0.51568   0.47993   0.01454   0.00000  Uiso   1.00
C269   C     0.56505   0.47640   0.48583   0.00000  Uiso   1.00
C270   C     0.57766   0.46185   0.43394   0.00000  Uiso   1.00
C271   C     0.54255   0.46287   0.40720   0.00000  Uiso   1.00
C272   C     0.50387   0.48934   0.06807   0.00000  Uiso   1.00
C273   C     0.58873   0.49643   0.06269   0.00000  Uiso   1.00
C274   C     0.45994   0.48381   0.40583   0.00000  Uiso   1.00
C275   C     0.54400   0.64545   0.23840   0.00000  Uiso   1.00
C276   C     0.47435   0.49501   0.34956   0.00000  Uiso   1.00
C277   C     0.54395   0.35475   0.23868   0.00000  Uiso   1.00
C278   C     0.49990   0.37613   0.24982   0.00000  Uiso   1.00
C279   C     0.45589   0.35458   0.26075   0.00000  Uiso   1.00
C280   C     0.45595   0.64526   0.26084   0.00000  Uiso   1.00
C281   C     0.50002   0.62389   0.24981   0.00000  Uiso   1.00
C282   C     0.63461   0.52913   0.27808   0.00000  Uiso   1.00
C283   C     0.35116   0.52911   0.27730   0.00000  Uiso   1.00
C284   C     0.36553   0.47157   0.22149   0.00000  Uiso   1.00
C285   C     0.64951   0.47167   0.22133   0.00000  Uiso   1.00
C286   C     0.49994   0.42078   0.24993   0.00000  Uiso   1.00
C287   C     0.52586   0.49974   0.14992   0.00000  Uiso   1.00
C288   C     0.60068   0.48803   0.00926   0.00000  Uiso   1.00
C289   C     0.54009   0.49552   0.09277   0.00000  Uiso   1.00
C290   C     0.41054   0.48121   0.43380   0.00000  Uiso   1.00
C291   C     0.39655   0.47224   0.48699   0.00000  Uiso   1.00
C292   C     0.43038   0.47195   0.01451   0.00000  Uiso   1.00
Cu293  Cu    0.45311   0.49999   0.25000   0.00000  Uiso   1.00
Cu294  Cu    0.54689   0.50001   0.25000   0.00000  Uiso   1.00
H295   H     0.61729   0.50373   0.08027   0.00000  Uiso   1.00
H296   H     0.57837   0.37089   0.22965   0.00000  Uiso   1.00
H297   H     0.42148   0.37060   0.26965   0.00000  Uiso   1.00
H298   H     0.42154   0.62910   0.26986   0.00000  Uiso   1.00
H299   H     0.36432   0.55137   0.30029   0.00000  Uiso   1.00
H300   H     0.38996   0.44859   0.19867   0.00000  Uiso   1.00
H301   H     0.63715   0.44880   0.19837   0.00000  Uiso   1.00
H302   H     0.63716   0.49257   0.48505   0.00000  Uiso   1.00
H303   H     0.46656   0.49266   0.09109   0.00000  Uiso   1.00
H304   H     0.38286   0.48512   0.41443   0.00000  Uiso   1.00
H305   H     0.41702   0.46638   0.05594   0.00000  Uiso   1.00
H306   H     0.35955   0.46585   0.00823   0.00000  Uiso   1.00
H307   H     0.55182   0.45068   0.36785   0.00000  Uiso   1.00
H308   H     0.57840   0.62944   0.22873   0.00000  Uiso   1.00
N309   N     0.38265   0.49999   0.24998   0.00000  Uiso   1.00
N310   N     0.61735   0.50002   0.24999   0.00000  Uiso   1.00
O311   O     0.46042   0.56011   0.25000   0.00000  Uiso   1.00
O312   O     0.53961   0.56012   0.25000   0.00000  Uiso   1.00
O313   O     0.44108   0.49998   0.32549   0.00000  Uiso   1.00
O314   O     0.52027   0.49999   0.32549   0.00000  Uiso   1.00
O315   O     0.46039   0.43988   0.24999   0.00000  Uiso   1.00
O316   O     0.53958   0.43989   0.24999   0.00000  Uiso   1.00
O317   O     0.47973   0.50001   0.17451   0.00000  Uiso   1.00
O318   O     0.55892   0.50002   0.17451   0.00000  Uiso   1.00
N319   N     0.60162   0.55750   0.31074   0.00000  Uiso   1.00
H320   H     0.58397   0.54571   0.34692   0.00000  Uiso   1.00
C321   C     0.61815   0.59948   0.31313   0.00000  Uiso   1.00
H322   H     0.58625   0.61983   0.32880   0.00000  Uiso   1.00
H323   H     0.63853   0.61039   0.27357   0.00000  Uiso   1.00
H324   H     0.64149   0.60174   0.33963   0.00000  Uiso   1.00
N325   N     0.62258   0.44100   0.41148   0.00000  Uiso   1.00
H326   H     0.64190   0.43281   0.43682   0.00000  Uiso   1.00
C327   C     0.65229   0.45615   0.36205   0.00000  Uiso   1.00
H328   H     0.35367   0.43881   0.34980   0.00000  Uiso   1.00
H329   H     0.66022   0.48924   0.36616   0.00000  Uiso   1.00
H330   H     0.63377   0.45159   0.33145   0.00000  Uiso   1.00
C331   C     0.83339   0.57923   0.24998   0.00000  Uiso   1.00
C332   C     0.81331   0.47598   0.48810   0.00000  Uiso   1.00
C333   C     0.82801   0.47529   0.43281   0.00000  Uiso   1.00
C334   C     0.84901   0.47993   0.01454   0.00000  Uiso   1.00
C335   C     0.89839   0.47640   0.48583   0.00000  Uiso   1.00
C336   C     0.91099   0.46185   0.43394   0.00000  Uiso   1.00
C337   C     0.87588   0.46287   0.40720   0.00000  Uiso   1.00
C338   C     0.83720   0.48934   0.06807   0.00000  Uiso   1.00
C339   C     0.92207   0.49643   0.06269   0.00000  Uiso   1.00
C340   C     0.79327   0.48381   0.40583   0.00000  Uiso   1.00
C341   C     0.87734   0.64545   0.23840   0.00000  Uiso   1.00
C342   C     0.80768   0.49501   0.34956   0.00000  Uiso   1.00
C343   C     0.87729   0.35475   0.23868   0.00000  Uiso   1.00
C344   C     0.83323   0.37613   0.24982   0.00000  Uiso   1.00
C345   C     0.78923   0.35458   0.26075   0.00000  Uiso   1.00
C346   C     0.78928   0.64526   0.26084   0.00000  Uiso   1.00
C347   C     0.83336   0.62389   0.24981   0.00000  Uiso   1.00
C348   C     0.96794   0.52913   0.27808   0.00000  Uiso   1.00
C349   C     0.68449   0.52911   0.27730   0.00000  Uiso   1.00
C350   C     0.69886   0.47157   0.22149   0.00000  Uiso   1.00
C351   C     0.98285   0.47167   0.22133   0.00000  Uiso   1.00
C352   C     0.83327   0.42078   0.24993   0.00000  Uiso   1.00
C353   C     0.85919   0.49974   0.14992   0.00000  Uiso   1.00
C354   C     0.93401   0.48803   0.00926   0.00000  Uiso   1.00
C355   C     0.87342   0.49552   0.09277   0.00000  Uiso   1.00
C356   C     0.74387   0.48121   0.43380   0.00000  Uiso   1.00
C357   C     0.72988   0.47224   0.48699   0.00000  Uiso   1.00
C358   C     0.76372   0.47195   0.01451   0.00000  Uiso   1.00
Cu359  Cu    0.78645   0.49999   0.25000   0.00000  Uiso   1.00
Cu360  Cu    0.88022   0.50001   0.25000   0.00000  Uiso   1.00
H361   H     0.95063   0.50373   0.08027   0.00000  Uiso   1.00
H362   H     0.91170   0.37089   0.22965   0.00000  Uiso   1.00
H363   H     0.75482   0.37060   0.26965   0.00000  Uiso   1.00
H364   H     0.75487   0.62910   0.26986   0.00000  Uiso   1.00
H365   H     0.69766   0.55137   0.30029   0.00000  Uiso   1.00
H366   H     0.72329   0.44859   0.19867   0.00000  Uiso   1.00
H367   H     0.97049   0.44880   0.19837   0.00000  Uiso   1.00
H368   H     0.97049   0.49257   0.48505   0.00000  Uiso   1.00
H369   H     0.79990   0.49266   0.09109   0.00000  Uiso   1.00
H370   H     0.71620   0.48512   0.41443   0.00000  Uiso   1.00
H371   H     0.75036   0.46638   0.05594   0.00000  Uiso   1.00
H372   H     0.69289   0.46585   0.00823   0.00000  Uiso   1.00
H373   H     0.88516   0.45068   0.36785   0.00000  Uiso   1.00
H374   H     0.91173   0.62944   0.22873   0.00000  Uiso   1.00
N375   N     0.71598   0.49999   0.24998   0.00000  Uiso   1.00
N376   N     0.95069   0.50002   0.24999   0.00000  Uiso   1.00
O377   O     0.79375   0.56011   0.25000   0.00000  Uiso   1.00
O378   O     0.87294   0.56012   0.25000   0.00000  Uiso   1.00
O379   O     0.77441   0.49998   0.32549   0.00000  Uiso   1.00
O380   O     0.85360   0.49999   0.32549   0.00000  Uiso   1.00
O381   O     0.79373   0.43988   0.24999   0.00000  Uiso   1.00
O382   O     0.87292   0.43989   0.24999   0.00000  Uiso   1.00
O383   O     0.81306   0.50001   0.17451   0.00000  Uiso   1.00
O384   O     0.89225   0.50002   0.17451   0.00000  Uiso   1.00
N385   N     0.93495   0.55750   0.31074   0.00000  Uiso   1.00
H386   H     0.91730   0.54571   0.34692   0.00000  Uiso   1.00
C387   C     0.95149   0.59948   0.31313   0.00000  Uiso   1.00
H388   H     0.91959   0.61983   0.32880   0.00000  Uiso   1.00
H389   H     0.97187   0.61039   0.27357   0.00000  Uiso   1.00
H390   H     0.97483   0.60174   0.33963   0.00000  Uiso   1.00
N391   N     0.95591   0.44100   0.41148   0.00000  Uiso   1.00
H392   H     0.97523   0.43281   0.43682   0.00000  Uiso   1.00
C393   C     0.98562   0.45615   0.36205   0.00000  Uiso   1.00
H394   H     0.68700   0.43881   0.34980   0.00000  Uiso   1.00
H395   H     0.99356   0.48924   0.36616   0.00000  Uiso   1.00
H396   H     0.96710   0.45159   0.33145   0.00000  Uiso   1.00
C397   C     0.16672   0.91256   0.24998   0.00000  Uiso   1.00
C398   C     0.14664   0.80931   0.48810   0.00000  Uiso   1.00
C399   C     0.16135   0.80863   0.43281   0.00000  Uiso   1.00
C400   C     0.18234   0.81326   0.01454   0.00000  Uiso   1.00
C401   C     0.23172   0.80973   0.48583   0.00000  Uiso   1.00
C402   C     0.24432   0.79519   0.43394   0.00000  Uiso   1.00
C403   C     0.20922   0.79621   0.40720   0.00000  Uiso   1.00
C404   C     0.17053   0.82267   0.06807   0.00000  Uiso   1.00
C405   C     0.25540   0.82976   0.06269   0.00000  Uiso   1.00
C406   C     0.12660   0.81715   0.40583   0.00000  Uiso   1.00
C407   C     0.21067   0.97879   0.23840   0.00000  Uiso   1.00
C408   C     0.14101   0.82835   0.34956   0.00000  Uiso   1.00
C409   C     0.21062   0.68809   0.23868   0.00000  Uiso   1.00
C410   C     0.16657   0.70946   0.24982   0.00000  Uiso   1.00
C411   C     0.12256   0.68791   0.26075   0.00000  Uiso   1.00
C412   C     0.12261   0.97859   0.26084   0.00000  Uiso   1.00
C413   C     0.16669   0.95722   0.24981   0.00000  Uiso   1.00
C414   C     0.30128   0.86246   0.27808   0.00000  Uiso   1.00
C415   C     0.01783   0.86244   0.27730   0.00000  Uiso   1.00
C416   C     0.03220   0.80490   0.22149   0.00000  Uiso   1.00
C417   C     0.31618   0.80501   0.22133   0.00000  Uiso   1.00
C418   C     0.16660   0.75411   0.24993   0.00000  Uiso   1.00
C419   C     0.19253   0.83307   0.14992   0.00000  Uiso   1.00
C420   C     0.26735   0.82136   0.00926   0.00000  Uiso   1.00
C421   C     0.20676   0.82885   0.09277   0.00000  Uiso   1.00
C422   C     0.07720   0.81455   0.43380   0.00000  Uiso   1.00
C423   C     0.06322   0.80557   0.48699   0.00000  Uiso   1.00
C424   C     0.09705   0.80529   0.01451   0.00000  Uiso   1.00
Cu425  Cu    0.11978   0.83333   0.25000   0.00000  Uiso   1.00
Cu426  Cu    0.21355   0.83334   0.25000   0.00000  Uiso   1.00
H427   H     0.28396   0.83706   0.08027   0.00000  Uiso   1.00
H428   H     0.24503   0.70423   0.22965   0.00000  Uiso   1.00
H429   H     0.08815   0.70393   0.26965   0.00000  Uiso   1.00
H430   H     0.08821   0.96244   0.26986   0.00000  Uiso   1.00
H431   H     0.03099   0.88470   0.30029   0.00000  Uiso   1.00
H432   H     0.05662   0.78192   0.19867   0.00000  Uiso   1.00
H433   H     0.30382   0.78213   0.19837   0.00000  Uiso   1.00
H434   H     0.30382   0.82590   0.48505   0.00000  Uiso   1.00
H435   H     0.13323   0.82600   0.09109   0.00000  Uiso   1.00
H436   H     0.04953   0.81846   0.41443   0.00000  Uiso   1.00
H437   H     0.08369   0.79972   0.05594   0.00000  Uiso   1.00
H438   H     0.02622   0.79918   0.00823   0.00000  Uiso   1.00
H439   H     0.21849   0.78401   0.36785   0.00000  Uiso   1.00
H440   H     0.24506   0.96277   0.22873   0.00000  Uiso   1.00
N441   N     0.04931   0.83332   0.24998   0.00000  Uiso   1.00
N442   N     0.28402   0.83335   0.24999   0.00000  Uiso   1.00
O443   O     0.12708   0.89345   0.25000   0.00000  Uiso   1.00
O444   O     0.20627   0.89346   0.25000   0.00000  Uiso   1.00
O445   O     0.10775   0.83332   0.32549   0.00000  Uiso   1.00
O446   O     0.18694   0.83333   0.32549   0.00000  Uiso   1.00
O447   O     0.12706   0.77321   0.24999   0.00000  Uiso   1.00
O448   O     0.20625   0.77322   0.24999   0.00000  Uiso   1.00
O449   O     0.14640   0.83334   0.17451   0.00000  Uiso   1.00
O450   O     0.22559   0.83335   0.17451   0.00000  Uiso   1.00
N451   N     0.26828   0.89084   0.31074   0.00000  Uiso   1.00
H452   H     0.25064   0.87904   0.34692   0.00000  Uiso   1.00
C453   C     0.28482   0.93281   0.31313   0.00000  Uiso   1.00
H454   H     0.25292   0.95317   0.32880   0.00000  Uiso   1.00
H455   H     0.30520   0.94372   0.27357   0.00000  Uiso   1.00
H456   H     0.30816   0.93507   0.33963   0.00000  Uiso   1.00
N457   N     0.28924   0.77434   0.41148   0.00000  Uiso   1.00
H458   H     0.30857   0.76614   0.43682   0.00000  Uiso   1.00
C459   C     0.31896   0.78948   0.36205   0.00000  Uiso   1.00
H460   H     0.02034   0.77214   0.34980   0.00000  Uiso   1.00
H461   H     0.32689   0.82258   0.36616   0.00000  Uiso   1.00
H462   H     0.30043   0.78492   0.33145   0.00000  Uiso   1.00
C463   C     0.50006   0.91256   0.24998   0.00000  Uiso   1.00
C464   C     0.47997   0.80931   0.48810   0.00000  Uiso   1.00
C465   C     0.49468   0.80863   0.43281   0.00000  Uiso   1.00
C466   C     0.51568   0.81326   0.01454   0.00000  Uiso   1.00
C467   C     0.56505   0.80973   0.48583   0.00000  Uiso   1.00
C468   C     0.57766   0.79519   0.43394   0.00000  Uiso   1.00
C469   C     0.54255   0.79621   0.40720   0.00000  Uiso   1.00
C470   C     0.50387   0.82267   0.06807   0.00000  Uiso   1.00
C471   C     0.58873   0.82976   0.06269   0.00000  Uiso   1.00
C472   C     0.45994   0.81715   0.40583   0.00000  Uiso   1.00
C473   C     0.54400   0.97879   0.23840   0.00000  Uiso   1.00
C474   C     0.47435   0.82835   0.34956   0.00000  Uiso   1.00
C475   C     0.54395   0.68809   0.23868   0.00000  Uiso   1.00
C476   C     0.49990   0.70946   0.24982   0.00000  Uiso   1.00
C477   C     0.45589   0.68791   0.26075   0.00000  Uiso   1.00
C478   C     0.45595   0.97859   0.26084   0.00000  Uiso   1.00
C479   C     0.50002   0.95722   0.24981   0.00000  Uiso   1.00
C480   C     0.63461   0.86246   0.27808   0.00000  Uiso   1.00
C481   C     0.35116   0.86244   0.27730   0.00000  Uiso   1.00
C482   C     0.36553   0.80490   0.22149   0.00000  Uiso   1.00
C483   C     0.64951   0.80501   0.22133   0.00000  Uiso   1.00
C484   C     0.49994   0.75411   0.24993   0.00000  Uiso   1.00
C485   C     0.52586   0.83307   0.14992   0.00000  Uiso   1.00
C486   C     0.60068   0.82136   0.00926   0.00000  Uiso   1.00
C487   C     0.54009   0.82885   0.09277   0.00000  Uiso   1.00
C488   C     0.41054   0.81455   0.43380   0.00000  Uiso   1.00
C489   C     0.39655   0.80557   0.48699   0.00000  Uiso   1.00
C490   C     0.43038   0.80529   0.01451   0.00000  Uiso   1.00
Cu491  Cu    0.45311   0.83333   0.25000   0.00000  Uiso   1.00
Cu492  Cu    0.54689   0.83334   0.25000   0.00000  Uiso   1.00
H493   H     0.61729   0.83706   0.08027   0.00000  Uiso   1.00
H494   H     0.57837   0.70423   0.22965   0.00000  Uiso   1.00
H495   H     0.42148   0.70393   0.26965   0.00000  Uiso   1.00
H496   H     0.42154   0.96244   0.26986   0.00000  Uiso   1.00
H497   H     0.36432   0.88470   0.30029   0.00000  Uiso   1.00
H498   H     0.38996   0.78192   0.19867   0.00000  Uiso   1.00
H499   H     0.63715   0.78213   0.19837   0.00000  Uiso   1.00
H500   H     0.63716   0.82590   0.48505   0.00000  Uiso   1.00
H501   H     0.46656   0.82600   0.09109   0.00000  Uiso   1.00
H502   H     0.38286   0.81846   0.41443   0.00000  Uiso   1.00
H503   H     0.41702   0.79972   0.05594   0.00000  Uiso   1.00
H504   H     0.35955   0.79918   0.00823   0.00000  Uiso   1.00
H505   H     0.55182   0.78401   0.36785   0.00000  Uiso   1.00
H506   H     0.57840   0.96277   0.22873   0.00000  Uiso   1.00
N507   N     0.38265   0.83332   0.24998   0.00000  Uiso   1.00
N508   N     0.61735   0.83335   0.24999   0.00000  Uiso   1.00
O509   O     0.46042   0.89345   0.25000   0.00000  Uiso   1.00
O510   O     0.53961   0.89346   0.25000   0.00000  Uiso   1.00
O511   O     0.44108   0.83332   0.32549   0.00000  Uiso   1.00
O512   O     0.52027   0.83333   0.32549   0.00000  Uiso   1.00
O513   O     0.46039   0.77321   0.24999   0.00000  Uiso   1.00
O514   O     0.53958   0.77322   0.24999   0.00000  Uiso   1.00
O515   O     0.47973   0.83334   0.17451   0.00000  Uiso   1.00
O516   O     0.55892   0.83335   0.17451   0.00000  Uiso   1.00
N517   N     0.60162   0.89084   0.31074   0.00000  Uiso   1.00
H518   H     0.58397   0.87904   0.34692   0.00000  Uiso   1.00
C519   C     0.61815   0.93281   0.31313   0.00000  Uiso   1.00
H520   H     0.58625   0.95317   0.32880   0.00000  Uiso   1.00
H521   H     0.63853   0.94372   0.27357   0.00000  Uiso   1.00
H522   H     0.64149   0.93507   0.33963   0.00000  Uiso   1.00
N523   N     0.62258   0.77434   0.41148   0.00000  Uiso   1.00
H524   H     0.64190   0.76614   0.43682   0.00000  Uiso   1.00
C525   C     0.65229   0.78948   0.36205   0.00000  Uiso   1.00
H526   H     0.35367   0.77214   0.34980   0.00000  Uiso   1.00
H527   H     0.66022   0.82258   0.36616   0.00000  Uiso   1.00
H528   H     0.63377   0.78492   0.33145   0.00000  Uiso   1.00
C529   C     0.83339   0.91256   0.24998   0.00000  Uiso   1.00
C530   C     0.81331   0.80931   0.48810   0.00000  Uiso   1.00
C531   C     0.82801   0.80863   0.43281   0.00000  Uiso   1.00
C532   C     0.84901   0.81326   0.01454   0.00000  Uiso   1.00
C533   C     0.89839   0.80973   0.48583   0.00000  Uiso   1.00
C534   C     0.91099   0.79519   0.43394   0.00000  Uiso   1.00
C535   C     0.87588   0.79621   0.40720   0.00000  Uiso   1.00
C536   C     0.83720   0.82267   0.06807   0.00000  Uiso   1.00
C537   C     0.92207   0.82976   0.06269   0.00000  Uiso   1.00
C538   C     0.79327   0.81715   0.40583   0.00000  Uiso   1.00
C539   C     0.87734   0.97879   0.23840   0.00000  Uiso   1.00
C540   C     0.80768   0.82835   0.34956   0.00000  Uiso   1.00
C541   C     0.87729   0.68809   0.23868   0.00000  Uiso   1.00
C542   C     0.83323   0.70946   0.24982   0.00000  Uiso   1.00
C543   C     0.78923   0.68791   0.26075   0.00000  Uiso   1.00
C544   C     0.78928   0.97859   0.26084   0.00000  Uiso   1.00
C545   C     0.83336   0.95722   0.24981   0.00000  Uiso   1.00
C546   C     0.96794   0.86246   0.27808   0.00000  Uiso   1.00
C547   C     0.68449   0.86244   0.27730   0.00000  Uiso   1.00
C548   C     0.69886   0.80490   0.22149   0.00000  Uiso   1.00
C549   C     0.98285   0.80501   0.22133   0.00000  Uiso   1.00
C550   C     0.83327   0.75411   0.24993   0.00000  Uiso   1.00
C551   C     0.85919   0.83307   0.14992   0.00000  Uiso   1.00
C552   C     0.93401   0.82136   0.00926   0.00000  Uiso   1.00
C553   C     0.87342   0.82885   0.09277   0.00000  Uiso   1.00
C554   C     0.74387   0.81455   0.43380   0.00000  Uiso   1.00
C555   C     0.72988   0.80557   0.48699   0.00000  Uiso   1.00
C556   C     0.76372   0.80529   0.01451   0.00000  Uiso   1.00
Cu557  Cu    0.78645   0.83333   0.25000   0.00000  Uiso   1.00
Cu558  Cu    0.88022   0.83334   0.25000   0.00000  Uiso   1.00
H559   H     0.95063   0.83706   0.08027   0.00000  Uiso   1.00
H560   H     0.91170   0.70423   0.22965   0.00000  Uiso   1.00
H561   H     0.75482   0.70393   0.26965   0.00000  Uiso   1.00
H562   H     0.75487   0.96244   0.26986   0.00000  Uiso   1.00
H563   H     0.69766   0.88470   0.30029   0.00000  Uiso   1.00
H564   H     0.72329   0.78192   0.19867   0.00000  Uiso   1.00
H565   H     0.97049   0.78213   0.19837   0.00000  Uiso   1.00
H566   H     0.97049   0.82590   0.48505   0.00000  Uiso   1.00
H567   H     0.79990   0.82600   0.09109   0.00000  Uiso   1.00
H568   H     0.71620   0.81846   0.41443   0.00000  Uiso   1.00
H569   H     0.75036   0.79972   0.05594   0.00000  Uiso   1.00
H570   H     0.69289   0.79918   0.00823   0.00000  Uiso   1.00
H571   H     0.88516   0.78401   0.36785   0.00000  Uiso   1.00
H572   H     0.91173   0.96277   0.22873   0.00000  Uiso   1.00
N573   N     0.71598   0.83332   0.24998   0.00000  Uiso   1.00
N574   N     0.95069   0.83335   0.24999   0.00000  Uiso   1.00
O575   O     0.79375   0.89345   0.25000   0.00000  Uiso   1.00
O576   O     0.87294   0.89346   0.25000   0.00000  Uiso   1.00
O577   O     0.77441   0.83332   0.32549   0.00000  Uiso   1.00
O578   O     0.85360   0.83333   0.32549   0.00000  Uiso   1.00
O579   O     0.79373   0.77321   0.24999   0.00000  Uiso   1.00
O580   O     0.87292   0.77322   0.24999   0.00000  Uiso   1.00
O581   O     0.81306   0.83334   0.17451   0.00000  Uiso   1.00
O582   O     0.89225   0.83335   0.17451   0.00000  Uiso   1.00
N583   N     0.93495   0.89084   0.31074   0.00000  Uiso   1.00
H584   H     0.91730   0.87904   0.34692   0.00000  Uiso   1.00
C585   C     0.95149   0.93281   0.31313   0.00000  Uiso   1.00
H586   H     0.91959   0.95317   0.32880   0.00000  Uiso   1.00
H587   H     0.97187   0.94372   0.27357   0.00000  Uiso   1.00
H588   H     0.97483   0.93507   0.33963   0.00000  Uiso   1.00
N589   N     0.95591   0.77434   0.41148   0.00000  Uiso   1.00
H590   H     0.97523   0.76614   0.43682   0.00000  Uiso   1.00
C591   C     0.98562   0.78948   0.36205   0.00000  Uiso   1.00
H592   H     0.68700   0.77214   0.34980   0.00000  Uiso   1.00
H593   H     0.99356   0.82258   0.36616   0.00000  Uiso   1.00
H594   H     0.96710   0.78492   0.33145   0.00000  Uiso   1.00
C595   C     0.16672   0.24589   0.74998   0.00000  Uiso   1.00
C596   C     0.14664   0.14264   0.98810   0.00000  Uiso   1.00
C597   C     0.16135   0.14196   0.93281   0.00000  Uiso   1.00
C598   C     0.18234   0.14659   0.51454   0.00000  Uiso   1.00
C599   C     0.23172   0.14307   0.98583   0.00000  Uiso   1.00
C600   C     0.24432   0.12852   0.93394   0.00000  Uiso   1.00
C601   C     0.20922   0.12954   0.90720   0.00000  Uiso   1.00
C602   C     0.17053   0.15600   0.56807   0.00000  Uiso   1.00
C603   C     0.25540   0.16310   0.56269   0.00000  Uiso   1.00
C604   C     0.12660   0.15048   0.90583   0.00000  Uiso   1.00
C605   C     0.21067   0.31212   0.73840   0.00000  Uiso   1.00
C606   C     0.14101   0.16168   0.84956   0.00000  Uiso   1.00
C607   C     0.21062   0.02142   0.73868   0.00000  Uiso   1.00
C608   C     0.16657   0.04280   0.74982   0.00000  Uiso   1.00
C609   C     0.12256   0.02124   0.76075   0.00000  Uiso   1.00
C610   C     0.12261   0.31193   0.76084   0.00000  Uiso   1.00
C611   C     0.16669   0.29055   0.74981   0.00000  Uiso   1.00
C612   C     0.30128   0.19580   0.77808   0.00000  Uiso   1.00
C613   C     0.01783   0.19577   0.77730   0.00000  Uiso   1.00
C614   C     0.03220   0.13823   0.72149   0.00000  Uiso   1.00
C615   C     0.31618   0.13834   0.72133   0.00000  Uiso   1.00
C616   C     0.16660   0.08744   0.74993   0.00000  Uiso   1.00
C617   C     0.19253   0.16640   0.64992   0.00000  Uiso   1.00
C618   C     0.26735   0.15470   0.50926   0.00000  Uiso   1.00
C619   C     0.20676   0.16218   0.59277   0.00000  Uiso   1.00
C620   C     0.07720   0.14788   0.93380   0.00000  Uiso   1.00
C621   C     0.06322   0.13890   0.98699   0.00000  Uiso   1.00
C622   C     0.09705   0.13862   0.51451   0.00000  Uiso   1.00
Cu623  Cu    0.11978   0.16666   0.75000   0.00000  Uiso   1.00
Cu624  Cu    0.21355   0.16667   0.75000   0.00000  Uiso   1.00
H625   H     0.28396   0.17039   0.58027   0.00000  Uiso   1.00
H626   H     0.24503   0.03756   0.72965   0.00000  Uiso   1.00
H627   H     0.08815   0.03727   0.76965   0.00000  Uiso   1.00
H628   H     0.08821   0.29577   0.76986   0.00000  Uiso   1.00
H629   H     0.03099   0.21803   0.80029   0.00000  Uiso   1.00
H630   H     0.05662   0.11525   0.69867   0.00000  Uiso   1.00
H631   H     0.30382   0.11546   0.69837   0.00000  Uiso   1.00
H632   H     0.30382   0.15924   0.98505   0.00000  Uiso   1.00
H633   H     0.13323   0.15933   0.59109   0.00000  Uiso   1.00
H634   H     0.04953   0.15179   0.91443   0.00000  Uiso   1.00
H635   H     0.08369   0.13305   0.55594   0.00000  Uiso   1.00
H636   H     0.02622   0.13252   0.50823   0.00000  Uiso   1.00
H637   H     0.21849   0.11735   0.86785   0.00000  Uiso   1.00
H638   H     0.24506   0.29611   0.72873   0.00000  Uiso   1.00
N639   N     0.04931   0.16666   0.74998   0.00000  Uiso   1.00
N640   N     0.28402   0.16669   0.74999   0.00000  Uiso   1.00
O641   O     0.12708   0.22678   0.75000   0.00000  Uiso   1.00
O642   O     0.20627   0.22679   0.75000   0.00000  Uiso   1.00
O643   O     0.10775   0.16665   0.82549   0.00000  Uiso   1.00
O644   O     0.18694   0.16666   0.82549   0.00000  Uiso   1.00
O645   O     0.12706   0.10654   0.74999   0.00000  Uiso   1.00
O646   O     0.20625   0.10655   0.74999   0.00000  Uiso   1.00
O647   O     0.14640   0.16667   0.67451   0.00000  Uiso   1.00
O648   O     0.22559   0.16668   0.67451   0.00000  Uiso   1.00
N649   N     0.26828   0.22417   0.81074   0.00000  Uiso   1.00
H650   H     0.25064   0.21238   0.84692   0.00000  Uiso   1.00
C651   C     0.28482   0.26614   0.81313   0.00000  Uiso   1.00
H652   H     0.25292   0.28650   0.82880   0.00000  Uiso   1.00
H653   H     0.30520   0.27705   0.77357   0.00000  Uiso   1.00
H654   H     0.30816   0.26841   0.83963   0.00000  Uiso   1.00
N655   N     0.28924   0.10767   0.91148   0.00000  Uiso   1.00
H656   H     0.30857   0.09948   0.93682   0.00000  Uiso   1.00
C657   C     0.31896   0.12281   0.86205   0.00000  Uiso   1.00
H658   H     0.02034   0.10548   0.84980   0.00000  Uiso   1.00
H659   H     0.32689   0.15591   0.86616   0.00000  Uiso   1.00
H660   H     0.30043   0.11826   0.83145   0.00000  Uiso   1.00
C661   C     0.50006   0.24589   0.74998   0.00000  Uiso   1.00
C662   C     0.47997   0.14264   0.98810   0.00000  Uiso   1.00
C663   C     0.49468   0.14196   0.93281   0.00000  Uiso   1.00
C664   C     0.51568   0.14659   0.51454   0.00000  Uiso   1.00
C665   C     0.56505   0.14307   0.98583   0.00000  Uiso   1.00
C666   C     0.57766   0.12852   0.93394   0.00000  Uiso   1.00
C667   C     0.54255   0.12954   0.90720   0.00000  Uiso   1.00
C668   C     0.50387   0.15600   0.56807   0.00000  Uiso   1.00
C669   C     0.58873   0.16310   0.56269   0.00000  Uiso   1.00
C670   C     0.45994   0.15048   0.90583   0.00000  Uiso   1.00
C671   C     0.54400   0.31212   0.73840   0.00000  Uiso   1.00
C672   C     0.47435   0.16168   0.84956   0.00000  Uiso   1.00
C673   C     0.54395   0.02142   0.73868   0.00000  Uiso   1.00
C674   C     0.49990   0.04280   0.74982   0.00000  Uiso   1.00
C675   C     0.45589   0.02124   0.76075   0.00000  Uiso   1.00
C676   C     0.45595   0.31193   0.76084   0.00000  Uiso   1.00
C677   C     0.50002   0.29055   0.74981   0.00000  Uiso   1.00
C678   C     0.63461   0.19580   0.77808   0.00000  Uiso   1.00
C679   C     0.35116   0.19577   0.77730   0.00000  Uiso   1.00
C680   C     0.36553   0.13823   0.72149   0.00000  Uiso   1.00
C681   C     0.64951   0.13834   0.72133   0.00000  Uiso   1.00
C682   C     0.49994   0.08744   0.74993   0.00000  Uiso   1.00
C683   C     0.52586   0.16640   0.64992   0.00000  Uiso   1.00
C684   C     0.60068   0.15470   0.50926   0.00000  Uiso   1.00
C685   C     0.54009   0.16218   0.59277   0.00000  Uiso   1.00
C686   C     0.41054   0.14788   0.93380   0.00000  Uiso   1.00
C687   C     0.39655   0.13890   0.98699   0.00000  Uiso   1.00
C688   C     0.43038   0.13862   0.51451   0.00000  Uiso   1.00
Cu689  Cu    0.45311   0.16666   0.75000   0.00000  Uiso   1.00
Cu690  Cu    0.54689   0.16667   0.75000   0.00000  Uiso   1.00
H691   H     0.61729   0.17039   0.58027   0.00000  Uiso   1.00
H692   H     0.57837   0.03756   0.72965   0.00000  Uiso   1.00
H693   H     0.42148   0.03727   0.76965   0.00000  Uiso   1.00
H694   H     0.42154   0.29577   0.76986   0.00000  Uiso   1.00
H695   H     0.36432   0.21803   0.80029   0.00000  Uiso   1.00
H696   H     0.38996   0.11525   0.69867   0.00000  Uiso   1.00
H697   H     0.63715   0.11546   0.69837   0.00000  Uiso   1.00
H698   H     0.63716   0.15924   0.98505   0.00000  Uiso   1.00
H699   H     0.46656   0.15933   0.59109   0.00000  Uiso   1.00
H700   H     0.38286   0.15179   0.91443   0.00000  Uiso   1.00
H701   H     0.41702   0.13305   0.55594   0.00000  Uiso   1.00
H702   H     0.35955   0.13252   0.50823   0.00000  Uiso   1.00
H703   H     0.55182   0.11735   0.86785   0.00000  Uiso   1.00
H704   H     0.57840   0.29611   0.72873   0.00000  Uiso   1.00
N705   N     0.38265   0.16666   0.74998   0.00000  Uiso   1.00
N706   N     0.61735   0.16669   0.74999   0.00000  Uiso   1.00
O707   O     0.46042   0.22678   0.75000   0.00000  Uiso   1.00
O708   O     0.53961   0.22679   0.75000   0.00000  Uiso   1.00
O709   O     0.44108   0.16665   0.82549   0.00000  Uiso   1.00
O710   O     0.52027   0.16666   0.82549   0.00000  Uiso   1.00
O711   O     0.46039   0.10654   0.74999   0.00000  Uiso   1.00
O712   O     0.53958   0.10655   0.74999   0.00000  Uiso   1.00
O713   O     0.47973   0.16667   0.67451   0.00000  Uiso   1.00
O714   O     0.55892   0.16668   0.67451   0.00000  Uiso   1.00
N715   N     0.60162   0.22417   0.81074   0.00000  Uiso   1.00
H716   H     0.58397   0.21238   0.84692   0.00000  Uiso   1.00
C717   C     0.61815   0.26614   0.81313   0.00000  Uiso   1.00
H718   H     0.58625   0.28650   0.82880   0.00000  Uiso   1.00
H719   H     0.63853   0.27705   0.77357   0.00000  Uiso   1.00
H720   H     0.64149   0.26841   0.83963   0.00000  Uiso   1.00
N721   N     0.62258   0.10767   0.91148   0.00000  Uiso   1.00
H722   H     0.64190   0.09948   0.93682   0.00000  Uiso   1.00
C723   C     0.65229   0.12281   0.86205   0.00000  Uiso   1.00
H724   H     0.35367   0.10548   0.84980   0.00000  Uiso   1.00
H725   H     0.66022   0.15591   0.86616   0.00000  Uiso   1.00
H726   H     0.63377   0.11826   0.83145   0.00000  Uiso   1.00
C727   C     0.83339   0.24589   0.74998   0.00000  Uiso   1.00
C728   C     0.81331   0.14264   0.98810   0.00000  Uiso   1.00
C729   C     0.82801   0.14196   0.93281   0.00000  Uiso   1.00
C730   C     0.84901   0.14659   0.51454   0.00000  Uiso   1.00
C731   C     0.89839   0.14307   0.98583   0.00000  Uiso   1.00
C732   C     0.91099   0.12852   0.93394   0.00000  Uiso   1.00
C733   C     0.87588   0.12954   0.90720   0.00000  Uiso   1.00
C734   C     0.83720   0.15600   0.56807   0.00000  Uiso   1.00
C735   C     0.92207   0.16310   0.56269   0.00000  Uiso   1.00
C736   C     0.79327   0.15048   0.90583   0.00000  Uiso   1.00
C737   C     0.87734   0.31212   0.73840   0.00000  Uiso   1.00
C738   C     0.80768   0.16168   0.84956   0.00000  Uiso   1.00
C739   C     0.87729   0.02142   0.73868   0.00000  Uiso   1.00
C740   C     0.83323   0.04280   0.74982   0.00000  Uiso   1.00
C741   C     0.78923   0.02124   0.76075   0.00000  Uiso   1.00
C742   C     0.78928   0.31193   0.76084   0.00000  Uiso   1.00
C743   C     0.83336   0.29055   0.74981   0.00000  Uiso   1.00
C744   C     0.96794   0.19580   0.77808   0.00000  Uiso   1.00
C745   C     0.68449   0.19577   0.77730   0.00000  Uiso   1.00
C746   C     0.69886   0.13823   0.72149   0.00000  Uiso   1.00
C747   C     0.98285   0.13834   0.72133   0.00000  Uiso   1.00
C748   C     0.83327   0.08744   0.74993   0.00000  Uiso   1.00
C749   C     0.85919   0.16640   0.64992   0.00000  Uiso   1.00
C750   C     0.93401   0.15470   0.50926   0.00000  Uiso   1.00
C751   C     0.87342   0.16218   0.59277   0.00000  Uiso   1.00
C752   C     0.74387   0.14788   0.93380   0.00000  Uiso   1.00
C753   C     0.72988   0.13890   0.98699   0.00000  Uiso   1.00
C754   C     0.76372   0.13862   0.51451   0.00000  Uiso   1.00
Cu755  Cu    0.78645   0.16666   0.75000   0.00000  Uiso   1.00
Cu756  Cu    0.88022   0.16667   0.75000   0.00000  Uiso   1.00
H757   H     0.95063   0.17039   0.58027   0.00000  Uiso   1.00
H758   H     0.91170   0.03756   0.72965   0.00000  Uiso   1.00
H759   H     0.75482   0.03727   0.76965   0.00000  Uiso   1.00
H760   H     0.75487   0.29577   0.76986   0.00000  Uiso   1.00
H761   H     0.69766   0.21803   0.80029   0.00000  Uiso   1.00
H762   H     0.72329   0.11525   0.69867   0.00000  Uiso   1.00
H763   H     0.97049   0.11546   0.69837   0.00000  Uiso   1.00
H764   H     0.97049   0.15924   0.98505   0.00000  Uiso   1.00
H765   H     0.79990   0.15933   0.59109   0.00000  Uiso   1.00
H766   H     0.71620   0.15179   0.91443   0.00000  Uiso   1.00
H767   H     0.75036   0.13305   0.55594   0.00000  Uiso   1.00
H768   H     0.69289   0.13252   0.50823   0.00000  Uiso   1.00
H769   H     0.88516   0.11735   0.86785   0.00000  Uiso   1.00
H770   H     0.91173   0.29611   0.72873   0.00000  Uiso   1.00
N771   N     0.71598   0.16666   0.74998   0.00000  Uiso   1.00
N772   N     0.95069   0.16669   0.74999   0.00000  Uiso   1.00
O773   O     0.79375   0.22678   0.75000   0.00000  Uiso   1.00
O774   O     0.87294   0.22679   0.75000   0.00000  Uiso   1.00
O775   O     0.77441   0.16665   0.82549   0.00000  Uiso   1.00
O776   O     0.85360   0.16666   0.82549   0.00000  Uiso   1.00
O777   O     0.79373   0.10654   0.74999   0.00000  Uiso   1.00
O778   O     0.87292   0.10655   0.74999   0.00000  Uiso   1.00
O779   O     0.81306   0.16667   0.67451   0.00000  Uiso   1.00
O780   O     0.89225   0.16668   0.67451   0.00000  Uiso   1.00
N781   N     0.93495   0.22417   0.81074   0.00000  Uiso   1.00
H782   H     0.91730   0.21238   0.84692   0.00000  Uiso   1.00
C783   C     0.95149   0.26614   0.81313   0.00000  Uiso   1.00
H784   H     0.91959   0.28650   0.82880   0.00000  Uiso   1.00
H785   H     0.97187   0.27705   0.77357   0.00000  Uiso   1.00
H786   H     0.97483   0.26841   0.83963   0.00000  Uiso   1.00
N787   N     0.95591   0.10767   0.91148   0.00000  Uiso   1.00
H788   H     0.97523   0.09948   0.93682   0.00000  Uiso   1.00
C789   C     0.98562   0.12281   0.86205   0.00000  Uiso   1.00
H790   H     0.68700   0.10548   0.84980   0.00000  Uiso   1.00
H791   H     0.99356   0.15591   0.86616   0.00000  Uiso   1.00
H792   H     0.96710   0.11826   0.83145   0.00000  Uiso   1.00
C793   C     0.16672   0.57923   0.74998   0.00000  Uiso   1.00
C794   C     0.14664   0.47598   0.98810   0.00000  Uiso   1.00
C795   C     0.16135   0.47529   0.93281   0.00000  Uiso   1.00
C796   C     0.18234   0.47993   0.51454   0.00000  Uiso   1.00
C797   C     0.23172   0.47640   0.98583   0.00000  Uiso   1.00
C798   C     0.24432   0.46185   0.93394   0.00000  Uiso   1.00
C799   C     0.20922   0.46287   0.90720   0.00000  Uiso   1.00
C800   C     0.17053   0.48934   0.56807   0.00000  Uiso   1.00
C801   C     0.25540   0.49643   0.56269   0.00000  Uiso   1.00
C802   C     0.12660   0.48381   0.90583   0.00000  Uiso   1.00
C803   C     0.21067   0.64545   0.73840   0.00000  Uiso   1.00
C804   C     0.14101   0.49501   0.84956   0.00000  Uiso   1.00
C805   C     0.21062   0.35475   0.73868   0.00000  Uiso   1.00
C806   C     0.16657   0.37613   0.74982   0.00000  Uiso   1.00
C807   C     0.12256   0.35458   0.76075   0.00000  Uiso   1.00
C808   C     0.12261   0.64526   0.76084   0.00000  Uiso   1.00
C809   C     0.16669   0.62389   0.74981   0.00000  Uiso   1.00
C810   C     0.30128   0.52913   0.77808   0.00000  Uiso   1.00
C811   C     0.01783   0.52911   0.77730   0.00000  Uiso   1.00
C812   C     0.03220   0.47157   0.72149   0.00000  Uiso   1.00
C813   C     0.31618   0.47167   0.72133   0.00000  Uiso   1.00
C814   C     0.16660   0.42078   0.74993   0.00000  Uiso   1.00
C815   C     0.19253   0.49974   0.64992   0.00000  Uiso   1.00
C816   C     0.26735   0.48803   0.50926   0.00000  Uiso   1.00
C817   C     0.20676   0.49552   0.59277   0.00000  Uiso   1.00
C818   C     0.07720   0.48121   0.93380   0.00000  Uiso   1.00
C819   C     0.06322   0.47224   0.98699   0.00000  Uiso   1.00
C820   C     0.09705   0.47195   0.51451   0.00000  Uiso   1.00
Cu821  Cu    0.11978   0.49999   0.75000   0.00000  Uiso   1.00
Cu822  Cu    0.21355   0.50001   0.75000   0.00000  Uiso   1.00
H823   H     0.28396   0.50373   0.58027   0.00000  Uiso   1.00
H824   H     0.24503   0.37089   0.72965   0.00000  Uiso   1.00
H825   H     0.08815   0.37060   0.76965   0.00000  Uiso   1.00
H826   H     0.08821   0.62910   0.76986   0.00000  Uiso   1.00
H827   H     0.03099   0.55137   0.80029   0.00000  Uiso   1.00
H828   H     0.05662   0.44859   0.69867   0.00000  Uiso   1.00
H829   H     0.30382   0.44880   0.69837   0.00000  Uiso   1.00
H830   H     0.30382   0.49257   0.98505   0.00000  Uiso   1.00
H831   H     0.13323   0.49266   0.59109   0.00000  Uiso   1.00
H832   H     0.04953   0.48512   0.91443   0.00000  Uiso   1.00
H833   H     0.08369   0.46638   0.55594   0.00000  Uiso   1.00
H834   H     0.02622   0.46585   0.50823   0.00000  Uiso   1.00
H835   H     0.21849   0.45068   0.86785   0.00000  Uiso   1.00
H836   H     0.24506   0.62944   0.72873   0.00000  Uiso   1.00
N837   N     0.04931   0.49999   0.74998   0.00000  Uiso   1.00
N838   N     0.28402   0.50002   0.74999   0.00000  Uiso   1.00
O839   O     0.12708   0.56011   0.75000   0.00000  Uiso   1.00
O840   O     0.20627   0.56012   0.75000   0.00000  Uiso   1.00
O841   O     0.10775   0.49998   0.82549   0.00000  Uiso   1.00
O842   O     0.18694   0.49999   0.82549   0.00000  Uiso   1.00
O843   O     0.12706   0.43988   0.74999   0.00000  Uiso   1.00
O844   O     0.20625   0.43989   0.74999   0.00000  Uiso   1.00
O845   O     0.14640   0.50001   0.67451   0.00000  Uiso   1.00
O846   O     0.22559   0.50002   0.67451   0.00000  Uiso   1.00
N847   N     0.26828   0.55750   0.81074   0.00000  Uiso   1.00
H848   H     0.25064   0.54571   0.84692   0.00000  Uiso   1.00
C849   C     0.28482   0.59948   0.81313   0.00000  Uiso   1.00
H850   H     0.25292   0.61983   0.82880   0.00000  Uiso   1.00
H851   H     0.30520   0.61039   0.77357   0.00000  Uiso   1.00
H852   H     0.30816   0.60174   0.83963   0.00000  Uiso   1.00
N853   N     0.28924   0.44100   0.91148   0.00000  Uiso   1.00
H854   H     0.30857   0.43281   0.93682   0.00000  Uiso   1.00
C855   C     0.31896   0.45615   0.86205   0.00000  Uiso   1.00
H856   H     0.02034   0.43881   0.84980   0.00000  Uiso   1.00
H857   H     0.32689   0.48924   0.86616   0.00000  Uiso   1.00
H858   H     0.30043   0.45159   0.83145   0.00000  Uiso   1.00
C859   C     0.50006   0.57923   0.74998   0.00000  Uiso   1.00
C860   C     0.47997   0.47598   0.98810   0.00000  Uiso   1.00
C861   C     0.49468   0.47529   0.93281   0.00000  Uiso   1.00
C862   C     0.51568   0.47993   0.51454   0.00000  Uiso   1.00
C863   C     0.56505   0.47640   0.98583   0.00000  Uiso   1.00
C864   C     0.57766   0.46185   0.93394   0.00000  Uiso   1.00
C865   C     0.54255   0.46287   0.90720   0.00000  Uiso   1.00
C866   C     0.50387   0.48934   0.56807   0.00000  Uiso   1.00
C867   C     0.58873   0.49643   0.56269   0.00000  Uiso   1.00
C868   C     0.45994   0.48381   0.90583   0.00000  Uiso   1.00
C869   C     0.54400   0.64545   0.73840   0.00000  Uiso   1.00
C870   C     0.47435   0.49501   0.84956   0.00000  Uiso   1.00
C871   C     0.54395   0.35475   0.73868   0.00000  Uiso   1.00
C872   C     0.49990   0.37613   0.74982   0.00000  Uiso   1.00
C873   C     0.45589   0.35458   0.76075   0.00000  Uiso   1.00
C874   C     0.45595   0.64526   0.76084   0.00000  Uiso   1.00
C875   C     0.50002   0.62389   0.74981   0.00000  Uiso   1.00
C876   C     0.63461   0.52913   0.77808   0.00000  Uiso   1.00
C877   C     0.35116   0.52911   0.77730   0.00000  Uiso   1.00
C878   C     0.36553   0.47157   0.72149   0.00000  Uiso   1.00
C879   C     0.64951   0.47167   0.72133   0.00000  Uiso   1.00
C880   C     0.49994   0.42078   0.74993   0.00000  Uiso   1.00
C881   C     0.52586   0.49974   0.64992   0.00000  Uiso   1.00
C882   C     0.60068   0.48803   0.50926   0.00000  Uiso   1.00
C883   C     0.54009   0.49552   0.59277   0.00000  Uiso   1.00
C884   C     0.41054   0.48121   0.93380   0.00000  Uiso   1.00
C885   C     0.39655   0.47224   0.98699   0.00000  Uiso   1.00
C886   C     0.43038   0.47195   0.51451   0.00000  Uiso   1.00
Cu887  Cu    0.45311   0.49999   0.75000   0.00000  Uiso   1.00
Cu888  Cu    0.54689   0.50001   0.75000   0.00000  Uiso   1.00
H889   H     0.61729   0.50373   0.58027   0.00000  Uiso   1.00
H890   H     0.57837   0.37089   0.72965   0.00000  Uiso   1.00
H891   H     0.42148   0.37060   0.76965   0.00000  Uiso   1.00
H892   H     0.42154   0.62910   0.76986   0.00000  Uiso   1.00
H893   H     0.36432   0.55137   0.80029   0.00000  Uiso   1.00
H894   H     0.38996   0.44859   0.69867   0.00000  Uiso   1.00
H895   H     0.63715   0.44880   0.69837   0.00000  Uiso   1.00
H896   H     0.63716   0.49257   0.98505   0.00000  Uiso   1.00
H897   H     0.46656   0.49266   0.59109   0.00000  Uiso   1.00
H898   H     0.38286   0.48512   0.91443   0.00000  Uiso   1.00
H899   H     0.41702   0.46638   0.55594   0.00000  Uiso   1.00
H900   H     0.35955   0.46585   0.50823   0.00000  Uiso   1.00
H901   H     0.55182   0.45068   0.86785   0.00000  Uiso   1.00
H902   H     0.57840   0.62944   0.72873   0.00000  Uiso   1.00
N903   N     0.38265   0.49999   0.74998   0.00000  Uiso   1.00
N904   N     0.61735   0.50002   0.74999   0.00000  Uiso   1.00
O905   O     0.46042   0.56011   0.75000   0.00000  Uiso   1.00
O906   O     0.53961   0.56012   0.75000   0.00000  Uiso   1.00
O907   O     0.44108   0.49998   0.82549   0.00000  Uiso   1.00
O908   O     0.52027   0.49999   0.82549   0.00000  Uiso   1.00
O909   O     0.46039   0.43988   0.74999   0.00000  Uiso   1.00
O910   O     0.53958   0.43989   0.74999   0.00000  Uiso   1.00
O911   O     0.47973   0.50001   0.67451   0.00000  Uiso   1.00
O912   O     0.55892   0.50002   0.67451   0.00000  Uiso   1.00
N913   N     0.60162   0.55750   0.81074   0.00000  Uiso   1.00
H914   H     0.58397   0.54571   0.84692   0.00000  Uiso   1.00
C915   C     0.61815   0.59948   0.81313   0.00000  Uiso   1.00
H916   H     0.58625   0.61983   0.82880   0.00000  Uiso   1.00
H917   H     0.63853   0.61039   0.77357   0.00000  Uiso   1.00
H918   H     0.64149   0.60174   0.83963   0.00000  Uiso   1.00
N919   N     0.62258   0.44100   0.91148   0.00000  Uiso   1.00
H920   H     0.64190   0.43281   0.93682   0.00000  Uiso   1.00
C921   C     0.65229   0.45615   0.86205   0.00000  Uiso   1.00
H922   H     0.35367   0.43881   0.84980   0.00000  Uiso   1.00
H923   H     0.66022   0.48924   0.86616   0.00000  Uiso   1.00
H924   H     0.63377   0.45159   0.83145   0.00000  Uiso   1.00
C925   C     0.83339   0.57923   0.74998   0.00000  Uiso   1.00
C926   C     0.81331   0.47598   0.98810   0.00000  Uiso   1.00
C927   C     0.82801   0.47529   0.93281   0.00000  Uiso   1.00
C928   C     0.84901   0.47993   0.51454   0.00000  Uiso   1.00
C929   C     0.89839   0.47640   0.98583   0.00000  Uiso   1.00
C930   C     0.91099   0.46185   0.93394   0.00000  Uiso   1.00
C931   C     0.87588   0.46287   0.90720   0.00000  Uiso   1.00
C932   C     0.83720   0.48934   0.56807   0.00000  Uiso   1.00
C933   C     0.92207   0.49643   0.56269   0.00000  Uiso   1.00
C934   C     0.79327   0.48381   0.90583   0.00000  Uiso   1.00
C935   C     0.87734   0.64545   0.73840   0.00000  Uiso   1.00
C936   C     0.80768   0.49501   0.84956   0.00000  Uiso   1.00
C937   C     0.87729   0.35475   0.73868   0.00000  Uiso   1.00
C938   C     0.83323   0.37613   0.74982   0.00000  Uiso   1.00
C939   C     0.78923   0.35458   0.76075   0.00000  Uiso   1.00
C940   C     0.78928   0.64526   0.76084   0.00000  Uiso   1.00
C941   C     0.83336   0.62389   0.74981   0.00000  Uiso   1.00
C942   C     0.96794   0.52913   0.77808   0.00000  Uiso   1.00
C943   C     0.68449   0.52911   0.77730   0.00000  Uiso   1.00
C944   C     0.69886   0.47157   0.72149   0.00000  Uiso   1.00
C945   C     0.98285   0.47167   0.72133   0.00000  Uiso   1.00
C946   C     0.83327   0.42078   0.74993   0.00000  Uiso   1.00
C947   C     0.85919   0.49974   0.64992   0.00000  Uiso   1.00
C948   C     0.93401   0.48803   0.50926   0.00000  Uiso   1.00
C949   C     0.87342   0.49552   0.59277   0.00000  Uiso   1.00
C950   C     0.74387   0.48121   0.93380   0.00000  Uiso   1.00
C951   C     0.72988   0.47224   0.98699   0.00000  Uiso   1.00
C952   C     0.76372   0.47195   0.51451   0.00000  Uiso   1.00
Cu953  Cu    0.78645   0.49999   0.75000   0.00000  Uiso   1.00
Cu954  Cu    0.88022   0.50001   0.75000   0.00000  Uiso   1.00
H955   H     0.95063   0.50373   0.58027   0.00000  Uiso   1.00
H956   H     0.91170   0.37089   0.72965   0.00000  Uiso   1.00
H957   H     0.75482   0.37060   0.76965   0.00000  Uiso   1.00
H958   H     0.75487   0.62910   0.76986   0.00000  Uiso   1.00
H959   H     0.69766   0.55137   0.80029   0.00000  Uiso   1.00
H960   H     0.72329   0.44859   0.69867   0.00000  Uiso   1.00
H961   H     0.97049   0.44880   0.69837   0.00000  Uiso   1.00
H962   H     0.97049   0.49257   0.98505   0.00000  Uiso   1.00
H963   H     0.79990   0.49266   0.59109   0.00000  Uiso   1.00
H964   H     0.71620   0.48512   0.91443   0.00000  Uiso   1.00
H965   H     0.75036   0.46638   0.55594   0.00000  Uiso   1.00
H966   H     0.69289   0.46585   0.50823   0.00000  Uiso   1.00
H967   H     0.88516   0.45068   0.86785   0.00000  Uiso   1.00
H968   H     0.91173   0.62944   0.72873   0.00000  Uiso   1.00
N969   N     0.71598   0.49999   0.74998   0.00000  Uiso   1.00
N970   N     0.95069   0.50002   0.74999   0.00000  Uiso   1.00
O971   O     0.79375   0.56011   0.75000   0.00000  Uiso   1.00
O972   O     0.87294   0.56012   0.75000   0.00000  Uiso   1.00
O973   O     0.77441   0.49998   0.82549   0.00000  Uiso   1.00
O974   O     0.85360   0.49999   0.82549   0.00000  Uiso   1.00
O975   O     0.79373   0.43988   0.74999   0.00000  Uiso   1.00
O976   O     0.87292   0.43989   0.74999   0.00000  Uiso   1.00
O977   O     0.81306   0.50001   0.67451   0.00000  Uiso   1.00
O978   O     0.89225   0.50002   0.67451   0.00000  Uiso   1.00
N979   N     0.93495   0.55750   0.81074   0.00000  Uiso   1.00
H980   H     0.91730   0.54571   0.84692   0.00000  Uiso   1.00
C981   C     0.95149   0.59948   0.81313   0.00000  Uiso   1.00
H982   H     0.91959   0.61983   0.82880   0.00000  Uiso   1.00
H983   H     0.97187   0.61039   0.77357   0.00000  Uiso   1.00
H984   H     0.97483   0.60174   0.83963   0.00000  Uiso   1.00
N985   N     0.95591   0.44100   0.91148   0.00000  Uiso   1.00
H986   H     0.97523   0.43281   0.93682   0.00000  Uiso   1.00
C987   C     0.98562   0.45615   0.86205   0.00000  Uiso   1.00
H988   H     0.68700   0.43881   0.84980   0.00000  Uiso   1.00
H989   H     0.99356   0.48924   0.86616   0.00000  Uiso   1.00
H990   H     0.96710   0.45159   0.83145   0.00000  Uiso   1.00
C991   C     0.16672   0.91256   0.74998   0.00000  Uiso   1.00
C992   C     0.14664   0.80931   0.98810   0.00000  Uiso   1.00
C993   C     0.16135   0.80863   0.93281   0.00000  Uiso   1.00
C994   C     0.18234   0.81326   0.51454   0.00000  Uiso   1.00
C995   C     0.23172   0.80973   0.98583   0.00000  Uiso   1.00
C996   C     0.24432   0.79519   0.93394   0.00000  Uiso   1.00
C997   C     0.20922   0.79621   0.90720   0.00000  Uiso   1.00
C998   C     0.17053   0.82267   0.56807   0.00000  Uiso   1.00
C999   C     0.25540   0.82976   0.56269   0.00000  Uiso   1.00
C1000  C     0.12660   0.81715   0.90583   0.00000  Uiso   1.00
C1001  C     0.21067   0.97879   0.73840   0.00000  Uiso   1.00
C1002  C     0.14101   0.82835   0.84956   0.00000  Uiso   1.00
C1003  C     0.21062   0.68809   0.73868   0.00000  Uiso   1.00
C1004  C     0.16657   0.70946   0.74982   0.00000  Uiso   1.00
C1005  C     0.12256   0.68791   0.76075   0.00000  Uiso   1.00
C1006  C     0.12261   0.97859   0.76084   0.00000  Uiso   1.00
C1007  C     0.16669   0.95722   0.74981   0.00000  Uiso   1.00
C1008  C     0.30128   0.86246   0.77808   0.00000  Uiso   1.00
C1009  C     0.01783   0.86244   0.77730   0.00000  Uiso   1.00
C1010  C     0.03220   0.80490   0.72149   0.00000  Uiso   1.00
C1011  C     0.31618   0.80501   0.72133   0.00000  Uiso   1.00
C1012  C     0.16660   0.75411   0.74993   0.00000  Uiso   1.00
C1013  C     0.19253   0.83307   0.64992   0.00000  Uiso   1.00
C1014  C     0.26735   0.82136   0.50926   0.00000  Uiso   1.00
C1015  C     0.20676   0.82885   0.59277   0.00000  Uiso   1.00
C1016  C     0.07720   0.81455   0.93380   0.00000  Uiso   1.00
C1017  C     0.06322   0.80557   0.98699   0.00000  Uiso   1.00
C1018  C     0.09705   0.80529   0.51451   0.00000  Uiso   1.00
Cu1019 Cu    0.11978   0.83333   0.75000   0.00000  Uiso   1.00
Cu1020 Cu    0.21355   0.83334   0.75000   0.00000  Uiso   1.00
H1021  H     0.28396   0.83706   0.58027   0.00000  Uiso   1.00
H1022  H     0.24503   0.70423   0.72965   0.00000  Uiso   1.00
H1023  H     0.08815   0.70393   0.76965   0.00000  Uiso   1.00
H1024  H     0.08821   0.96244   0.76986   0.00000  Uiso   1.00
H1025  H     0.03099   0.88470   0.80029   0.00000  Uiso   1.00
H1026  H     0.05662   0.78192   0.69867   0.00000  Uiso   1.00
H1027  H     0.30382   0.78213   0.69837   0.00000  Uiso   1.00
H1028  H     0.30382   0.82590   0.98505   0.00000  Uiso   1.00
H1029  H     0.13323   0.82600   0.59109   0.00000  Uiso   1.00
H1030  H     0.04953   0.81846   0.91443   0.00000  Uiso   1.00
H1031  H     0.08369   0.79972   0.55594   0.00000  Uiso   1.00
H1032  H     0.02622   0.79918   0.50823   0.00000  Uiso   1.00
H1033  H     0.21849   0.78401   0.86785   0.00000  Uiso   1.00
H1034  H     0.24506   0.96277   0.72873   0.00000  Uiso   1.00
N1035  N     0.04931   0.83332   0.74998   0.00000  Uiso   1.00
N1036  N     0.28402   0.83335   0.74999   0.00000  Uiso   1.00
O1037  O     0.12708   0.89345   0.75000   0.00000  Uiso   1.00
O1038  O     0.20627   0.89346   0.75000   0.00000  Uiso   1.00
O1039  O     0.10775   0.83332   0.82549   0.00000  Uiso   1.00
O1040  O     0.18694   0.83333   0.82549   0.00000  Uiso   1.00
O1041  O     0.12706   0.77321   0.74999   0.00000  Uiso   1.00
O1042  O     0.20625   0.77322   0.74999   0.00000  Uiso   1.00
O1043  O     0.14640   0.83334   0.67451   0.00000  Uiso   1.00
O1044  O     0.22559   0.83335   0.67451   0.00000  Uiso   1.00
N1045  N     0.26828   0.89084   0.81074   0.00000  Uiso   1.00
H1046  H     0.25064   0.87904   0.84692   0.00000  Uiso   1.00
C1047  C     0.28482   0.93281   0.81313   0.00000  Uiso   1.00
H1048  H     0.25292   0.95317   0.82880   0.00000  Uiso   1.00
H1049  H     0.30520   0.94372   0.77357   0.00000  Uiso   1.00
H1050  H     0.30816   0.93507   0.83963   0.00000  Uiso   1.00
N1051  N     0.28924   0.77434   0.91148   0.00000  Uiso   1.00
H1052  H     0.30857   0.76614   0.93682   0.00000  Uiso   1.00
C1053  C     0.31896   0.78948   0.86205   0.00000  Uiso   1.00
H1054  H     0.02034   0.77214   0.84980   0.00000  Uiso   1.00
H1055  H     0.32689   0.82258   0.86616   0.00000  Uiso   1.00
H1056  H     0.30043   0.78492   0.83145   0.00000  Uiso   1.00
C1057  C     0.50006   0.91256   0.74998   0.00000  Uiso   1.00
C1058  C     0.47997   0.80931   0.98810   0.00000  Uiso   1.00
C1059  C     0.49468   0.80863   0.93281   0.00000  Uiso   1.00
C1060  C     0.51568   0.81326   0.51454   0.00000  Uiso   1.00
C1061  C     0.56505   0.80973   0.98583   0.00000  Uiso   1.00
C1062  C     0.57766   0.79519   0.93394   0.00000  Uiso   1.00
C1063  C     0.54255   0.79621   0.90720   0.00000  Uiso   1.00
C1064  C     0.50387   0.82267   0.56807   0.00000  Uiso   1.00
C1065  C     0.58873   0.82976   0.56269   0.00000  Uiso   1.00
C1066  C     0.45994   0.81715   0.90583   0.00000  Uiso   1.00
C1067  C     0.54400   0.97879   0.73840   0.00000  Uiso   1.00
C1068  C     0.47435   0.82835   0.84956   0.00000  Uiso   1.00
C1069  C     0.54395   0.68809   0.73868   0.00000  Uiso   1.00
C1070  C     0.49990   0.70946   0.74982   0.00000  Uiso   1.00
C1071  C     0.45589   0.68791   0.76075   0.00000  Uiso   1.00
C1072  C     0.45595   0.97859   0.76084   0.00000  Uiso   1.00
C1073  C     0.50002   0.95722   0.74981   0.00000  Uiso   1.00
C1074  C     0.63461   0.86246   0.77808   0.00000  Uiso   1.00
C1075  C     0.35116   0.86244   0.77730   0.00000  Uiso   1.00
C1076  C     0.36553   0.80490   0.72149   0.00000  Uiso   1.00
C1077  C     0.64951   0.80501   0.72133   0.00000  Uiso   1.00
C1078  C     0.49994   0.75411   0.74993   0.00000  Uiso   1.00
C1079  C     0.52586   0.83307   0.64992   0.00000  Uiso   1.00
C1080  C     0.60068   0.82136   0.50926   0.00000  Uiso   1.00
C1081  C     0.54009   0.82885   0.59277   0.00000  Uiso   1.00
C1082  C     0.41054   0.81455   0.93380   0.00000  Uiso   1.00
C1083  C     0.39655   0.80557   0.98699   0.00000  Uiso   1.00
C1084  C     0.43038   0.80529   0.51451   0.00000  Uiso   1.00
Cu1085 Cu    0.45311   0.83333   0.75000   0.00000  Uiso   1.00
Cu1086 Cu    0.54689   0.83334   0.75000   0.00000  Uiso   1.00
H1087  H     0.61729   0.83706   0.58027   0.00000  Uiso   1.00
H1088  H     0.57837   0.70423   0.72965   0.00000  Uiso   1.00
H1089  H     0.42148   0.70393   0.76965   0.00000  Uiso   1.00
H1090  H     0.42154   0.96244   0.76986   0.00000  Uiso   1.00
H1091  H     0.36432   0.88470   0.80029   0.00000  Uiso   1.00
H1092  H     0.38996   0.78192   0.69867   0.00000  Uiso   1.00
H1093  H     0.63715   0.78213   0.69837   0.00000  Uiso   1.00
H1094  H     0.63716   0.82590   0.98505   0.00000  Uiso   1.00
H1095  H     0.46656   0.82600   0.59109   0.00000  Uiso   1.00
H1096  H     0.38286   0.81846   0.91443   0.00000  Uiso   1.00
H1097  H     0.41702   0.79972   0.55594   0.00000  Uiso   1.00
H1098  H     0.35955   0.79918   0.50823   0.00000  Uiso   1.00
H1099  H     0.55182   0.78401   0.86785   0.00000  Uiso   1.00
H1100  H     0.57840   0.96277   0.72873   0.00000  Uiso   1.00
N1101  N     0.38265   0.83332   0.74998   0.00000  Uiso   1.00
N1102  N     0.61735   0.83335   0.74999   0.00000  Uiso   1.00
O1103  O     0.46042   0.89345   0.75000   0.00000  Uiso   1.00
O1104  O     0.53961   0.89346   0.75000   0.00000  Uiso   1.00
O1105  O     0.44108   0.83332   0.82549   0.00000  Uiso   1.00
O1106  O     0.52027   0.83333   0.82549   0.00000  Uiso   1.00
O1107  O     0.46039   0.77321   0.74999   0.00000  Uiso   1.00
O1108  O     0.53958   0.77322   0.74999   0.00000  Uiso   1.00
O1109  O     0.47973   0.83334   0.67451   0.00000  Uiso   1.00
O1110  O     0.55892   0.83335   0.67451   0.00000  Uiso   1.00
N1111  N     0.60162   0.89084   0.81074   0.00000  Uiso   1.00
H1112  H     0.58397   0.87904   0.84692   0.00000  Uiso   1.00
C1113  C     0.61815   0.93281   0.81313   0.00000  Uiso   1.00
H1114  H     0.58625   0.95317   0.82880   0.00000  Uiso   1.00
H1115  H     0.63853   0.94372   0.77357   0.00000  Uiso   1.00
H1116  H     0.64149   0.93507   0.83963   0.00000  Uiso   1.00
N1117  N     0.62258   0.77434   0.91148   0.00000  Uiso   1.00
H1118  H     0.64190   0.76614   0.93682   0.00000  Uiso   1.00
C1119  C     0.65229   0.78948   0.86205   0.00000  Uiso   1.00
H1120  H     0.35367   0.77214   0.84980   0.00000  Uiso   1.00
H1121  H     0.66022   0.82258   0.86616   0.00000  Uiso   1.00
H1122  H     0.63377   0.78492   0.83145   0.00000  Uiso   1.00
C1123  C     0.83339   0.91256   0.74998   0.00000  Uiso   1.00
C1124  C     0.81331   0.80931   0.98810   0.00000  Uiso   1.00
C1125  C     0.82801   0.80863   0.93281   0.00000  Uiso   1.00
C1126  C     0.84901   0.81326   0.51454   0.00000  Uiso   1.00
C1127  C     0.89839   0.80973   0.98583   0.00000  Uiso   1.00
C1128  C     0.91099   0.79519   0.93394   0.00000  Uiso   1.00
C1129  C     0.87588   0.79621   0.90720   0.00000  Uiso   1.00
C1130  C     0.83720   0.82267   0.56807   0.00000  Uiso   1.00
C1131  C     0.92207   0.82976   0.56269   0.00000  Uiso   1.00
C1132  C     0.79327   0.81715   0.90583   0.00000  Uiso   1.00
C1133  C     0.87734   0.97879   0.73840   0.00000  Uiso   1.00
C1134  C     0.80768   0.82835   0.84956   0.00000  Uiso   1.00
C1135  C     0.87729   0.68809   0.73868   0.00000  Uiso   1.00
C1136  C     0.83323   0.70946   0.74982   0.00000  Uiso   1.00
C1137  C     0.78923   0.68791   0.76075   0.00000  Uiso   1.00
C1138  C     0.78928   0.97859   0.76084   0.00000  Uiso   1.00
C1139  C     0.83336   0.95722   0.74981   0.00000  Uiso   1.00
C1140  C     0.96794   0.86246   0.77808   0.00000  Uiso   1.00
C1141  C     0.68449   0.86244   0.77730   0.00000  Uiso   1.00
C1142  C     0.69886   0.80490   0.72149   0.00000  Uiso   1.00
C1143  C     0.98285   0.80501   0.72133   0.00000  Uiso   1.00
C1144  C     0.83327   0.75411   0.74993   0.00000  Uiso   1.00
C1145  C     0.85919   0.83307   0.64992   0.00000  Uiso   1.00
C1146  C     0.93401   0.82136   0.50926   0.00000  Uiso   1.00
C1147  C     0.87342   0.82885   0.59277   0.00000  Uiso   1.00
C1148  C     0.74387   0.81455   0.93380   0.00000  Uiso   1.00
C1149  C     0.72988   0.80557   0.98699   0.00000  Uiso   1.00
C1150  C     0.76372   0.80529   0.51451   0.00000  Uiso   1.00
Cu1151 Cu    0.78645   0.83333   0.75000   0.00000  Uiso   1.00
Cu1152 Cu    0.88022   0.83334   0.75000   0.00000  Uiso   1.00
H1153  H     0.95063   0.83706   0.58027   0.00000  Uiso   1.00
H1154  H     0.91170   0.70423   0.72965   0.00000  Uiso   1.00
H1155  H     0.75482   0.70393   0.76965   0.00000  Uiso   1.00
H1156  H     0.75487   0.96244   0.76986   0.00000  Uiso   1.00
H1157  H     0.69766   0.88470   0.80029   0.00000  Uiso   1.00
H1158  H     0.72329   0.78192   0.69867   0.00000  Uiso   1.00
H1159  H     0.97049   0.78213   0.69837   0.00000  Uiso   1.00
H1160  H     0.97049   0.82590   0.98505   0.00000  Uiso   1.00
H1161  H     0.79990   0.82600   0.59109   0.00000  Uiso   1.00
H1162  H     0.71620   0.81846   0.91443   0.00000  Uiso   1.00
H1163  H     0.75036   0.79972   0.55594   0.00000  Uiso   1.00
H1164  H     0.69289   0.79918   0.50823   0.00000  Uiso   1.00
H1165  H     0.88516   0.78401   0.86785   0.00000  Uiso   1.00
H1166  H     0.91173   0.96277   0.72873   0.00000  Uiso   1.00
N1167  N     0.71598   0.83332   0.74998   0.00000  Uiso   1.00
N1168  N     0.95069   0.83335   0.74999   0.00000  Uiso   1.00
O1169  O     0.79375   0.89345   0.75000   0.00000  Uiso   1.00
O1170  O     0.87294   0.89346   0.75000   0.00000  Uiso   1.00
O1171  O     0.77441   0.83332   0.82549   0.00000  Uiso   1.00
O1172  O     0.85360   0.83333   0.82549   0.00000  Uiso   1.00
O1173  O     0.79373   0.77321   0.74999   0.00000  Uiso   1.00
O1174  O     0.87292   0.77322   0.74999   0.00000  Uiso   1.00
O1175  O     0.81306   0.83334   0.67451   0.00000  Uiso   1.00
O1176  O     0.89225   0.83335   0.67451   0.00000  Uiso   1.00
N1177  N     0.93495   0.89084   0.81074   0.00000  Uiso   1.00
H1178  H     0.91730   0.87904   0.84692   0.00000  Uiso   1.00
C1179  C     0.95149   0.93281   0.81313   0.00000  Uiso   1.00
H1180  H     0.91959   0.95317   0.82880   0.00000  Uiso   1.00
H1181  H     0.97187   0.94372   0.77357   0.00000  Uiso   1.00
H1182  H     0.97483   0.93507   0.83963   0.00000  Uiso   1.00
N1183  N     0.95591   0.77434   0.91148   0.00000  Uiso   1.00
H1184  H     0.97523   0.76614   0.93682   0.00000  Uiso   1.00
C1185  C     0.98562   0.78948   0.86205   0.00000  Uiso   1.00
H1186  H     0.68700   0.77214   0.84980   0.00000  Uiso   1.00
H1187  H     0.99356   0.82258   0.86616   0.00000  Uiso   1.00
H1188  H     0.96710   0.78492   0.83145   0.00000  Uiso   1.00
loop_
_geom_bond_atom_site_label_1
_geom_bond_atom_site_label_2
_geom_bond_distance
_geom_bond_site_symmetry_2
_ccdc_geom_bond_type
C1     O48     1.299   .     A
C1     C17     1.449   .     S
C1     O47     1.296   .     A
C2     C3      1.415   .     A
C2     C598    1.411   .     S
C2     C622    1.404   .     S
C3     C10     1.422   .     A
C3     C7      1.408   .     A
C4     C8      1.403   .     A
C4     C596    1.411   1_554 S
C4     C599    1.411   1_554 S
C5     C6      1.406   .     A
C5     C598    1.411   .     S
C5     C618    1.397   .     S
C6     C7      1.398   .     A
C6     N61     1.428   .     S
C7     H43     1.079   .     S
C8     H39     1.077   .     S
C8     C25     1.400   .     A
C9     C25     1.399   .     A
C9     C24     1.394   .     A
C9     H31     1.083   .     S
C10    C12     1.489   .     S
C10    C26     1.405   .     A
C11    H44     1.082   .     S
C11    C17     1.400   .     A
C11    C211    1.383   .     S
C12    O50     1.302   .     A
C12    O49     1.311   .     A
C13    H32     1.083   .     S
C13    C14     1.401   .     A
C13    C407    1.383   1_545 S
C14    C22     1.449   .     S
C14    C15     1.401   .     A
C15    H33     1.083   .     S
C15    C412    1.384   1_545 S
C16    H34     1.084   .     S
C16    C17     1.402   .     A
C16    C213    1.384   .     S
C18    N55     1.423   .     S
C18    N46     1.379   .     A
C18    C85     1.430   .     S
C19    N45     1.363   .     A
C19    H35     1.080   .     S
C19    C150    1.430   1_455 S
C20    N45     1.369   .     A
C20    H36     1.082   .     S
C20    C153    1.422   1_455 S
C21    H37     1.082   .     S
C21    N46     1.369   .     A
C21    C86     1.422   .     S
C22    O52     1.297   .     A
C22    O51     1.298   .     A
C23    O53     1.300   .     A
C23    C25     1.468   .     S
C23    O54     1.304   .     A
C24    C599    1.397   1_554 S
C24    H632    1.073   1_554 S
C26    H40     1.077   .     S
C26    C27     1.395   .     A
C27    C622    1.381   .     S
C27    H636    1.072   .     S
C28    H41     1.079   .     S
C28    C621    1.381   1_554 S
C28    C596    1.404   1_554 S
Cu29   O49     1.947   .     S
Cu29   Cu30    2.700   .     S
Cu29   O47     1.962   .     S
Cu29   O51     1.963   .     S
Cu29   N45     2.029   .     S
Cu29   O53     1.941   .     S
Cu30   O54     1.947   .     S
Cu30   O48     1.963   .     S
Cu30   N46     2.029   .     S
Cu30   O50     1.941   .     S
Cu30   O52     1.962   .     S
H38    C618    1.073   .     S
H42    C621    1.072   1_554 S
N55    H56     1.031   .     S
N55    C57     1.448   .     S
C57    H58     1.110   .     S
C57    H59     1.111   .     S
C57    H60     1.111   .     S
N61    H62     1.031   .     S
N61    C63     1.440   .     S
C63    H65     1.108   .     S
C63    H66     1.107   .     S
C63    H130    1.111   .     S
H64    C195    1.111   1_455 S
C67    O114    1.299   .     A
C67    C83     1.449   .     S
C67    O113    1.296   .     A
C68    C69     1.415   .     A
C68    C664    1.411   .     S
C68    C688    1.404   .     S
C69    C76     1.422   .     A
C69    C73     1.408   .     A
C70    C74     1.403   .     A
C70    C662    1.411   1_554 S
C70    C665    1.411   1_554 S
C71    C72     1.406   .     A
C71    C664    1.411   .     S
C71    C684    1.397   .     S
C72    C73     1.398   .     A
C72    N127    1.428   .     S
C73    H109    1.079   .     S
C74    H105    1.077   .     S
C74    C91     1.400   .     A
C75    C91     1.399   .     A
C75    C90     1.394   .     A
C75    H97     1.083   .     S
C76    C78     1.489   .     S
C76    C92     1.405   .     A
C77    H110    1.082   .     S
C77    C83     1.400   .     A
C77    C277    1.383   .     S
C78    O116    1.302   .     A
C78    O115    1.311   .     A
C79    H98     1.083   .     S
C79    C80     1.401   .     A
C79    C473    1.383   1_545 S
C80    C88     1.449   .     S
C80    C81     1.401   .     A
C81    H99     1.083   .     S
C81    C478    1.384   1_545 S
C82    H100    1.084   .     S
C82    C83     1.402   .     A
C82    C279    1.384   .     S
C84    N121    1.423   .     S
C84    N112    1.379   .     A
C84    C151    1.430   .     S
C85    N111    1.363   .     A
C85    H101    1.080   .     S
C86    N111    1.369   .     A
C86    H102    1.082   .     S
C87    H103    1.082   .     S
C87    N112    1.369   .     A
C87    C152    1.422   .     S
C88    O118    1.297   .     A
C88    O117    1.298   .     A
C89    O119    1.300   .     A
C89    C91     1.468   .     S
C89    O120    1.304   .     A
C90    C665    1.397   1_554 S
C90    H698    1.073   1_554 S
C92    H106    1.077   .     S
C92    C93     1.395   .     A
C93    C688    1.381   .     S
C93    H702    1.072   .     S
C94    H107    1.079   .     S
C94    C687    1.381   1_554 S
C94    C662    1.404   1_554 S
Cu95   O115    1.947   .     S
Cu95   Cu96    2.700   .     S
Cu95   O113    1.962   .     S
Cu95   O117    1.963   .     S
Cu95   N111    2.029   .     S
Cu95   O119    1.941   .     S
Cu96   O120    1.947   .     S
Cu96   O114    1.963   .     S
Cu96   N112    2.029   .     S
Cu96   O116    1.941   .     S
Cu96   O118    1.962   .     S
H104   C684    1.073   .     S
H108   C687    1.072   1_554 S
N121   H122    1.031   .     S
N121   C123    1.448   .     S
C123   H124    1.110   .     S
C123   H125    1.111   .     S
C123   H126    1.111   .     S
N127   H128    1.031   .     S
N127   C129    1.440   .     S
C129   H131    1.108   .     S
C129   H132    1.107   .     S
C129   H196    1.111   .     S
C133   O180    1.299   .     A
C133   C149    1.449   .     S
C133   O179    1.296   .     A
C134   C135    1.415   .     A
C134   C730    1.411   .     S
C134   C754    1.404   .     S
C135   C142    1.422   .     A
C135   C139    1.408   .     A
C136   C140    1.403   .     A
C136   C728    1.411   1_554 S
C136   C731    1.411   1_554 S
C137   C138    1.406   .     A
C137   C730    1.411   .     S
C137   C750    1.397   .     S
C138   C139    1.398   .     A
C138   N193    1.428   .     S
C139   H175    1.079   .     S
C140   H171    1.077   .     S
C140   C157    1.400   .     A
C141   C157    1.399   .     A
C141   C156    1.394   .     A
C141   H163    1.083   .     S
C142   C144    1.489   .     S
C142   C158    1.405   .     A
C143   H176    1.082   .     S
C143   C149    1.400   .     A
C143   C343    1.383   .     S
C144   O182    1.302   .     A
C144   O181    1.311   .     A
C145   H164    1.083   .     S
C145   C146    1.401   .     A
C145   C539    1.383   1_545 S
C146   C154    1.449   .     S
C146   C147    1.401   .     A
C147   H165    1.083   .     S
C147   C544    1.384   1_545 S
C148   H166    1.084   .     S
C148   C149    1.402   .     A
C148   C345    1.384   .     S
C150   N187    1.423   .     S
C150   N178    1.379   .     A
C150   C19     1.430   1_655 S
C151   N177    1.363   .     A
C151   H167    1.080   .     S
C152   N177    1.369   .     A
C152   H168    1.082   .     S
C153   H169    1.082   .     S
C153   N178    1.369   .     A
C153   C20     1.422   1_655 S
C154   O184    1.297   .     A
C154   O183    1.298   .     A
C155   O185    1.300   .     A
C155   C157    1.468   .     S
C155   O186    1.304   .     A
C156   C731    1.397   1_554 S
C156   H764    1.073   1_554 S
C158   H172    1.077   .     S
C158   C159    1.395   .     A
C159   C754    1.381   .     S
C159   H768    1.072   .     S
C160   H173    1.079   .     S
C160   C753    1.381   1_554 S
C160   C728    1.404   1_554 S
Cu161  O181    1.947   .     S
Cu161  Cu162   2.700   .     S
Cu161  O179    1.962   .     S
Cu161  O183    1.963   .     S
Cu161  N177    2.029   .     S
Cu161  O185    1.941   .     S
Cu162  O186    1.947   .     S
Cu162  O180    1.963   .     S
Cu162  N178    2.029   .     S
Cu162  O182    1.941   .     S
Cu162  O184    1.962   .     S
H170   C750    1.073   .     S
H174   C753    1.072   1_554 S
N187   H188    1.031   .     S
N187   C189    1.448   .     S
C189   H190    1.110   .     S
C189   H191    1.111   .     S
C189   H192    1.111   .     S
N193   H194    1.031   .     S
N193   C195    1.440   .     S
C195   H197    1.108   .     S
C195   H198    1.107   .     S
C195   H64     1.111   1_655 S
C199   O246    1.299   .     A
C199   C215    1.449   .     S
C199   O245    1.296   .     A
C200   C201    1.415   .     A
C200   C796    1.411   .     S
C200   C820    1.404   .     S
C201   C208    1.422   .     A
C201   C205    1.408   .     A
C202   C206    1.403   .     A
C202   C794    1.411   1_554 S
C202   C797    1.411   1_554 S
C203   C204    1.406   .     A
C203   C796    1.411   .     S
C203   C816    1.397   .     S
C204   C205    1.398   .     A
C204   N259    1.428   .     S
C205   H241    1.079   .     S
C206   H237    1.077   .     S
C206   C223    1.400   .     A
C207   C223    1.399   .     A
C207   C222    1.394   .     A
C207   H229    1.083   .     S
C208   C210    1.489   .     S
C208   C224    1.405   .     A
C209   H242    1.082   .     S
C209   C215    1.400   .     A
C209   C409    1.383   .     S
C210   O248    1.302   .     A
C210   O247    1.311   .     A
C211   H230    1.083   .     S
C211   C212    1.401   .     A
C212   C220    1.449   .     S
C212   C213    1.401   .     A
C213   H231    1.083   .     S
C214   H232    1.084   .     S
C214   C215    1.402   .     A
C214   C411    1.384   .     S
C216   N253    1.423   .     S
C216   N244    1.379   .     A
C216   C283    1.430   .     S
C217   N243    1.363   .     A
C217   H233    1.080   .     S
C217   C348    1.430   1_455 S
C218   N243    1.369   .     A
C218   H234    1.082   .     S
C218   C351    1.422   1_455 S
C219   H235    1.082   .     S
C219   N244    1.369   .     A
C219   C284    1.422   .     S
C220   O250    1.297   .     A
C220   O249    1.298   .     A
C221   O251    1.300   .     A
C221   C223    1.468   .     S
C221   O252    1.304   .     A
C222   C797    1.397   1_554 S
C222   H830    1.073   1_554 S
C224   H238    1.077   .     S
C224   C225    1.395   .     A
C225   C820    1.381   .     S
C225   H834    1.072   .     S
C226   H239    1.079   .     S
C226   C819    1.381   1_554 S
C226   C794    1.404   1_554 S
Cu227  O247    1.947   .     S
Cu227  Cu228   2.700   .     S
Cu227  O245    1.962   .     S
Cu227  O249    1.963   .     S
Cu227  N243    2.029   .     S
Cu227  O251    1.941   .     S
Cu228  O252    1.947   .     S
Cu228  O246    1.963   .     S
Cu228  N244    2.029   .     S
Cu228  O248    1.941   .     S
Cu228  O250    1.962   .     S
H236   C816    1.073   .     S
H240   C819    1.072   1_554 S
N253   H254    1.031   .     S
N253   C255    1.448   .     S
C255   H256    1.110   .     S
C255   H257    1.111   .     S
C255   H258    1.111   .     S
N259   H260    1.031   .     S
N259   C261    1.440   .     S
C261   H263    1.108   .     S
C261   H264    1.107   .     S
C261   H328    1.111   .     S
H262   C393    1.111   1_455 S
C265   O312    1.299   .     A
C265   C281    1.449   .     S
C265   O311    1.296   .     A
C266   C267    1.415   .     A
C266   C862    1.411   .     S
C266   C886    1.404   .     S
C267   C274    1.422   .     A
C267   C271    1.408   .     A
C268   C272    1.403   .     A
C268   C860    1.411   1_554 S
C268   C863    1.411   1_554 S
C269   C270    1.406   .     A
C269   C862    1.411   .     S
C269   C882    1.397   .     S
C270   C271    1.398   .     A
C270   N325    1.428   .     S
C271   H307    1.079   .     S
C272   H303    1.077   .     S
C272   C289    1.400   .     A
C273   C289    1.399   .     A
C273   C288    1.394   .     A
C273   H295    1.083   .     S
C274   C276    1.489   .     S
C274   C290    1.405   .     A
C275   H308    1.082   .     S
C275   C281    1.400   .     A
C275   C475    1.383   .     S
C276   O314    1.302   .     A
C276   O313    1.311   .     A
C277   H296    1.083   .     S
C277   C278    1.401   .     A
C278   C286    1.449   .     S
C278   C279    1.401   .     A
C279   H297    1.083   .     S
C280   H298    1.084   .     S
C280   C281    1.402   .     A
C280   C477    1.384   .     S
C282   N319    1.423   .     S
C282   N310    1.379   .     A
C282   C349    1.430   .     S
C283   N309    1.363   .     A
C283   H299    1.080   .     S
C284   N309    1.369   .     A
C284   H300    1.082   .     S
C285   H301    1.082   .     S
C285   N310    1.369   .     A
C285   C350    1.422   .     S
C286   O316    1.297   .     A
C286   O315    1.298   .     A
C287   O317    1.300   .     A
C287   C289    1.468   .     S
C287   O318    1.304   .     A
C288   C863    1.397   1_554 S
C288   H896    1.073   1_554 S
C290   H304    1.077   .     S
C290   C291    1.395   .     A
C291   C886    1.381   .     S
C291   H900    1.072   .     S
C292   H305    1.079   .     S
C292   C885    1.381   1_554 S
C292   C860    1.404   1_554 S
Cu293  O313    1.947   .     S
Cu293  Cu294   2.700   .     S
Cu293  O311    1.962   .     S
Cu293  O315    1.963   .     S
Cu293  N309    2.029   .     S
Cu293  O317    1.941   .     S
Cu294  O318    1.947   .     S
Cu294  O312    1.963   .     S
Cu294  N310    2.029   .     S
Cu294  O314    1.941   .     S
Cu294  O316    1.962   .     S
H302   C882    1.073   .     S
H306   C885    1.072   1_554 S
N319   H320    1.031   .     S
N319   C321    1.448   .     S
C321   H322    1.110   .     S
C321   H323    1.111   .     S
C321   H324    1.111   .     S
N325   H326    1.031   .     S
N325   C327    1.440   .     S
C327   H329    1.108   .     S
C327   H330    1.107   .     S
C327   H394    1.111   .     S
C331   O378    1.299   .     A
C331   C347    1.449   .     S
C331   O377    1.296   .     A
C332   C333    1.415   .     A
C332   C928    1.411   .     S
C332   C952    1.404   .     S
C333   C340    1.422   .     A
C333   C337    1.408   .     A
C334   C338    1.403   .     A
C334   C926    1.411   1_554 S
C334   C929    1.411   1_554 S
C335   C336    1.406   .     A
C335   C928    1.411   .     S
C335   C948    1.397   .     S
C336   C337    1.398   .     A
C336   N391    1.428   .     S
C337   H373    1.079   .     S
C338   H369    1.077   .     S
C338   C355    1.400   .     A
C339   C355    1.399   .     A
C339   C354    1.394   .     A
C339   H361    1.083   .     S
C340   C342    1.489   .     S
C340   C356    1.405   .     A
C341   H374    1.082   .     S
C341   C347    1.400   .     A
C341   C541    1.383   .     S
C342   O380    1.302   .     A
C342   O379    1.311   .     A
C343   H362    1.083   .     S
C343   C344    1.401   .     A
C344   C352    1.449   .     S
C344   C345    1.401   .     A
C345   H363    1.083   .     S
C346   H364    1.084   .     S
C346   C347    1.402   .     A
C346   C543    1.384   .     S
C348   N385    1.423   .     S
C348   N376    1.379   .     A
C348   C217    1.430   1_655 S
C349   N375    1.363   .     A
C349   H365    1.080   .     S
C350   N375    1.369   .     A
C350   H366    1.082   .     S
C351   H367    1.082   .     S
C351   N376    1.369   .     A
C351   C218    1.422   1_655 S
C352   O382    1.297   .     A
C352   O381    1.298   .     A
C353   O383    1.300   .     A
C353   C355    1.468   .     S
C353   O384    1.304   .     A
C354   C929    1.397   1_554 S
C354   H962    1.073   1_554 S
C356   H370    1.077   .     S
C356   C357    1.395   .     A
C357   C952    1.381   .     S
C357   H966    1.072   .     S
C358   H371    1.079   .     S
C358   C951    1.381   1_554 S
C358   C926    1.404   1_554 S
Cu359  O379    1.947   .     S
Cu359  Cu360   2.700   .     S
Cu359  O377    1.962   .     S
Cu359  O381    1.963   .     S
Cu359  N375    2.029   .     S
Cu359  O383    1.941   .     S
Cu360  O384    1.947   .     S
Cu360  O378    1.963   .     S
Cu360  N376    2.029   .     S
Cu360  O380    1.941   .     S
Cu360  O382    1.962   .     S
H368   C948    1.073   .     S
H372   C951    1.072   1_554 S
N385   H386    1.031   .     S
N385   C387    1.448   .     S
C387   H388    1.110   .     S
C387   H389    1.111   .     S
C387   H390    1.111   .     S
N391   H392    1.031   .     S
N391   C393    1.440   .     S
C393   H395    1.108   .     S
C393   H396    1.107   .     S
C393   H262    1.111   1_655 S
C397   O444    1.299   .     A
C397   C413    1.449   .     S
C397   O443    1.296   .     A
C398   C399    1.415   .     A
C398   C994    1.411   .     S
C398   C1018   1.404   .     S
C399   C406    1.422   .     A
C399   C403    1.408   .     A
C400   C404    1.403   .     A
C400   C992    1.411   1_554 S
C400   C995    1.411   1_554 S
C401   C402    1.406   .     A
C401   C994    1.411   .     S
C401   C1014   1.397   .     S
C402   C403    1.398   .     A
C402   N457    1.428   .     S
C403   H439    1.079   .     S
C404   H435    1.077   .     S
C404   C421    1.400   .     A
C405   C421    1.399   .     A
C405   C420    1.394   .     A
C405   H427    1.083   .     S
C406   C408    1.489   .     S
C406   C422    1.405   .     A
C407   H440    1.082   .     S
C407   C413    1.400   .     A
C407   C13     1.383   1_565 S
C408   O446    1.302   .     A
C408   O445    1.311   .     A
C409   H428    1.083   .     S
C409   C410    1.401   .     A
C410   C418    1.449   .     S
C410   C411    1.401   .     A
C411   H429    1.083   .     S
C412   H430    1.084   .     S
C412   C413    1.402   .     A
C412   C15     1.384   1_565 S
C414   N451    1.423   .     S
C414   N442    1.379   .     A
C414   C481    1.430   .     S
C415   N441    1.363   .     A
C415   H431    1.080   .     S
C415   C546    1.430   1_455 S
C416   N441    1.369   .     A
C416   H432    1.082   .     S
C416   C549    1.422   1_455 S
C417   H433    1.082   .     S
C417   N442    1.369   .     A
C417   C482    1.422   .     S
C418   O448    1.297   .     A
C418   O447    1.298   .     A
C419   O449    1.300   .     A
C419   C421    1.468   .     S
C419   O450    1.304   .     A
C420   C995    1.397   1_554 S
C420   H1028   1.073   1_554 S
C422   H436    1.077   .     S
C422   C423    1.395   .     A
C423   C1018   1.381   .     S
C423   H1032   1.072   .     S
C424   H437    1.079   .     S
C424   C1017   1.381   1_554 S
C424   C992    1.404   1_554 S
Cu425  O445    1.947   .     S
Cu425  Cu426   2.700   .     S
Cu425  O443    1.962   .     S
Cu425  O447    1.963   .     S
Cu425  N441    2.029   .     S
Cu425  O449    1.941   .     S
Cu426  O450    1.947   .     S
Cu426  O444    1.963   .     S
Cu426  N442    2.029   .     S
Cu426  O446    1.941   .     S
Cu426  O448    1.962   .     S
H434   C1014   1.073   .     S
H438   C1017   1.072   1_554 S
N451   H452    1.031   .     S
N451   C453    1.448   .     S
C453   H454    1.110   .     S
C453   H455    1.111   .     S
C453   H456    1.111   .     S
N457   H458    1.031   .     S
N457   C459    1.440   .     S
C459   H461    1.108   .     S
C459   H462    1.107   .     S
C459   H526    1.111   .     S
H460   C591    1.111   1_455 S
C463   O510    1.299   .     A
C463   C479    1.449   .     S
C463   O509    1.296   .     A
C464   C465    1.415   .     A
C464   C1060   1.411   .     S
C464   C1084   1.404   .     S
C465   C472    1.422   .     A
C465   C469    1.408   .     A
C466   C470    1.403   .     A
C466   C1058   1.411   1_554 S
C466   C1061   1.411   1_554 S
C467   C468    1.406   .     A
C467   C1060   1.411   .     S
C467   C1080   1.397   .     S
C468   C469    1.398   .     A
C468   N523    1.428   .     S
C469   H505    1.079   .     S
C470   H501    1.077   .     S
C470   C487    1.400   .     A
C471   C487    1.399   .     A
C471   C486    1.394   .     A
C471   H493    1.083   .     S
C472   C474    1.489   .     S
C472   C488    1.405   .     A
C473   H506    1.082   .     S
C473   C479    1.400   .     A
C473   C79     1.383   1_565 S
C474   O512    1.302   .     A
C474   O511    1.311   .     A
C475   H494    1.083   .     S
C475   C476    1.401   .     A
C476   C484    1.449   .     S
C476   C477    1.401   .     A
C477   H495    1.083   .     S
C478   H496    1.084   .     S
C478   C479    1.402   .     A
C478   C81     1.384   1_565 S
C480   N517    1.423   .     S
C480   N508    1.379   .     A
C480   C547    1.430   .     S
C481   N507    1.363   .     A
C481   H497    1.080   .     S
C482   N507    1.369   .     A
C482   H498    1.082   .     S
C483   H499    1.082   .     S
C483   N508    1.369   .     A
C483   C548    1.422   .     S
C484   O514    1.297   .     A
C484   O513    1.298   .     A
C485   O515    1.300   .     A
C485   C487    1.468   .     S
C485   O516    1.304   .     A
C486   C1061   1.397   1_554 S
C486   H1094   1.073   1_554 S
C488   H502    1.077   .     S
C488   C489    1.395   .     A
C489   C1084   1.381   .     S
C489   H1098   1.072   .     S
C490   H503    1.079   .     S
C490   C1083   1.381   1_554 S
C490   C1058   1.404   1_554 S
Cu491  O511    1.947   .     S
Cu491  Cu492   2.700   .     S
Cu491  O509    1.962   .     S
Cu491  O513    1.963   .     S
Cu491  N507    2.029   .     S
Cu491  O515    1.941   .     S
Cu492  O516    1.947   .     S
Cu492  O510    1.963   .     S
Cu492  N508    2.029   .     S
Cu492  O512    1.941   .     S
Cu492  O514    1.962   .     S
H500   C1080   1.073   .     S
H504   C1083   1.072   1_554 S
N517   H518    1.031   .     S
N517   C519    1.448   .     S
C519   H520    1.110   .     S
C519   H521    1.111   .     S
C519   H522    1.111   .     S
N523   H524    1.031   .     S
N523   C525    1.440   .     S
C525   H527    1.108   .     S
C525   H528    1.107   .     S
C525   H592    1.111   .     S
C529   O576    1.299   .     A
C529   C545    1.449   .     S
C529   O575    1.296   .     A
C530   C531    1.415   .     A
C530   C1126   1.411   .     S
C530   C1150   1.404   .     S
C531   C538    1.422   .     A
C531   C535    1.408   .     A
C532   C536    1.403   .     A
C532   C1124   1.411   1_554 S
C532   C1127   1.411   1_554 S
C533   C534    1.406   .     A
C533   C1126   1.411   .     S
C533   C1146   1.397   .     S
C534   C535    1.398   .     A
C534   N589    1.428   .     S
C535   H571    1.079   .     S
C536   H567    1.077   .     S
C536   C553    1.400   .     A
C537   C553    1.399   .     A
C537   C552    1.394   .     A
C537   H559    1.083   .     S
C538   C540    1.489   .     S
C538   C554    1.405   .     A
C539   H572    1.082   .     S
C539   C545    1.400   .     A
C539   C145    1.383   1_565 S
C540   O578    1.302   .     A
C540   O577    1.311   .     A
C541   H560    1.083   .     S
C541   C542    1.401   .     A
C542   C550    1.449   .     S
C542   C543    1.401   .     A
C543   H561    1.083   .     S
C544   H562    1.084   .     S
C544   C545    1.402   .     A
C544   C147    1.384   1_565 S
C546   N583    1.423   .     S
C546   N574    1.379   .     A
C546   C415    1.430   1_655 S
C547   N573    1.363   .     A
C547   H563    1.080   .     S
C548   N573    1.369   .     A
C548   H564    1.082   .     S
C549   H565    1.082   .     S
C549   N574    1.369   .     A
C549   C416    1.422   1_655 S
C550   O580    1.297   .     A
C550   O579    1.298   .     A
C551   O581    1.300   .     A
C551   C553    1.468   .     S
C551   O582    1.304   .     A
C552   C1127   1.397   1_554 S
C552   H1160   1.073   1_554 S
C554   H568    1.077   .     S
C554   C555    1.395   .     A
C555   C1150   1.381   .     S
C555   H1164   1.072   .     S
C556   H569    1.079   .     S
C556   C1149   1.381   1_554 S
C556   C1124   1.404   1_554 S
Cu557  O577    1.947   .     S
Cu557  Cu558   2.700   .     S
Cu557  O575    1.962   .     S
Cu557  O579    1.963   .     S
Cu557  N573    2.029   .     S
Cu557  O581    1.941   .     S
Cu558  O582    1.947   .     S
Cu558  O576    1.963   .     S
Cu558  N574    2.029   .     S
Cu558  O578    1.941   .     S
Cu558  O580    1.962   .     S
H566   C1146   1.073   .     S
H570   C1149   1.072   1_554 S
N583   H584    1.031   .     S
N583   C585    1.448   .     S
C585   H586    1.110   .     S
C585   H587    1.111   .     S
C585   H588    1.111   .     S
N589   H590    1.031   .     S
N589   C591    1.440   .     S
C591   H593    1.108   .     S
C591   H594    1.107   .     S
C591   H460    1.111   1_655 S
C595   O642    1.299   .     A
C595   C611    1.449   .     S
C595   O641    1.296   .     A
C596   C597    1.415   .     A
C596   C4      1.411   1_556 S
C596   C28     1.404   1_556 S
C597   C604    1.422   .     A
C597   C601    1.408   .     A
C598   C602    1.403   .     A
C599   C600    1.406   .     A
C599   C4      1.411   1_556 S
C599   C24     1.397   1_556 S
C600   C601    1.398   .     A
C600   N655    1.428   .     S
C601   H637    1.079   .     S
C602   H633    1.077   .     S
C602   C619    1.400   .     A
C603   C619    1.399   .     A
C603   C618    1.394   .     A
C603   H625    1.083   .     S
C604   C606    1.489   .     S
C604   C620    1.405   .     A
C605   H638    1.082   .     S
C605   C611    1.400   .     A
C605   C805    1.383   .     S
C606   O644    1.302   .     A
C606   O643    1.311   .     A
C607   H626    1.083   .     S
C607   C608    1.401   .     A
C607   C1001   1.383   1_545 S
C608   C616    1.449   .     S
C608   C609    1.401   .     A
C609   H627    1.083   .     S
C609   C1006   1.384   1_545 S
C610   H628    1.084   .     S
C610   C611    1.402   .     A
C610   C807    1.384   .     S
C612   N649    1.423   .     S
C612   N640    1.379   .     A
C612   C679    1.430   .     S
C613   N639    1.363   .     A
C613   H629    1.080   .     S
C613   C744    1.430   1_455 S
C614   N639    1.369   .     A
C614   H630    1.082   .     S
C614   C747    1.422   1_455 S
C615   H631    1.082   .     S
C615   N640    1.369   .     A
C615   C680    1.422   .     S
C616   O646    1.297   .     A
C616   O645    1.298   .     A
C617   O647    1.300   .     A
C617   C619    1.468   .     S
C617   O648    1.304   .     A
C620   H634    1.077   .     S
C620   C621    1.395   .     A
C621   C28     1.381   1_556 S
C621   H42     1.072   1_556 S
C622   H635    1.079   .     S
Cu623  O643    1.947   .     S
Cu623  Cu624   2.700   .     S
Cu623  O641    1.962   .     S
Cu623  O645    1.963   .     S
Cu623  N639    2.029   .     S
Cu623  O647    1.941   .     S
Cu624  O648    1.947   .     S
Cu624  O642    1.963   .     S
Cu624  N640    2.029   .     S
Cu624  O644    1.941   .     S
Cu624  O646    1.962   .     S
H632   C24     1.073   1_556 S
N649   H650    1.031   .     S
N649   C651    1.448   .     S
C651   H652    1.110   .     S
C651   H653    1.111   .     S
C651   H654    1.111   .     S
N655   H656    1.031   .     S
N655   C657    1.440   .     S
C657   H659    1.108   .     S
C657   H660    1.107   .     S
C657   H724    1.111   .     S
H658   C789    1.111   1_455 S
C661   O708    1.299   .     A
C661   C677    1.449   .     S
C661   O707    1.296   .     A
C662   C663    1.415   .     A
C662   C70     1.411   1_556 S
C662   C94     1.404   1_556 S
C663   C670    1.422   .     A
C663   C667    1.408   .     A
C664   C668    1.403   .     A
C665   C666    1.406   .     A
C665   C70     1.411   1_556 S
C665   C90     1.397   1_556 S
C666   C667    1.398   .     A
C666   N721    1.428   .     S
C667   H703    1.079   .     S
C668   H699    1.077   .     S
C668   C685    1.400   .     A
C669   C685    1.399   .     A
C669   C684    1.394   .     A
C669   H691    1.083   .     S
C670   C672    1.489   .     S
C670   C686    1.405   .     A
C671   H704    1.082   .     S
C671   C677    1.400   .     A
C671   C871    1.383   .     S
C672   O710    1.302   .     A
C672   O709    1.311   .     A
C673   H692    1.083   .     S
C673   C674    1.401   .     A
C673   C1067   1.383   1_545 S
C674   C682    1.449   .     S
C674   C675    1.401   .     A
C675   H693    1.083   .     S
C675   C1072   1.384   1_545 S
C676   H694    1.084   .     S
C676   C677    1.402   .     A
C676   C873    1.384   .     S
C678   N715    1.423   .     S
C678   N706    1.379   .     A
C678   C745    1.430   .     S
C679   N705    1.363   .     A
C679   H695    1.080   .     S
C680   N705    1.369   .     A
C680   H696    1.082   .     S
C681   H697    1.082   .     S
C681   N706    1.369   .     A
C681   C746    1.422   .     S
C682   O712    1.297   .     A
C682   O711    1.298   .     A
C683   O713    1.300   .     A
C683   C685    1.468   .     S
C683   O714    1.304   .     A
C686   H700    1.077   .     S
C686   C687    1.395   .     A
C687   C94     1.381   1_556 S
C687   H108    1.072   1_556 S
C688   H701    1.079   .     S
Cu689  O709    1.947   .     S
Cu689  Cu690   2.700   .     S
Cu689  O707    1.962   .     S
Cu689  O711    1.963   .     S
Cu689  N705    2.029   .     S
Cu689  O713    1.941   .     S
Cu690  O714    1.947   .     S
Cu690  O708    1.963   .     S
Cu690  N706    2.029   .     S
Cu690  O710    1.941   .     S
Cu690  O712    1.962   .     S
H698   C90     1.073   1_556 S
N715   H716    1.031   .     S
N715   C717    1.448   .     S
C717   H718    1.110   .     S
C717   H719    1.111   .     S
C717   H720    1.111   .     S
N721   H722    1.031   .     S
N721   C723    1.440   .     S
C723   H725    1.108   .     S
C723   H726    1.107   .     S
C723   H790    1.111   .     S
C727   O774    1.299   .     A
C727   C743    1.449   .     S
C727   O773    1.296   .     A
C728   C729    1.415   .     A
C728   C136    1.411   1_556 S
C728   C160    1.404   1_556 S
C729   C736    1.422   .     A
C729   C733    1.408   .     A
C730   C734    1.403   .     A
C731   C732    1.406   .     A
C731   C136    1.411   1_556 S
C731   C156    1.397   1_556 S
C732   C733    1.398   .     A
C732   N787    1.428   .     S
C733   H769    1.079   .     S
C734   H765    1.077   .     S
C734   C751    1.400   .     A
C735   C751    1.399   .     A
C735   C750    1.394   .     A
C735   H757    1.083   .     S
C736   C738    1.489   .     S
C736   C752    1.405   .     A
C737   H770    1.082   .     S
C737   C743    1.400   .     A
C737   C937    1.383   .     S
C738   O776    1.302   .     A
C738   O775    1.311   .     A
C739   H758    1.083   .     S
C739   C740    1.401   .     A
C739   C1133   1.383   1_545 S
C740   C748    1.449   .     S
C740   C741    1.401   .     A
C741   H759    1.083   .     S
C741   C1138   1.384   1_545 S
C742   H760    1.084   .     S
C742   C743    1.402   .     A
C742   C939    1.384   .     S
C744   N781    1.423   .     S
C744   N772    1.379   .     A
C744   C613    1.430   1_655 S
C745   N771    1.363   .     A
C745   H761    1.080   .     S
C746   N771    1.369   .     A
C746   H762    1.082   .     S
C747   H763    1.082   .     S
C747   N772    1.369   .     A
C747   C614    1.422   1_655 S
C748   O778    1.297   .     A
C748   O777    1.298   .     A
C749   O779    1.300   .     A
C749   C751    1.468   .     S
C749   O780    1.304   .     A
C752   H766    1.077   .     S
C752   C753    1.395   .     A
C753   C160    1.381   1_556 S
C753   H174    1.072   1_556 S
C754   H767    1.079   .     S
Cu755  O775    1.947   .     S
Cu755  Cu756   2.700   .     S
Cu755  O773    1.962   .     S
Cu755  O777    1.963   .     S
Cu755  N771    2.029   .     S
Cu755  O779    1.941   .     S
Cu756  O780    1.947   .     S
Cu756  O774    1.963   .     S
Cu756  N772    2.029   .     S
Cu756  O776    1.941   .     S
Cu756  O778    1.962   .     S
H764   C156    1.073   1_556 S
N781   H782    1.031   .     S
N781   C783    1.448   .     S
C783   H784    1.110   .     S
C783   H785    1.111   .     S
C783   H786    1.111   .     S
N787   H788    1.031   .     S
N787   C789    1.440   .     S
C789   H791    1.108   .     S
C789   H792    1.107   .     S
C789   H658    1.111   1_655 S
C793   O840    1.299   .     A
C793   C809    1.449   .     S
C793   O839    1.296   .     A
C794   C795    1.415   .     A
C794   C202    1.411   1_556 S
C794   C226    1.404   1_556 S
C795   C802    1.422   .     A
C795   C799    1.408   .     A
C796   C800    1.403   .     A
C797   C798    1.406   .     A
C797   C202    1.411   1_556 S
C797   C222    1.397   1_556 S
C798   C799    1.398   .     A
C798   N853    1.428   .     S
C799   H835    1.079   .     S
C800   H831    1.077   .     S
C800   C817    1.400   .     A
C801   C817    1.399   .     A
C801   C816    1.394   .     A
C801   H823    1.083   .     S
C802   C804    1.489   .     S
C802   C818    1.405   .     A
C803   H836    1.082   .     S
C803   C809    1.400   .     A
C803   C1003   1.383   .     S
C804   O842    1.302   .     A
C804   O841    1.311   .     A
C805   H824    1.083   .     S
C805   C806    1.401   .     A
C806   C814    1.449   .     S
C806   C807    1.401   .     A
C807   H825    1.083   .     S
C808   H826    1.084   .     S
C808   C809    1.402   .     A
C808   C1005   1.384   .     S
C810   N847    1.423   .     S
C810   N838    1.379   .     A
C810   C877    1.430   .     S
C811   N837    1.363   .     A
C811   H827    1.080   .     S
C811   C942    1.430   1_455 S
C812   N837    1.369   .     A
C812   H828    1.082   .     S
C812   C945    1.422   1_455 S
C813   H829    1.082   .     S
C813   N838    1.369   .     A
C813   C878    1.422   .     S
C814   O844    1.297   .     A
C814   O843    1.298   .     A
C815   O845    1.300   .     A
C815   C817    1.468   .     S
C815   O846    1.304   .     A
C818   H832    1.077   .     S
C818   C819    1.395   .     A
C819   C226    1.381   1_556 S
C819   H240    1.072   1_556 S
C820   H833    1.079   .     S
Cu821  O841    1.947   .     S
Cu821  Cu822   2.700   .     S
Cu821  O839    1.962   .     S
Cu821  O843    1.963   .     S
Cu821  N837    2.029   .     S
Cu821  O845    1.941   .     S
Cu822  O846    1.947   .     S
Cu822  O840    1.963   .     S
Cu822  N838    2.029   .     S
Cu822  O842    1.941   .     S
Cu822  O844    1.962   .     S
H830   C222    1.073   1_556 S
N847   H848    1.031   .     S
N847   C849    1.448   .     S
C849   H850    1.110   .     S
C849   H851    1.111   .     S
C849   H852    1.111   .     S
N853   H854    1.031   .     S
N853   C855    1.440   .     S
C855   H857    1.108   .     S
C855   H858    1.107   .     S
C855   H922    1.111   .     S
H856   C987    1.111   1_455 S
C859   O906    1.299   .     A
C859   C875    1.449   .     S
C859   O905    1.296   .     A
C860   C861    1.415   .     A
C860   C268    1.411   1_556 S
C860   C292    1.404   1_556 S
C861   C868    1.422   .     A
C861   C865    1.408   .     A
C862   C866    1.403   .     A
C863   C864    1.406   .     A
C863   C268    1.411   1_556 S
C863   C288    1.397   1_556 S
C864   C865    1.398   .     A
C864   N919    1.428   .     S
C865   H901    1.079   .     S
C866   H897    1.077   .     S
C866   C883    1.400   .     A
C867   C883    1.399   .     A
C867   C882    1.394   .     A
C867   H889    1.083   .     S
C868   C870    1.489   .     S
C868   C884    1.405   .     A
C869   H902    1.082   .     S
C869   C875    1.400   .     A
C869   C1069   1.383   .     S
C870   O908    1.302   .     A
C870   O907    1.311   .     A
C871   H890    1.083   .     S
C871   C872    1.401   .     A
C872   C880    1.449   .     S
C872   C873    1.401   .     A
C873   H891    1.083   .     S
C874   H892    1.084   .     S
C874   C875    1.402   .     A
C874   C1071   1.384   .     S
C876   N913    1.423   .     S
C876   N904    1.379   .     A
C876   C943    1.430   .     S
C877   N903    1.363   .     A
C877   H893    1.080   .     S
C878   N903    1.369   .     A
C878   H894    1.082   .     S
C879   H895    1.082   .     S
C879   N904    1.369   .     A
C879   C944    1.422   .     S
C880   O910    1.297   .     A
C880   O909    1.298   .     A
C881   O911    1.300   .     A
C881   C883    1.468   .     S
C881   O912    1.304   .     A
C884   H898    1.077   .     S
C884   C885    1.395   .     A
C885   C292    1.381   1_556 S
C885   H306    1.072   1_556 S
C886   H899    1.079   .     S
Cu887  O907    1.947   .     S
Cu887  Cu888   2.700   .     S
Cu887  O905    1.962   .     S
Cu887  O909    1.963   .     S
Cu887  N903    2.029   .     S
Cu887  O911    1.941   .     S
Cu888  O912    1.947   .     S
Cu888  O906    1.963   .     S
Cu888  N904    2.029   .     S
Cu888  O908    1.941   .     S
Cu888  O910    1.962   .     S
H896   C288    1.073   1_556 S
N913   H914    1.031   .     S
N913   C915    1.448   .     S
C915   H916    1.110   .     S
C915   H917    1.111   .     S
C915   H918    1.111   .     S
N919   H920    1.031   .     S
N919   C921    1.440   .     S
C921   H923    1.108   .     S
C921   H924    1.107   .     S
C921   H988    1.111   .     S
C925   O972    1.299   .     A
C925   C941    1.449   .     S
C925   O971    1.296   .     A
C926   C927    1.415   .     A
C926   C334    1.411   1_556 S
C926   C358    1.404   1_556 S
C927   C934    1.422   .     A
C927   C931    1.408   .     A
C928   C932    1.403   .     A
C929   C930    1.406   .     A
C929   C334    1.411   1_556 S
C929   C354    1.397   1_556 S
C930   C931    1.398   .     A
C930   N985    1.428   .     S
C931   H967    1.079   .     S
C932   H963    1.077   .     S
C932   C949    1.400   .     A
C933   C949    1.399   .     A
C933   C948    1.394   .     A
C933   H955    1.083   .     S
C934   C936    1.489   .     S
C934   C950    1.405   .     A
C935   H968    1.082   .     S
C935   C941    1.400   .     A
C935   C1135   1.383   .     S
C936   O974    1.302   .     A
C936   O973    1.311   .     A
C937   H956    1.083   .     S
C937   C938    1.401   .     A
C938   C946    1.449   .     S
C938   C939    1.401   .     A
C939   H957    1.083   .     S
C940   H958    1.084   .     S
C940   C941    1.402   .     A
C940   C1137   1.384   .     S
C942   N979    1.423   .     S
C942   N970    1.379   .     A
C942   C811    1.430   1_655 S
C943   N969    1.363   .     A
C943   H959    1.080   .     S
C944   N969    1.369   .     A
C944   H960    1.082   .     S
C945   H961    1.082   .     S
C945   N970    1.369   .     A
C945   C812    1.422   1_655 S
C946   O976    1.297   .     A
C946   O975    1.298   .     A
C947   O977    1.300   .     A
C947   C949    1.468   .     S
C947   O978    1.304   .     A
C950   H964    1.077   .     S
C950   C951    1.395   .     A
C951   C358    1.381   1_556 S
C951   H372    1.072   1_556 S
C952   H965    1.079   .     S
Cu953  O973    1.947   .     S
Cu953  Cu954   2.700   .     S
Cu953  O971    1.962   .     S
Cu953  O975    1.963   .     S
Cu953  N969    2.029   .     S
Cu953  O977    1.941   .     S
Cu954  O978    1.947   .     S
Cu954  O972    1.963   .     S
Cu954  N970    2.029   .     S
Cu954  O974    1.941   .     S
Cu954  O976    1.962   .     S
H962   C354    1.073   1_556 S
N979   H980    1.031   .     S
N979   C981    1.448   .     S
C981   H982    1.110   .     S
C981   H983    1.111   .     S
C981   H984    1.111   .     S
N985   H986    1.031   .     S
N985   C987    1.440   .     S
C987   H989    1.108   .     S
C987   H990    1.107   .     S
C987   H856    1.111   1_655 S
C991   O1038   1.299   .     A
C991   C1007   1.449   .     S
C991   O1037   1.296   .     A
C992   C993    1.415   .     A
C992   C400    1.411   1_556 S
C992   C424    1.404   1_556 S
C993   C1000   1.422   .     A
C993   C997    1.408   .     A
C994   C998    1.403   .     A
C995   C996    1.406   .     A
C995   C400    1.411   1_556 S
C995   C420    1.397   1_556 S
C996   C997    1.398   .     A
C996   N1051   1.428   .     S
C997   H1033   1.079   .     S
C998   H1029   1.077   .     S
C998   C1015   1.400   .     A
C999   C1015   1.399   .     A
C999   C1014   1.394   .     A
C999   H1021   1.083   .     S
C1000  C1002   1.489   .     S
C1000  C1016   1.405   .     A
C1001  H1034   1.082   .     S
C1001  C1007   1.400   .     A
C1001  C607    1.383   1_565 S
C1002  O1040   1.302   .     A
C1002  O1039   1.311   .     A
C1003  H1022   1.083   .     S
C1003  C1004   1.401   .     A
C1004  C1012   1.449   .     S
C1004  C1005   1.401   .     A
C1005  H1023   1.083   .     S
C1006  H1024   1.084   .     S
C1006  C1007   1.402   .     A
C1006  C609    1.384   1_565 S
C1008  N1045   1.423   .     S
C1008  N1036   1.379   .     A
C1008  C1075   1.430   .     S
C1009  N1035   1.363   .     A
C1009  H1025   1.080   .     S
C1009  C1140   1.430   1_455 S
C1010  N1035   1.369   .     A
C1010  H1026   1.082   .     S
C1010  C1143   1.422   1_455 S
C1011  H1027   1.082   .     S
C1011  N1036   1.369   .     A
C1011  C1076   1.422   .     S
C1012  O1042   1.297   .     A
C1012  O1041   1.298   .     A
C1013  O1043   1.300   .     A
C1013  C1015   1.468   .     S
C1013  O1044   1.304   .     A
C1016  H1030   1.077   .     S
C1016  C1017   1.395   .     A
C1017  C424    1.381   1_556 S
C1017  H438    1.072   1_556 S
C1018  H1031   1.079   .     S
Cu1019 O1039   1.947   .     S
Cu1019 Cu1020  2.700   .     S
Cu1019 O1037   1.962   .     S
Cu1019 O1041   1.963   .     S
Cu1019 N1035   2.029   .     S
Cu1019 O1043   1.941   .     S
Cu1020 O1044   1.947   .     S
Cu1020 O1038   1.963   .     S
Cu1020 N1036   2.029   .     S
Cu1020 O1040   1.941   .     S
Cu1020 O1042   1.962   .     S
H1028  C420    1.073   1_556 S
N1045  H1046   1.031   .     S
N1045  C1047   1.448   .     S
C1047  H1048   1.110   .     S
C1047  H1049   1.111   .     S
C1047  H1050   1.111   .     S
N1051  H1052   1.031   .     S
N1051  C1053   1.440   .     S
C1053  H1055   1.108   .     S
C1053  H1056   1.107   .     S
C1053  H1120   1.111   .     S
H1054  C1185   1.111   1_455 S
C1057  O1104   1.299   .     A
C1057  C1073   1.449   .     S
C1057  O1103   1.296   .     A
C1058  C1059   1.415   .     A
C1058  C466    1.411   1_556 S
C1058  C490    1.404   1_556 S
C1059  C1066   1.422   .     A
C1059  C1063   1.408   .     A
C1060  C1064   1.403   .     A
C1061  C1062   1.406   .     A
C1061  C466    1.411   1_556 S
C1061  C486    1.397   1_556 S
C1062  C1063   1.398   .     A
C1062  N1117   1.428   .     S
C1063  H1099   1.079   .     S
C1064  H1095   1.077   .     S
C1064  C1081   1.400   .     A
C1065  C1081   1.399   .     A
C1065  C1080   1.394   .     A
C1065  H1087   1.083   .     S
C1066  C1068   1.489   .     S
C1066  C1082   1.405   .     A
C1067  H1100   1.082   .     S
C1067  C1073   1.400   .     A
C1067  C673    1.383   1_565 S
C1068  O1106   1.302   .     A
C1068  O1105   1.311   .     A
C1069  H1088   1.083   .     S
C1069  C1070   1.401   .     A
C1070  C1078   1.449   .     S
C1070  C1071   1.401   .     A
C1071  H1089   1.083   .     S
C1072  H1090   1.084   .     S
C1072  C1073   1.402   .     A
C1072  C675    1.384   1_565 S
C1074  N1111   1.423   .     S
C1074  N1102   1.379   .     A
C1074  C1141   1.430   .     S
C1075  N1101   1.363   .     A
C1075  H1091   1.080   .     S
C1076  N1101   1.369   .     A
C1076  H1092   1.082   .     S
C1077  H1093   1.082   .     S
C1077  N1102   1.369   .     A
C1077  C1142   1.422   .     S
C1078  O1108   1.297   .     A
C1078  O1107   1.298   .     A
C1079  O1109   1.300   .     A
C1079  C1081   1.468   .     S
C1079  O1110   1.304   .     A
C1082  H1096   1.077   .     S
C1082  C1083   1.395   .     A
C1083  C490    1.381   1_556 S
C1083  H504    1.072   1_556 S
C1084  H1097   1.079   .     S
Cu1085 O1105   1.947   .     S
Cu1085 Cu1086  2.700   .     S
Cu1085 O1103   1.962   .     S
Cu1085 O1107   1.963   .     S
Cu1085 N1101   2.029   .     S
Cu1085 O1109   1.941   .     S
Cu1086 O1110   1.947   .     S
Cu1086 O1104   1.963   .     S
Cu1086 N1102   2.029   .     S
Cu1086 O1106   1.941   .     S
Cu1086 O1108   1.962   .     S
H1094  C486    1.073   1_556 S
N1111  H1112   1.031   .     S
N1111  C1113   1.448   .     S
C1113  H1114   1.110   .     S
C1113  H1115   1.111   .     S
C1113  H1116   1.111   .     S
N1117  H1118   1.031   .     S
N1117  C1119   1.440   .     S
C1119  H1121   1.108   .     S
C1119  H1122   1.107   .     S
C1119  H1186   1.111   .     S
C1123  O1170   1.299   .     A
C1123  C1139   1.449   .     S
C1123  O1169   1.296   .     A
C1124  C1125   1.415   .     A
C1124  C532    1.411   1_556 S
C1124  C556    1.404   1_556 S
C1125  C1132   1.422   .     A
C1125  C1129   1.408   .     A
C1126  C1130   1.403   .     A
C1127  C1128   1.406   .     A
C1127  C532    1.411   1_556 S
C1127  C552    1.397   1_556 S
C1128  C1129   1.398   .     A
C1128  N1183   1.428   .     S
C1129  H1165   1.079   .     S
C1130  H1161   1.077   .     S
C1130  C1147   1.400   .     A
C1131  C1147   1.399   .     A
C1131  C1146   1.394   .     A
C1131  H1153   1.083   .     S
C1132  C1134   1.489   .     S
C1132  C1148   1.405   .     A
C1133  H1166   1.082   .     S
C1133  C1139   1.400   .     A
C1133  C739    1.383   1_565 S
C1134  O1172   1.302   .     A
C1134  O1171   1.311   .     A
C1135  H1154   1.083   .     S
C1135  C1136   1.401   .     A
C1136  C1144   1.449   .     S
C1136  C1137   1.401   .     A
C1137  H1155   1.083   .     S
C1138  H1156   1.084   .     S
C1138  C1139   1.402   .     A
C1138  C741    1.384   1_565 S
C1140  N1177   1.423   .     S
C1140  N1168   1.379   .     A
C1140  C1009   1.430   1_655 S
C1141  N1167   1.363   .     A
C1141  H1157   1.080   .     S
C1142  N1167   1.369   .     A
C1142  H1158   1.082   .     S
C1143  H1159   1.082   .     S
C1143  N1168   1.369   .     A
C1143  C1010   1.422   1_655 S
C1144  O1174   1.297   .     A
C1144  O1173   1.298   .     A
C1145  O1175   1.300   .     A
C1145  C1147   1.468   .     S
C1145  O1176   1.304   .     A
C1148  H1162   1.077   .     S
C1148  C1149   1.395   .     A
C1149  C556    1.381   1_556 S
C1149  H570    1.072   1_556 S
C1150  H1163   1.079   .     S
Cu1151 O1171   1.947   .     S
Cu1151 Cu1152  2.700   .     S
Cu1151 O1169   1.962   .     S
Cu1151 O1173   1.963   .     S
Cu1151 N1167   2.029   .     S
Cu1151 O1175   1.941   .     S
Cu1152 O1176   1.947   .     S
Cu1152 O1170   1.963   .     S
Cu1152 N1168   2.029   .     S
Cu1152 O1172   1.941   .     S
Cu1152 O1174   1.962   .     S
H1160  C552    1.073   1_556 S
N1177  H1178   1.031   .     S
N1177  C1179   1.448   .     S
C1179  H1180   1.110   .     S
C1179  H1181   1.111   .     S
C1179  H1182   1.111   .     S
N1183  H1184   1.031   .     S
N1183  C1185   1.440   .     S
C1185  H1187   1.108   .     S
C1185  H1188   1.107   .     S
C1185  H1054   1.111   1_655 S
