data_str_m3_o1_o16_pcu_sym.123
_audit_creation_date              2020-01-03
_audit_creation_method            'Materials Studio'
_symmetry_space_group_name_H-M    'P1'
_symmetry_Int_Tables_number       1
_symmetry_cell_setting            triclinic
loop_
_symmetry_equiv_pos_as_xyz
  x,y,z
_cell_length_a                    29.5102
_cell_length_b                    32.1192
_cell_length_c                    26.2682
_cell_angle_alpha                 89.5083
_cell_angle_beta                  70.0409
_cell_angle_gamma                 89.8885
loop_
_atom_site_label
_atom_site_type_symbol
_atom_site_fract_x
_atom_site_fract_y
_atom_site_fract_z
_atom_site_U_iso_or_equiv
_atom_site_adp_type
_atom_site_occupancy
C1     C     0.16665   0.24671   0.25001   0.00000  Uiso   1.00
C2     C     0.14375   0.15617   0.49212   0.00000  Uiso   1.00
C3     C     0.15333   0.14396   0.43821   0.00000  Uiso   1.00
C4     C     0.18116   0.15306   0.01407   0.00000  Uiso   1.00
C5     C     0.22545   0.13320   0.48487   0.00000  Uiso   1.00
C6     C     0.23076   0.11384   0.43512   0.00000  Uiso   1.00
C7     C     0.19306   0.11702   0.41339   0.00000  Uiso   1.00
C8     C     0.17588   0.17028   0.06426   0.00000  Uiso   1.00
C9     C     0.25419   0.14551   0.06013   0.00000  Uiso   1.00
C10    C     0.12245   0.15920   0.41106   0.00000  Uiso   1.00
C11    C     0.21064   0.31202   0.23564   0.00000  Uiso   1.00
C12    C     0.14000   0.16411   0.35213   0.00000  Uiso   1.00
C13    C     0.21071   0.02135   0.23530   0.00000  Uiso   1.00
C14    C     0.16683   0.04250   0.24928   0.00000  Uiso   1.00
C15    C     0.12288   0.02133   0.26345   0.00000  Uiso   1.00
C16    C     0.12282   0.31202   0.26370   0.00000  Uiso   1.00
C17    C     0.16670   0.29086   0.24981   0.00000  Uiso   1.00
C18    C     0.32038   0.14318   0.21376   0.00000  Uiso   1.00
C19    C     0.03501   0.14318   0.21378   0.00000  Uiso   1.00
C20    C     0.01289   0.19002   0.28639   0.00000  Uiso   1.00
C21    C     0.29826   0.19002   0.28637   0.00000  Uiso   1.00
C22    C     0.16681   0.08663   0.24948   0.00000  Uiso   1.00
C23    C     0.19337   0.16717   0.14776   0.00000  Uiso   1.00
C24    C     0.26266   0.13195   0.00751   0.00000  Uiso   1.00
C25    C     0.20966   0.16294   0.08925   0.00000  Uiso   1.00
C26    C     0.07681   0.17493   0.44081   0.00000  Uiso   1.00
C27    C     0.06339   0.17897   0.49648   0.00000  Uiso   1.00
C28    C     0.09683   0.17096   0.02195   0.00000  Uiso   1.00
H29    H     0.28139   0.14060   0.07872   0.00000  Uiso   1.00
H30    H     0.24488   0.03766   0.22391   0.00000  Uiso   1.00
H31    H     0.08872   0.03762   0.27480   0.00000  Uiso   1.00
H32    H     0.08863   0.29572   0.27515   0.00000  Uiso   1.00
H33    H     0.31102   0.12442   0.18479   0.00000  Uiso   1.00
H34    H     0.06200   0.12437   0.18481   0.00000  Uiso   1.00
H35    H     0.02223   0.20871   0.31544   0.00000  Uiso   1.00
H36    H     0.27125   0.20875   0.31541   0.00000  Uiso   1.00
H37    H     0.29771   0.11885   0.48604   0.00000  Uiso   1.00
H38    H     0.14452   0.18825   0.08619   0.00000  Uiso   1.00
H39    H     0.05208   0.18525   0.42088   0.00000  Uiso   1.00
H40    H     0.08451   0.17573   0.06512   0.00000  Uiso   1.00
H41    H     0.02786   0.19048   0.01960   0.00000  Uiso   1.00
H42    H     0.24480   0.29573   0.22444   0.00000  Uiso   1.00
N43    N     0.04760   0.16668   0.25001   0.00000  Uiso   1.00
N44    N     0.28573   0.16665   0.25000   0.00000  Uiso   1.00
O45    O     0.12846   0.22775   0.25000   0.00000  Uiso   1.00
O46    O     0.20490   0.22774   0.25000   0.00000  Uiso   1.00
O47    O     0.10947   0.16666   0.32681   0.00000  Uiso   1.00
O48    O     0.18591   0.16665   0.32681   0.00000  Uiso   1.00
O49    O     0.12843   0.10559   0.24999   0.00000  Uiso   1.00
O50    O     0.20488   0.10558   0.24999   0.00000  Uiso   1.00
O51    O     0.14742   0.16668   0.17319   0.00000  Uiso   1.00
O52    O     0.22387   0.16667   0.17319   0.00000  Uiso   1.00
Zn53   Zn    0.11562   0.16667   0.25000   0.00000  Uiso   1.00
Zn54   Zn    0.21771   0.16666   0.25000   0.00000  Uiso   1.00
C55    C     0.27445   0.08884   0.40694   0.00000  Uiso   1.00
H56    H     0.29525   0.09535   0.36482   0.00000  Uiso   1.00
O57    O     0.28672   0.06024   0.43026   0.00000  Uiso   1.00
C58    C     0.19024   0.08627   0.37202   0.00000  Uiso   1.00
O59    O     0.22650   0.07645   0.33486   0.00000  Uiso   1.00
O60    O     0.14661   0.06719   0.37573   0.00000  Uiso   1.00
H61    H     0.11927   0.07372   0.41038   0.00000  Uiso   1.00
C62    C     0.49999   0.24671   0.25001   0.00000  Uiso   1.00
C63    C     0.47708   0.15617   0.49212   0.00000  Uiso   1.00
C64    C     0.48666   0.14396   0.43821   0.00000  Uiso   1.00
C65    C     0.51450   0.15306   0.01407   0.00000  Uiso   1.00
C66    C     0.55878   0.13320   0.48487   0.00000  Uiso   1.00
C67    C     0.56410   0.11384   0.43512   0.00000  Uiso   1.00
C68    C     0.52639   0.11702   0.41339   0.00000  Uiso   1.00
C69    C     0.50922   0.17028   0.06426   0.00000  Uiso   1.00
C70    C     0.58752   0.14551   0.06013   0.00000  Uiso   1.00
C71    C     0.45578   0.15920   0.41106   0.00000  Uiso   1.00
C72    C     0.54398   0.31202   0.23564   0.00000  Uiso   1.00
C73    C     0.47333   0.16411   0.35213   0.00000  Uiso   1.00
C74    C     0.54404   0.02135   0.23530   0.00000  Uiso   1.00
C75    C     0.50016   0.04250   0.24928   0.00000  Uiso   1.00
C76    C     0.45622   0.02133   0.26345   0.00000  Uiso   1.00
C77    C     0.45615   0.31202   0.26370   0.00000  Uiso   1.00
C78    C     0.50003   0.29086   0.24981   0.00000  Uiso   1.00
C79    C     0.65372   0.14318   0.21376   0.00000  Uiso   1.00
C80    C     0.36835   0.14318   0.21378   0.00000  Uiso   1.00
C81    C     0.34623   0.19002   0.28639   0.00000  Uiso   1.00
C82    C     0.63160   0.19002   0.28637   0.00000  Uiso   1.00
C83    C     0.50015   0.08663   0.24948   0.00000  Uiso   1.00
C84    C     0.52671   0.16717   0.14776   0.00000  Uiso   1.00
C85    C     0.59600   0.13195   0.00751   0.00000  Uiso   1.00
C86    C     0.54300   0.16294   0.08925   0.00000  Uiso   1.00
C87    C     0.41014   0.17493   0.44081   0.00000  Uiso   1.00
C88    C     0.39673   0.17897   0.49648   0.00000  Uiso   1.00
C89    C     0.43016   0.17096   0.02195   0.00000  Uiso   1.00
H90    H     0.61473   0.14060   0.07872   0.00000  Uiso   1.00
H91    H     0.57821   0.03766   0.22391   0.00000  Uiso   1.00
H92    H     0.42205   0.03762   0.27480   0.00000  Uiso   1.00
H93    H     0.42197   0.29572   0.27515   0.00000  Uiso   1.00
H94    H     0.64435   0.12442   0.18479   0.00000  Uiso   1.00
H95    H     0.39533   0.12437   0.18481   0.00000  Uiso   1.00
H96    H     0.35556   0.20871   0.31544   0.00000  Uiso   1.00
H97    H     0.60459   0.20875   0.31541   0.00000  Uiso   1.00
H98    H     0.63104   0.11885   0.48604   0.00000  Uiso   1.00
H99    H     0.47785   0.18825   0.08619   0.00000  Uiso   1.00
H100   H     0.38541   0.18525   0.42088   0.00000  Uiso   1.00
H101   H     0.41784   0.17573   0.06512   0.00000  Uiso   1.00
H102   H     0.36120   0.19048   0.01960   0.00000  Uiso   1.00
H103   H     0.57813   0.29573   0.22444   0.00000  Uiso   1.00
N104   N     0.38093   0.16668   0.25001   0.00000  Uiso   1.00
N105   N     0.61906   0.16665   0.25000   0.00000  Uiso   1.00
O106   O     0.46179   0.22775   0.25000   0.00000  Uiso   1.00
O107   O     0.53823   0.22774   0.25000   0.00000  Uiso   1.00
O108   O     0.44280   0.16666   0.32681   0.00000  Uiso   1.00
O109   O     0.51924   0.16665   0.32681   0.00000  Uiso   1.00
O110   O     0.46177   0.10559   0.24999   0.00000  Uiso   1.00
O111   O     0.53821   0.10558   0.24999   0.00000  Uiso   1.00
O112   O     0.48076   0.16668   0.17319   0.00000  Uiso   1.00
O113   O     0.55720   0.16667   0.17319   0.00000  Uiso   1.00
Zn114  Zn    0.44896   0.16667   0.25000   0.00000  Uiso   1.00
Zn115  Zn    0.55104   0.16666   0.25000   0.00000  Uiso   1.00
C116   C     0.60778   0.08884   0.40694   0.00000  Uiso   1.00
H117   H     0.62858   0.09535   0.36482   0.00000  Uiso   1.00
O118   O     0.62005   0.06024   0.43026   0.00000  Uiso   1.00
C119   C     0.52358   0.08627   0.37202   0.00000  Uiso   1.00
O120   O     0.55984   0.07645   0.33486   0.00000  Uiso   1.00
O121   O     0.47994   0.06719   0.37573   0.00000  Uiso   1.00
H122   H     0.45260   0.07372   0.41038   0.00000  Uiso   1.00
C123   C     0.83332   0.24671   0.25001   0.00000  Uiso   1.00
C124   C     0.81041   0.15617   0.49212   0.00000  Uiso   1.00
C125   C     0.81999   0.14396   0.43821   0.00000  Uiso   1.00
C126   C     0.84783   0.15306   0.01407   0.00000  Uiso   1.00
C127   C     0.89212   0.13320   0.48487   0.00000  Uiso   1.00
C128   C     0.89743   0.11384   0.43512   0.00000  Uiso   1.00
C129   C     0.85972   0.11702   0.41339   0.00000  Uiso   1.00
C130   C     0.84255   0.17028   0.06426   0.00000  Uiso   1.00
C131   C     0.92086   0.14551   0.06013   0.00000  Uiso   1.00
C132   C     0.78911   0.15920   0.41106   0.00000  Uiso   1.00
C133   C     0.87731   0.31202   0.23564   0.00000  Uiso   1.00
C134   C     0.80666   0.16411   0.35213   0.00000  Uiso   1.00
C135   C     0.87737   0.02135   0.23530   0.00000  Uiso   1.00
C136   C     0.83349   0.04250   0.24928   0.00000  Uiso   1.00
C137   C     0.78955   0.02133   0.26345   0.00000  Uiso   1.00
C138   C     0.78949   0.31202   0.26370   0.00000  Uiso   1.00
C139   C     0.83336   0.29086   0.24981   0.00000  Uiso   1.00
C140   C     0.98705   0.14318   0.21376   0.00000  Uiso   1.00
C141   C     0.70168   0.14318   0.21378   0.00000  Uiso   1.00
C142   C     0.67956   0.19002   0.28639   0.00000  Uiso   1.00
C143   C     0.96493   0.19002   0.28637   0.00000  Uiso   1.00
C144   C     0.83348   0.08663   0.24948   0.00000  Uiso   1.00
C145   C     0.86004   0.16717   0.14776   0.00000  Uiso   1.00
C146   C     0.92933   0.13195   0.00751   0.00000  Uiso   1.00
C147   C     0.87633   0.16294   0.08925   0.00000  Uiso   1.00
C148   C     0.74348   0.17493   0.44081   0.00000  Uiso   1.00
C149   C     0.73006   0.17897   0.49648   0.00000  Uiso   1.00
C150   C     0.76349   0.17096   0.02195   0.00000  Uiso   1.00
H151   H     0.94806   0.14060   0.07872   0.00000  Uiso   1.00
H152   H     0.91155   0.03766   0.22391   0.00000  Uiso   1.00
H153   H     0.75538   0.03762   0.27480   0.00000  Uiso   1.00
H154   H     0.75530   0.29572   0.27515   0.00000  Uiso   1.00
H155   H     0.97769   0.12442   0.18479   0.00000  Uiso   1.00
H156   H     0.72867   0.12437   0.18481   0.00000  Uiso   1.00
H157   H     0.68890   0.20871   0.31544   0.00000  Uiso   1.00
H158   H     0.93792   0.20875   0.31541   0.00000  Uiso   1.00
H159   H     0.96438   0.11885   0.48604   0.00000  Uiso   1.00
H160   H     0.81119   0.18825   0.08619   0.00000  Uiso   1.00
H161   H     0.71874   0.18525   0.42088   0.00000  Uiso   1.00
H162   H     0.75118   0.17573   0.06512   0.00000  Uiso   1.00
H163   H     0.69453   0.19048   0.01960   0.00000  Uiso   1.00
H164   H     0.91146   0.29573   0.22444   0.00000  Uiso   1.00
N165   N     0.71426   0.16668   0.25001   0.00000  Uiso   1.00
N166   N     0.95239   0.16665   0.25000   0.00000  Uiso   1.00
O167   O     0.79512   0.22775   0.25000   0.00000  Uiso   1.00
O168   O     0.87157   0.22774   0.25000   0.00000  Uiso   1.00
O169   O     0.77613   0.16666   0.32681   0.00000  Uiso   1.00
O170   O     0.85258   0.16665   0.32681   0.00000  Uiso   1.00
O171   O     0.79510   0.10559   0.24999   0.00000  Uiso   1.00
O172   O     0.87154   0.10558   0.24999   0.00000  Uiso   1.00
O173   O     0.81409   0.16668   0.17319   0.00000  Uiso   1.00
O174   O     0.89053   0.16667   0.17319   0.00000  Uiso   1.00
Zn175  Zn    0.78229   0.16667   0.25000   0.00000  Uiso   1.00
Zn176  Zn    0.88438   0.16666   0.25000   0.00000  Uiso   1.00
C177   C     0.94112   0.08884   0.40694   0.00000  Uiso   1.00
H178   H     0.96191   0.09535   0.36482   0.00000  Uiso   1.00
O179   O     0.95338   0.06024   0.43026   0.00000  Uiso   1.00
C180   C     0.85691   0.08627   0.37202   0.00000  Uiso   1.00
O181   O     0.89317   0.07645   0.33486   0.00000  Uiso   1.00
O182   O     0.81328   0.06719   0.37573   0.00000  Uiso   1.00
H183   H     0.78593   0.07372   0.41038   0.00000  Uiso   1.00
C184   C     0.16665   0.58004   0.25001   0.00000  Uiso   1.00
C185   C     0.14375   0.48951   0.49212   0.00000  Uiso   1.00
C186   C     0.15333   0.47729   0.43821   0.00000  Uiso   1.00
C187   C     0.18116   0.48639   0.01407   0.00000  Uiso   1.00
C188   C     0.22545   0.46653   0.48487   0.00000  Uiso   1.00
C189   C     0.23076   0.44718   0.43512   0.00000  Uiso   1.00
C190   C     0.19306   0.45035   0.41339   0.00000  Uiso   1.00
C191   C     0.17588   0.50361   0.06426   0.00000  Uiso   1.00
C192   C     0.25419   0.47884   0.06013   0.00000  Uiso   1.00
C193   C     0.12245   0.49253   0.41106   0.00000  Uiso   1.00
C194   C     0.21064   0.64536   0.23564   0.00000  Uiso   1.00
C195   C     0.14000   0.49744   0.35213   0.00000  Uiso   1.00
C196   C     0.21071   0.35468   0.23530   0.00000  Uiso   1.00
C197   C     0.16683   0.37583   0.24928   0.00000  Uiso   1.00
C198   C     0.12288   0.35467   0.26345   0.00000  Uiso   1.00
C199   C     0.12282   0.64535   0.26370   0.00000  Uiso   1.00
C200   C     0.16670   0.62419   0.24981   0.00000  Uiso   1.00
C201   C     0.32038   0.47651   0.21376   0.00000  Uiso   1.00
C202   C     0.03501   0.47651   0.21378   0.00000  Uiso   1.00
C203   C     0.01289   0.52336   0.28639   0.00000  Uiso   1.00
C204   C     0.29826   0.52336   0.28637   0.00000  Uiso   1.00
C205   C     0.16681   0.41997   0.24948   0.00000  Uiso   1.00
C206   C     0.19337   0.50050   0.14776   0.00000  Uiso   1.00
C207   C     0.26266   0.46528   0.00751   0.00000  Uiso   1.00
C208   C     0.20966   0.49627   0.08925   0.00000  Uiso   1.00
C209   C     0.07681   0.50826   0.44081   0.00000  Uiso   1.00
C210   C     0.06339   0.51230   0.49648   0.00000  Uiso   1.00
C211   C     0.09683   0.50430   0.02195   0.00000  Uiso   1.00
H212   H     0.28139   0.47393   0.07872   0.00000  Uiso   1.00
H213   H     0.24488   0.37099   0.22391   0.00000  Uiso   1.00
H214   H     0.08872   0.37095   0.27480   0.00000  Uiso   1.00
H215   H     0.08863   0.62905   0.27515   0.00000  Uiso   1.00
H216   H     0.31102   0.45776   0.18479   0.00000  Uiso   1.00
H217   H     0.06200   0.45771   0.18481   0.00000  Uiso   1.00
H218   H     0.02223   0.54204   0.31544   0.00000  Uiso   1.00
H219   H     0.27125   0.54209   0.31541   0.00000  Uiso   1.00
H220   H     0.29771   0.45218   0.48604   0.00000  Uiso   1.00
H221   H     0.14452   0.52159   0.08619   0.00000  Uiso   1.00
H222   H     0.05208   0.51858   0.42088   0.00000  Uiso   1.00
H223   H     0.08451   0.50906   0.06512   0.00000  Uiso   1.00
H224   H     0.02786   0.52381   0.01960   0.00000  Uiso   1.00
H225   H     0.24480   0.62906   0.22444   0.00000  Uiso   1.00
N226   N     0.04760   0.50001   0.25001   0.00000  Uiso   1.00
N227   N     0.28573   0.49998   0.25000   0.00000  Uiso   1.00
O228   O     0.12846   0.56108   0.25000   0.00000  Uiso   1.00
O229   O     0.20490   0.56107   0.25000   0.00000  Uiso   1.00
O230   O     0.10947   0.50000   0.32681   0.00000  Uiso   1.00
O231   O     0.18591   0.49999   0.32681   0.00000  Uiso   1.00
O232   O     0.12843   0.43893   0.24999   0.00000  Uiso   1.00
O233   O     0.20488   0.43892   0.24999   0.00000  Uiso   1.00
O234   O     0.14742   0.50001   0.17319   0.00000  Uiso   1.00
O235   O     0.22387   0.50000   0.17319   0.00000  Uiso   1.00
Zn236  Zn    0.11562   0.50001   0.25000   0.00000  Uiso   1.00
Zn237  Zn    0.21771   0.49999   0.25000   0.00000  Uiso   1.00
C238   C     0.27445   0.42218   0.40694   0.00000  Uiso   1.00
H239   H     0.29525   0.42868   0.36482   0.00000  Uiso   1.00
O240   O     0.28672   0.39357   0.43026   0.00000  Uiso   1.00
C241   C     0.19024   0.41960   0.37202   0.00000  Uiso   1.00
O242   O     0.22650   0.40978   0.33486   0.00000  Uiso   1.00
O243   O     0.14661   0.40052   0.37573   0.00000  Uiso   1.00
H244   H     0.11927   0.40705   0.41038   0.00000  Uiso   1.00
C245   C     0.49999   0.58004   0.25001   0.00000  Uiso   1.00
C246   C     0.47708   0.48951   0.49212   0.00000  Uiso   1.00
C247   C     0.48666   0.47729   0.43821   0.00000  Uiso   1.00
C248   C     0.51450   0.48639   0.01407   0.00000  Uiso   1.00
C249   C     0.55878   0.46653   0.48487   0.00000  Uiso   1.00
C250   C     0.56410   0.44718   0.43512   0.00000  Uiso   1.00
C251   C     0.52639   0.45035   0.41339   0.00000  Uiso   1.00
C252   C     0.50922   0.50361   0.06426   0.00000  Uiso   1.00
C253   C     0.58752   0.47884   0.06013   0.00000  Uiso   1.00
C254   C     0.45578   0.49253   0.41106   0.00000  Uiso   1.00
C255   C     0.54398   0.64536   0.23564   0.00000  Uiso   1.00
C256   C     0.47333   0.49744   0.35213   0.00000  Uiso   1.00
C257   C     0.54404   0.35468   0.23530   0.00000  Uiso   1.00
C258   C     0.50016   0.37583   0.24928   0.00000  Uiso   1.00
C259   C     0.45622   0.35467   0.26345   0.00000  Uiso   1.00
C260   C     0.45615   0.64535   0.26370   0.00000  Uiso   1.00
C261   C     0.50003   0.62419   0.24981   0.00000  Uiso   1.00
C262   C     0.65372   0.47651   0.21376   0.00000  Uiso   1.00
C263   C     0.36835   0.47651   0.21378   0.00000  Uiso   1.00
C264   C     0.34623   0.52336   0.28639   0.00000  Uiso   1.00
C265   C     0.63160   0.52336   0.28637   0.00000  Uiso   1.00
C266   C     0.50015   0.41997   0.24948   0.00000  Uiso   1.00
C267   C     0.52671   0.50050   0.14776   0.00000  Uiso   1.00
C268   C     0.59600   0.46528   0.00751   0.00000  Uiso   1.00
C269   C     0.54300   0.49627   0.08925   0.00000  Uiso   1.00
C270   C     0.41014   0.50826   0.44081   0.00000  Uiso   1.00
C271   C     0.39673   0.51230   0.49648   0.00000  Uiso   1.00
C272   C     0.43016   0.50430   0.02195   0.00000  Uiso   1.00
H273   H     0.61473   0.47393   0.07872   0.00000  Uiso   1.00
H274   H     0.57821   0.37099   0.22391   0.00000  Uiso   1.00
H275   H     0.42205   0.37095   0.27480   0.00000  Uiso   1.00
H276   H     0.42197   0.62905   0.27515   0.00000  Uiso   1.00
H277   H     0.64435   0.45776   0.18479   0.00000  Uiso   1.00
H278   H     0.39533   0.45771   0.18481   0.00000  Uiso   1.00
H279   H     0.35556   0.54204   0.31544   0.00000  Uiso   1.00
H280   H     0.60459   0.54209   0.31541   0.00000  Uiso   1.00
H281   H     0.63104   0.45218   0.48604   0.00000  Uiso   1.00
H282   H     0.47785   0.52159   0.08619   0.00000  Uiso   1.00
H283   H     0.38541   0.51858   0.42088   0.00000  Uiso   1.00
H284   H     0.41784   0.50906   0.06512   0.00000  Uiso   1.00
H285   H     0.36120   0.52381   0.01960   0.00000  Uiso   1.00
H286   H     0.57813   0.62906   0.22444   0.00000  Uiso   1.00
N287   N     0.38093   0.50001   0.25001   0.00000  Uiso   1.00
N288   N     0.61906   0.49998   0.25000   0.00000  Uiso   1.00
O289   O     0.46179   0.56108   0.25000   0.00000  Uiso   1.00
O290   O     0.53823   0.56107   0.25000   0.00000  Uiso   1.00
O291   O     0.44280   0.50000   0.32681   0.00000  Uiso   1.00
O292   O     0.51924   0.49999   0.32681   0.00000  Uiso   1.00
O293   O     0.46177   0.43893   0.24999   0.00000  Uiso   1.00
O294   O     0.53821   0.43892   0.24999   0.00000  Uiso   1.00
O295   O     0.48076   0.50001   0.17319   0.00000  Uiso   1.00
O296   O     0.55720   0.50000   0.17319   0.00000  Uiso   1.00
Zn297  Zn    0.44896   0.50001   0.25000   0.00000  Uiso   1.00
Zn298  Zn    0.55104   0.49999   0.25000   0.00000  Uiso   1.00
C299   C     0.60778   0.42218   0.40694   0.00000  Uiso   1.00
H300   H     0.62858   0.42868   0.36482   0.00000  Uiso   1.00
O301   O     0.62005   0.39357   0.43026   0.00000  Uiso   1.00
C302   C     0.52358   0.41960   0.37202   0.00000  Uiso   1.00
O303   O     0.55984   0.40978   0.33486   0.00000  Uiso   1.00
O304   O     0.47994   0.40052   0.37573   0.00000  Uiso   1.00
H305   H     0.45260   0.40705   0.41038   0.00000  Uiso   1.00
C306   C     0.83332   0.58004   0.25001   0.00000  Uiso   1.00
C307   C     0.81041   0.48951   0.49212   0.00000  Uiso   1.00
C308   C     0.81999   0.47729   0.43821   0.00000  Uiso   1.00
C309   C     0.84783   0.48639   0.01407   0.00000  Uiso   1.00
C310   C     0.89212   0.46653   0.48487   0.00000  Uiso   1.00
C311   C     0.89743   0.44718   0.43512   0.00000  Uiso   1.00
C312   C     0.85972   0.45035   0.41339   0.00000  Uiso   1.00
C313   C     0.84255   0.50361   0.06426   0.00000  Uiso   1.00
C314   C     0.92086   0.47884   0.06013   0.00000  Uiso   1.00
C315   C     0.78911   0.49253   0.41106   0.00000  Uiso   1.00
C316   C     0.87731   0.64536   0.23564   0.00000  Uiso   1.00
C317   C     0.80666   0.49744   0.35213   0.00000  Uiso   1.00
C318   C     0.87737   0.35468   0.23530   0.00000  Uiso   1.00
C319   C     0.83349   0.37583   0.24928   0.00000  Uiso   1.00
C320   C     0.78955   0.35467   0.26345   0.00000  Uiso   1.00
C321   C     0.78949   0.64535   0.26370   0.00000  Uiso   1.00
C322   C     0.83336   0.62419   0.24981   0.00000  Uiso   1.00
C323   C     0.98705   0.47651   0.21376   0.00000  Uiso   1.00
C324   C     0.70168   0.47651   0.21378   0.00000  Uiso   1.00
C325   C     0.67956   0.52336   0.28639   0.00000  Uiso   1.00
C326   C     0.96493   0.52336   0.28637   0.00000  Uiso   1.00
C327   C     0.83348   0.41997   0.24948   0.00000  Uiso   1.00
C328   C     0.86004   0.50050   0.14776   0.00000  Uiso   1.00
C329   C     0.92933   0.46528   0.00751   0.00000  Uiso   1.00
C330   C     0.87633   0.49627   0.08925   0.00000  Uiso   1.00
C331   C     0.74348   0.50826   0.44081   0.00000  Uiso   1.00
C332   C     0.73006   0.51230   0.49648   0.00000  Uiso   1.00
C333   C     0.76349   0.50430   0.02195   0.00000  Uiso   1.00
H334   H     0.94806   0.47393   0.07872   0.00000  Uiso   1.00
H335   H     0.91155   0.37099   0.22391   0.00000  Uiso   1.00
H336   H     0.75538   0.37095   0.27480   0.00000  Uiso   1.00
H337   H     0.75530   0.62905   0.27515   0.00000  Uiso   1.00
H338   H     0.97769   0.45776   0.18479   0.00000  Uiso   1.00
H339   H     0.72867   0.45771   0.18481   0.00000  Uiso   1.00
H340   H     0.68890   0.54204   0.31544   0.00000  Uiso   1.00
H341   H     0.93792   0.54209   0.31541   0.00000  Uiso   1.00
H342   H     0.96438   0.45218   0.48604   0.00000  Uiso   1.00
H343   H     0.81119   0.52159   0.08619   0.00000  Uiso   1.00
H344   H     0.71874   0.51858   0.42088   0.00000  Uiso   1.00
H345   H     0.75118   0.50906   0.06512   0.00000  Uiso   1.00
H346   H     0.69453   0.52381   0.01960   0.00000  Uiso   1.00
H347   H     0.91146   0.62906   0.22444   0.00000  Uiso   1.00
N348   N     0.71426   0.50001   0.25001   0.00000  Uiso   1.00
N349   N     0.95239   0.49998   0.25000   0.00000  Uiso   1.00
O350   O     0.79512   0.56108   0.25000   0.00000  Uiso   1.00
O351   O     0.87157   0.56107   0.25000   0.00000  Uiso   1.00
O352   O     0.77613   0.50000   0.32681   0.00000  Uiso   1.00
O353   O     0.85258   0.49999   0.32681   0.00000  Uiso   1.00
O354   O     0.79510   0.43893   0.24999   0.00000  Uiso   1.00
O355   O     0.87154   0.43892   0.24999   0.00000  Uiso   1.00
O356   O     0.81409   0.50001   0.17319   0.00000  Uiso   1.00
O357   O     0.89053   0.50000   0.17319   0.00000  Uiso   1.00
Zn358  Zn    0.78229   0.50001   0.25000   0.00000  Uiso   1.00
Zn359  Zn    0.88438   0.49999   0.25000   0.00000  Uiso   1.00
C360   C     0.94112   0.42218   0.40694   0.00000  Uiso   1.00
H361   H     0.96191   0.42868   0.36482   0.00000  Uiso   1.00
O362   O     0.95338   0.39357   0.43026   0.00000  Uiso   1.00
C363   C     0.85691   0.41960   0.37202   0.00000  Uiso   1.00
O364   O     0.89317   0.40978   0.33486   0.00000  Uiso   1.00
O365   O     0.81328   0.40052   0.37573   0.00000  Uiso   1.00
H366   H     0.78593   0.40705   0.41038   0.00000  Uiso   1.00
C367   C     0.16665   0.91338   0.25001   0.00000  Uiso   1.00
C368   C     0.14375   0.82284   0.49212   0.00000  Uiso   1.00
C369   C     0.15333   0.81063   0.43821   0.00000  Uiso   1.00
C370   C     0.18116   0.81972   0.01407   0.00000  Uiso   1.00
C371   C     0.22545   0.79986   0.48487   0.00000  Uiso   1.00
C372   C     0.23076   0.78051   0.43512   0.00000  Uiso   1.00
C373   C     0.19306   0.78369   0.41339   0.00000  Uiso   1.00
C374   C     0.17588   0.83694   0.06426   0.00000  Uiso   1.00
C375   C     0.25419   0.81218   0.06013   0.00000  Uiso   1.00
C376   C     0.12245   0.82587   0.41106   0.00000  Uiso   1.00
C377   C     0.21064   0.97869   0.23564   0.00000  Uiso   1.00
C378   C     0.14000   0.83078   0.35213   0.00000  Uiso   1.00
C379   C     0.21071   0.68801   0.23530   0.00000  Uiso   1.00
C380   C     0.16683   0.70916   0.24928   0.00000  Uiso   1.00
C381   C     0.12288   0.68800   0.26345   0.00000  Uiso   1.00
C382   C     0.12282   0.97868   0.26370   0.00000  Uiso   1.00
C383   C     0.16670   0.95752   0.24981   0.00000  Uiso   1.00
C384   C     0.32038   0.80984   0.21376   0.00000  Uiso   1.00
C385   C     0.03501   0.80984   0.21378   0.00000  Uiso   1.00
C386   C     0.01289   0.85669   0.28639   0.00000  Uiso   1.00
C387   C     0.29826   0.85669   0.28637   0.00000  Uiso   1.00
C388   C     0.16681   0.75330   0.24948   0.00000  Uiso   1.00
C389   C     0.19337   0.83384   0.14776   0.00000  Uiso   1.00
C390   C     0.26266   0.79862   0.00751   0.00000  Uiso   1.00
C391   C     0.20966   0.82960   0.08925   0.00000  Uiso   1.00
C392   C     0.07681   0.84159   0.44081   0.00000  Uiso   1.00
C393   C     0.06339   0.84564   0.49648   0.00000  Uiso   1.00
C394   C     0.09683   0.83763   0.02195   0.00000  Uiso   1.00
H395   H     0.28139   0.80726   0.07872   0.00000  Uiso   1.00
H396   H     0.24488   0.70433   0.22391   0.00000  Uiso   1.00
H397   H     0.08872   0.70429   0.27480   0.00000  Uiso   1.00
H398   H     0.08863   0.96239   0.27515   0.00000  Uiso   1.00
H399   H     0.31102   0.79109   0.18479   0.00000  Uiso   1.00
H400   H     0.06200   0.79104   0.18481   0.00000  Uiso   1.00
H401   H     0.02223   0.87537   0.31544   0.00000  Uiso   1.00
H402   H     0.27125   0.87542   0.31541   0.00000  Uiso   1.00
H403   H     0.29771   0.78552   0.48604   0.00000  Uiso   1.00
H404   H     0.14452   0.85492   0.08619   0.00000  Uiso   1.00
H405   H     0.05208   0.85191   0.42088   0.00000  Uiso   1.00
H406   H     0.08451   0.84240   0.06512   0.00000  Uiso   1.00
H407   H     0.02786   0.85715   0.01960   0.00000  Uiso   1.00
H408   H     0.24480   0.96240   0.22444   0.00000  Uiso   1.00
N409   N     0.04760   0.83334   0.25001   0.00000  Uiso   1.00
N410   N     0.28573   0.83331   0.25000   0.00000  Uiso   1.00
O411   O     0.12846   0.89442   0.25000   0.00000  Uiso   1.00
O412   O     0.20490   0.89441   0.25000   0.00000  Uiso   1.00
O413   O     0.10947   0.83333   0.32681   0.00000  Uiso   1.00
O414   O     0.18591   0.83332   0.32681   0.00000  Uiso   1.00
O415   O     0.12843   0.77226   0.24999   0.00000  Uiso   1.00
O416   O     0.20488   0.77225   0.24999   0.00000  Uiso   1.00
O417   O     0.14742   0.83335   0.17319   0.00000  Uiso   1.00
O418   O     0.22387   0.83334   0.17319   0.00000  Uiso   1.00
Zn419  Zn    0.11562   0.83334   0.25000   0.00000  Uiso   1.00
Zn420  Zn    0.21771   0.83333   0.25000   0.00000  Uiso   1.00
C421   C     0.27445   0.75551   0.40694   0.00000  Uiso   1.00
H422   H     0.29525   0.76201   0.36482   0.00000  Uiso   1.00
O423   O     0.28672   0.72690   0.43026   0.00000  Uiso   1.00
C424   C     0.19024   0.75293   0.37202   0.00000  Uiso   1.00
O425   O     0.22650   0.74311   0.33486   0.00000  Uiso   1.00
O426   O     0.14661   0.73386   0.37573   0.00000  Uiso   1.00
H427   H     0.11927   0.74038   0.41038   0.00000  Uiso   1.00
C428   C     0.49999   0.91338   0.25001   0.00000  Uiso   1.00
C429   C     0.47708   0.82284   0.49212   0.00000  Uiso   1.00
C430   C     0.48666   0.81063   0.43821   0.00000  Uiso   1.00
C431   C     0.51450   0.81972   0.01407   0.00000  Uiso   1.00
C432   C     0.55878   0.79986   0.48487   0.00000  Uiso   1.00
C433   C     0.56410   0.78051   0.43512   0.00000  Uiso   1.00
C434   C     0.52639   0.78369   0.41339   0.00000  Uiso   1.00
C435   C     0.50922   0.83694   0.06426   0.00000  Uiso   1.00
C436   C     0.58752   0.81218   0.06013   0.00000  Uiso   1.00
C437   C     0.45578   0.82587   0.41106   0.00000  Uiso   1.00
C438   C     0.54398   0.97869   0.23564   0.00000  Uiso   1.00
C439   C     0.47333   0.83078   0.35213   0.00000  Uiso   1.00
C440   C     0.54404   0.68801   0.23530   0.00000  Uiso   1.00
C441   C     0.50016   0.70916   0.24928   0.00000  Uiso   1.00
C442   C     0.45622   0.68800   0.26345   0.00000  Uiso   1.00
C443   C     0.45615   0.97868   0.26370   0.00000  Uiso   1.00
C444   C     0.50003   0.95752   0.24981   0.00000  Uiso   1.00
C445   C     0.65372   0.80984   0.21376   0.00000  Uiso   1.00
C446   C     0.36835   0.80984   0.21378   0.00000  Uiso   1.00
C447   C     0.34623   0.85669   0.28639   0.00000  Uiso   1.00
C448   C     0.63160   0.85669   0.28637   0.00000  Uiso   1.00
C449   C     0.50015   0.75330   0.24948   0.00000  Uiso   1.00
C450   C     0.52671   0.83384   0.14776   0.00000  Uiso   1.00
C451   C     0.59600   0.79862   0.00751   0.00000  Uiso   1.00
C452   C     0.54300   0.82960   0.08925   0.00000  Uiso   1.00
C453   C     0.41014   0.84159   0.44081   0.00000  Uiso   1.00
C454   C     0.39673   0.84564   0.49648   0.00000  Uiso   1.00
C455   C     0.43016   0.83763   0.02195   0.00000  Uiso   1.00
H456   H     0.61473   0.80726   0.07872   0.00000  Uiso   1.00
H457   H     0.57821   0.70433   0.22391   0.00000  Uiso   1.00
H458   H     0.42205   0.70429   0.27480   0.00000  Uiso   1.00
H459   H     0.42197   0.96239   0.27515   0.00000  Uiso   1.00
H460   H     0.64435   0.79109   0.18479   0.00000  Uiso   1.00
H461   H     0.39533   0.79104   0.18481   0.00000  Uiso   1.00
H462   H     0.35556   0.87537   0.31544   0.00000  Uiso   1.00
H463   H     0.60459   0.87542   0.31541   0.00000  Uiso   1.00
H464   H     0.63104   0.78552   0.48604   0.00000  Uiso   1.00
H465   H     0.47785   0.85492   0.08619   0.00000  Uiso   1.00
H466   H     0.38541   0.85191   0.42088   0.00000  Uiso   1.00
H467   H     0.41784   0.84240   0.06512   0.00000  Uiso   1.00
H468   H     0.36120   0.85715   0.01960   0.00000  Uiso   1.00
H469   H     0.57813   0.96240   0.22444   0.00000  Uiso   1.00
N470   N     0.38093   0.83334   0.25001   0.00000  Uiso   1.00
N471   N     0.61906   0.83331   0.25000   0.00000  Uiso   1.00
O472   O     0.46179   0.89442   0.25000   0.00000  Uiso   1.00
O473   O     0.53823   0.89441   0.25000   0.00000  Uiso   1.00
O474   O     0.44280   0.83333   0.32681   0.00000  Uiso   1.00
O475   O     0.51924   0.83332   0.32681   0.00000  Uiso   1.00
O476   O     0.46177   0.77226   0.24999   0.00000  Uiso   1.00
O477   O     0.53821   0.77225   0.24999   0.00000  Uiso   1.00
O478   O     0.48076   0.83335   0.17319   0.00000  Uiso   1.00
O479   O     0.55720   0.83334   0.17319   0.00000  Uiso   1.00
Zn480  Zn    0.44896   0.83334   0.25000   0.00000  Uiso   1.00
Zn481  Zn    0.55104   0.83333   0.25000   0.00000  Uiso   1.00
C482   C     0.60778   0.75551   0.40694   0.00000  Uiso   1.00
H483   H     0.62858   0.76201   0.36482   0.00000  Uiso   1.00
O484   O     0.62005   0.72690   0.43026   0.00000  Uiso   1.00
C485   C     0.52358   0.75293   0.37202   0.00000  Uiso   1.00
O486   O     0.55984   0.74311   0.33486   0.00000  Uiso   1.00
O487   O     0.47994   0.73386   0.37573   0.00000  Uiso   1.00
H488   H     0.45260   0.74038   0.41038   0.00000  Uiso   1.00
C489   C     0.83332   0.91338   0.25001   0.00000  Uiso   1.00
C490   C     0.81041   0.82284   0.49212   0.00000  Uiso   1.00
C491   C     0.81999   0.81063   0.43821   0.00000  Uiso   1.00
C492   C     0.84783   0.81972   0.01407   0.00000  Uiso   1.00
C493   C     0.89212   0.79986   0.48487   0.00000  Uiso   1.00
C494   C     0.89743   0.78051   0.43512   0.00000  Uiso   1.00
C495   C     0.85972   0.78369   0.41339   0.00000  Uiso   1.00
C496   C     0.84255   0.83694   0.06426   0.00000  Uiso   1.00
C497   C     0.92086   0.81218   0.06013   0.00000  Uiso   1.00
C498   C     0.78911   0.82587   0.41106   0.00000  Uiso   1.00
C499   C     0.87731   0.97869   0.23564   0.00000  Uiso   1.00
C500   C     0.80666   0.83078   0.35213   0.00000  Uiso   1.00
C501   C     0.87737   0.68801   0.23530   0.00000  Uiso   1.00
C502   C     0.83349   0.70916   0.24928   0.00000  Uiso   1.00
C503   C     0.78955   0.68800   0.26345   0.00000  Uiso   1.00
C504   C     0.78949   0.97868   0.26370   0.00000  Uiso   1.00
C505   C     0.83336   0.95752   0.24981   0.00000  Uiso   1.00
C506   C     0.98705   0.80984   0.21376   0.00000  Uiso   1.00
C507   C     0.70168   0.80984   0.21378   0.00000  Uiso   1.00
C508   C     0.67956   0.85669   0.28639   0.00000  Uiso   1.00
C509   C     0.96493   0.85669   0.28637   0.00000  Uiso   1.00
C510   C     0.83348   0.75330   0.24948   0.00000  Uiso   1.00
C511   C     0.86004   0.83384   0.14776   0.00000  Uiso   1.00
C512   C     0.92933   0.79862   0.00751   0.00000  Uiso   1.00
C513   C     0.87633   0.82960   0.08925   0.00000  Uiso   1.00
C514   C     0.74348   0.84159   0.44081   0.00000  Uiso   1.00
C515   C     0.73006   0.84564   0.49648   0.00000  Uiso   1.00
C516   C     0.76349   0.83763   0.02195   0.00000  Uiso   1.00
H517   H     0.94806   0.80726   0.07872   0.00000  Uiso   1.00
H518   H     0.91155   0.70433   0.22391   0.00000  Uiso   1.00
H519   H     0.75538   0.70429   0.27480   0.00000  Uiso   1.00
H520   H     0.75530   0.96239   0.27515   0.00000  Uiso   1.00
H521   H     0.97769   0.79109   0.18479   0.00000  Uiso   1.00
H522   H     0.72867   0.79104   0.18481   0.00000  Uiso   1.00
H523   H     0.68890   0.87537   0.31544   0.00000  Uiso   1.00
H524   H     0.93792   0.87542   0.31541   0.00000  Uiso   1.00
H525   H     0.96438   0.78552   0.48604   0.00000  Uiso   1.00
H526   H     0.81119   0.85492   0.08619   0.00000  Uiso   1.00
H527   H     0.71874   0.85191   0.42088   0.00000  Uiso   1.00
H528   H     0.75118   0.84240   0.06512   0.00000  Uiso   1.00
H529   H     0.69453   0.85715   0.01960   0.00000  Uiso   1.00
H530   H     0.91146   0.96240   0.22444   0.00000  Uiso   1.00
N531   N     0.71426   0.83334   0.25001   0.00000  Uiso   1.00
N532   N     0.95239   0.83331   0.25000   0.00000  Uiso   1.00
O533   O     0.79512   0.89442   0.25000   0.00000  Uiso   1.00
O534   O     0.87157   0.89441   0.25000   0.00000  Uiso   1.00
O535   O     0.77613   0.83333   0.32681   0.00000  Uiso   1.00
O536   O     0.85258   0.83332   0.32681   0.00000  Uiso   1.00
O537   O     0.79510   0.77226   0.24999   0.00000  Uiso   1.00
O538   O     0.87154   0.77225   0.24999   0.00000  Uiso   1.00
O539   O     0.81409   0.83335   0.17319   0.00000  Uiso   1.00
O540   O     0.89053   0.83334   0.17319   0.00000  Uiso   1.00
Zn541  Zn    0.78229   0.83334   0.25000   0.00000  Uiso   1.00
Zn542  Zn    0.88438   0.83333   0.25000   0.00000  Uiso   1.00
C543   C     0.94112   0.75551   0.40694   0.00000  Uiso   1.00
H544   H     0.96191   0.76201   0.36482   0.00000  Uiso   1.00
O545   O     0.95338   0.72690   0.43026   0.00000  Uiso   1.00
C546   C     0.85691   0.75293   0.37202   0.00000  Uiso   1.00
O547   O     0.89317   0.74311   0.33486   0.00000  Uiso   1.00
O548   O     0.81328   0.73386   0.37573   0.00000  Uiso   1.00
H549   H     0.78593   0.74038   0.41038   0.00000  Uiso   1.00
C550   C     0.16665   0.24671   0.75001   0.00000  Uiso   1.00
C551   C     0.14375   0.15617   0.99212   0.00000  Uiso   1.00
C552   C     0.15333   0.14396   0.93821   0.00000  Uiso   1.00
C553   C     0.18116   0.15306   0.51407   0.00000  Uiso   1.00
C554   C     0.22545   0.13320   0.98487   0.00000  Uiso   1.00
C555   C     0.23076   0.11384   0.93512   0.00000  Uiso   1.00
C556   C     0.19306   0.11702   0.91339   0.00000  Uiso   1.00
C557   C     0.17588   0.17028   0.56426   0.00000  Uiso   1.00
C558   C     0.25419   0.14551   0.56013   0.00000  Uiso   1.00
C559   C     0.12245   0.15920   0.91106   0.00000  Uiso   1.00
C560   C     0.21064   0.31202   0.73564   0.00000  Uiso   1.00
C561   C     0.14000   0.16411   0.85213   0.00000  Uiso   1.00
C562   C     0.21071   0.02135   0.73530   0.00000  Uiso   1.00
C563   C     0.16683   0.04250   0.74928   0.00000  Uiso   1.00
C564   C     0.12288   0.02133   0.76345   0.00000  Uiso   1.00
C565   C     0.12282   0.31202   0.76370   0.00000  Uiso   1.00
C566   C     0.16670   0.29086   0.74981   0.00000  Uiso   1.00
C567   C     0.32038   0.14318   0.71376   0.00000  Uiso   1.00
C568   C     0.03501   0.14318   0.71378   0.00000  Uiso   1.00
C569   C     0.01289   0.19002   0.78639   0.00000  Uiso   1.00
C570   C     0.29826   0.19002   0.78637   0.00000  Uiso   1.00
C571   C     0.16681   0.08663   0.74948   0.00000  Uiso   1.00
C572   C     0.19337   0.16717   0.64776   0.00000  Uiso   1.00
C573   C     0.26266   0.13195   0.50751   0.00000  Uiso   1.00
C574   C     0.20966   0.16294   0.58925   0.00000  Uiso   1.00
C575   C     0.07681   0.17493   0.94081   0.00000  Uiso   1.00
C576   C     0.06339   0.17897   0.99648   0.00000  Uiso   1.00
C577   C     0.09683   0.17096   0.52195   0.00000  Uiso   1.00
H578   H     0.28139   0.14060   0.57872   0.00000  Uiso   1.00
H579   H     0.24488   0.03766   0.72391   0.00000  Uiso   1.00
H580   H     0.08872   0.03762   0.77480   0.00000  Uiso   1.00
H581   H     0.08863   0.29572   0.77515   0.00000  Uiso   1.00
H582   H     0.31102   0.12442   0.68479   0.00000  Uiso   1.00
H583   H     0.06200   0.12437   0.68481   0.00000  Uiso   1.00
H584   H     0.02223   0.20871   0.81544   0.00000  Uiso   1.00
H585   H     0.27125   0.20875   0.81541   0.00000  Uiso   1.00
H586   H     0.29771   0.11885   0.98604   0.00000  Uiso   1.00
H587   H     0.14452   0.18825   0.58619   0.00000  Uiso   1.00
H588   H     0.05208   0.18525   0.92088   0.00000  Uiso   1.00
H589   H     0.08451   0.17573   0.56512   0.00000  Uiso   1.00
H590   H     0.02786   0.19048   0.51960   0.00000  Uiso   1.00
H591   H     0.24480   0.29573   0.72444   0.00000  Uiso   1.00
N592   N     0.04760   0.16668   0.75001   0.00000  Uiso   1.00
N593   N     0.28573   0.16665   0.75000   0.00000  Uiso   1.00
O594   O     0.12846   0.22775   0.75000   0.00000  Uiso   1.00
O595   O     0.20490   0.22774   0.75000   0.00000  Uiso   1.00
O596   O     0.10947   0.16666   0.82681   0.00000  Uiso   1.00
O597   O     0.18591   0.16665   0.82681   0.00000  Uiso   1.00
O598   O     0.12843   0.10559   0.74999   0.00000  Uiso   1.00
O599   O     0.20488   0.10558   0.74999   0.00000  Uiso   1.00
O600   O     0.14742   0.16668   0.67319   0.00000  Uiso   1.00
O601   O     0.22387   0.16667   0.67319   0.00000  Uiso   1.00
Zn602  Zn    0.11562   0.16667   0.75000   0.00000  Uiso   1.00
Zn603  Zn    0.21771   0.16666   0.75000   0.00000  Uiso   1.00
C604   C     0.27445   0.08884   0.90694   0.00000  Uiso   1.00
H605   H     0.29525   0.09535   0.86482   0.00000  Uiso   1.00
O606   O     0.28672   0.06024   0.93026   0.00000  Uiso   1.00
C607   C     0.19024   0.08627   0.87202   0.00000  Uiso   1.00
O608   O     0.22650   0.07645   0.83486   0.00000  Uiso   1.00
O609   O     0.14661   0.06719   0.87573   0.00000  Uiso   1.00
H610   H     0.11927   0.07372   0.91038   0.00000  Uiso   1.00
C611   C     0.49999   0.24671   0.75001   0.00000  Uiso   1.00
C612   C     0.47708   0.15617   0.99212   0.00000  Uiso   1.00
C613   C     0.48666   0.14396   0.93821   0.00000  Uiso   1.00
C614   C     0.51450   0.15306   0.51407   0.00000  Uiso   1.00
C615   C     0.55878   0.13320   0.98487   0.00000  Uiso   1.00
C616   C     0.56410   0.11384   0.93512   0.00000  Uiso   1.00
C617   C     0.52639   0.11702   0.91339   0.00000  Uiso   1.00
C618   C     0.50922   0.17028   0.56426   0.00000  Uiso   1.00
C619   C     0.58752   0.14551   0.56013   0.00000  Uiso   1.00
C620   C     0.45578   0.15920   0.91106   0.00000  Uiso   1.00
C621   C     0.54398   0.31202   0.73564   0.00000  Uiso   1.00
C622   C     0.47333   0.16411   0.85213   0.00000  Uiso   1.00
C623   C     0.54404   0.02135   0.73530   0.00000  Uiso   1.00
C624   C     0.50016   0.04250   0.74928   0.00000  Uiso   1.00
C625   C     0.45622   0.02133   0.76345   0.00000  Uiso   1.00
C626   C     0.45615   0.31202   0.76370   0.00000  Uiso   1.00
C627   C     0.50003   0.29086   0.74981   0.00000  Uiso   1.00
C628   C     0.65372   0.14318   0.71376   0.00000  Uiso   1.00
C629   C     0.36835   0.14318   0.71378   0.00000  Uiso   1.00
C630   C     0.34623   0.19002   0.78639   0.00000  Uiso   1.00
C631   C     0.63160   0.19002   0.78637   0.00000  Uiso   1.00
C632   C     0.50015   0.08663   0.74948   0.00000  Uiso   1.00
C633   C     0.52671   0.16717   0.64776   0.00000  Uiso   1.00
C634   C     0.59600   0.13195   0.50751   0.00000  Uiso   1.00
C635   C     0.54300   0.16294   0.58925   0.00000  Uiso   1.00
C636   C     0.41014   0.17493   0.94081   0.00000  Uiso   1.00
C637   C     0.39673   0.17897   0.99648   0.00000  Uiso   1.00
C638   C     0.43016   0.17096   0.52195   0.00000  Uiso   1.00
H639   H     0.61473   0.14060   0.57872   0.00000  Uiso   1.00
H640   H     0.57821   0.03766   0.72391   0.00000  Uiso   1.00
H641   H     0.42205   0.03762   0.77480   0.00000  Uiso   1.00
H642   H     0.42197   0.29572   0.77515   0.00000  Uiso   1.00
H643   H     0.64435   0.12442   0.68479   0.00000  Uiso   1.00
H644   H     0.39533   0.12437   0.68481   0.00000  Uiso   1.00
H645   H     0.35556   0.20871   0.81544   0.00000  Uiso   1.00
H646   H     0.60459   0.20875   0.81541   0.00000  Uiso   1.00
H647   H     0.63104   0.11885   0.98604   0.00000  Uiso   1.00
H648   H     0.47785   0.18825   0.58619   0.00000  Uiso   1.00
H649   H     0.38541   0.18525   0.92088   0.00000  Uiso   1.00
H650   H     0.41784   0.17573   0.56512   0.00000  Uiso   1.00
H651   H     0.36120   0.19048   0.51960   0.00000  Uiso   1.00
H652   H     0.57813   0.29573   0.72444   0.00000  Uiso   1.00
N653   N     0.38093   0.16668   0.75001   0.00000  Uiso   1.00
N654   N     0.61906   0.16665   0.75000   0.00000  Uiso   1.00
O655   O     0.46179   0.22775   0.75000   0.00000  Uiso   1.00
O656   O     0.53823   0.22774   0.75000   0.00000  Uiso   1.00
O657   O     0.44280   0.16666   0.82681   0.00000  Uiso   1.00
O658   O     0.51924   0.16665   0.82681   0.00000  Uiso   1.00
O659   O     0.46177   0.10559   0.74999   0.00000  Uiso   1.00
O660   O     0.53821   0.10558   0.74999   0.00000  Uiso   1.00
O661   O     0.48076   0.16668   0.67319   0.00000  Uiso   1.00
O662   O     0.55720   0.16667   0.67319   0.00000  Uiso   1.00
Zn663  Zn    0.44896   0.16667   0.75000   0.00000  Uiso   1.00
Zn664  Zn    0.55104   0.16666   0.75000   0.00000  Uiso   1.00
C665   C     0.60778   0.08884   0.90694   0.00000  Uiso   1.00
H666   H     0.62858   0.09535   0.86482   0.00000  Uiso   1.00
O667   O     0.62005   0.06024   0.93026   0.00000  Uiso   1.00
C668   C     0.52358   0.08627   0.87202   0.00000  Uiso   1.00
O669   O     0.55984   0.07645   0.83486   0.00000  Uiso   1.00
O670   O     0.47994   0.06719   0.87573   0.00000  Uiso   1.00
H671   H     0.45260   0.07372   0.91038   0.00000  Uiso   1.00
C672   C     0.83332   0.24671   0.75001   0.00000  Uiso   1.00
C673   C     0.81041   0.15617   0.99212   0.00000  Uiso   1.00
C674   C     0.81999   0.14396   0.93821   0.00000  Uiso   1.00
C675   C     0.84783   0.15306   0.51407   0.00000  Uiso   1.00
C676   C     0.89212   0.13320   0.98487   0.00000  Uiso   1.00
C677   C     0.89743   0.11384   0.93512   0.00000  Uiso   1.00
C678   C     0.85972   0.11702   0.91339   0.00000  Uiso   1.00
C679   C     0.84255   0.17028   0.56426   0.00000  Uiso   1.00
C680   C     0.92086   0.14551   0.56013   0.00000  Uiso   1.00
C681   C     0.78911   0.15920   0.91106   0.00000  Uiso   1.00
C682   C     0.87731   0.31202   0.73564   0.00000  Uiso   1.00
C683   C     0.80666   0.16411   0.85213   0.00000  Uiso   1.00
C684   C     0.87737   0.02135   0.73530   0.00000  Uiso   1.00
C685   C     0.83349   0.04250   0.74928   0.00000  Uiso   1.00
C686   C     0.78955   0.02133   0.76345   0.00000  Uiso   1.00
C687   C     0.78949   0.31202   0.76370   0.00000  Uiso   1.00
C688   C     0.83336   0.29086   0.74981   0.00000  Uiso   1.00
C689   C     0.98705   0.14318   0.71376   0.00000  Uiso   1.00
C690   C     0.70168   0.14318   0.71378   0.00000  Uiso   1.00
C691   C     0.67956   0.19002   0.78639   0.00000  Uiso   1.00
C692   C     0.96493   0.19002   0.78637   0.00000  Uiso   1.00
C693   C     0.83348   0.08663   0.74948   0.00000  Uiso   1.00
C694   C     0.86004   0.16717   0.64776   0.00000  Uiso   1.00
C695   C     0.92933   0.13195   0.50751   0.00000  Uiso   1.00
C696   C     0.87633   0.16294   0.58925   0.00000  Uiso   1.00
C697   C     0.74348   0.17493   0.94081   0.00000  Uiso   1.00
C698   C     0.73006   0.17897   0.99648   0.00000  Uiso   1.00
C699   C     0.76349   0.17096   0.52195   0.00000  Uiso   1.00
H700   H     0.94806   0.14060   0.57872   0.00000  Uiso   1.00
H701   H     0.91155   0.03766   0.72391   0.00000  Uiso   1.00
H702   H     0.75538   0.03762   0.77480   0.00000  Uiso   1.00
H703   H     0.75530   0.29572   0.77515   0.00000  Uiso   1.00
H704   H     0.97769   0.12442   0.68479   0.00000  Uiso   1.00
H705   H     0.72867   0.12437   0.68481   0.00000  Uiso   1.00
H706   H     0.68890   0.20871   0.81544   0.00000  Uiso   1.00
H707   H     0.93792   0.20875   0.81541   0.00000  Uiso   1.00
H708   H     0.96438   0.11885   0.98604   0.00000  Uiso   1.00
H709   H     0.81119   0.18825   0.58619   0.00000  Uiso   1.00
H710   H     0.71874   0.18525   0.92088   0.00000  Uiso   1.00
H711   H     0.75118   0.17573   0.56512   0.00000  Uiso   1.00
H712   H     0.69453   0.19048   0.51960   0.00000  Uiso   1.00
H713   H     0.91146   0.29573   0.72444   0.00000  Uiso   1.00
N714   N     0.71426   0.16668   0.75001   0.00000  Uiso   1.00
N715   N     0.95239   0.16665   0.75000   0.00000  Uiso   1.00
O716   O     0.79512   0.22775   0.75000   0.00000  Uiso   1.00
O717   O     0.87157   0.22774   0.75000   0.00000  Uiso   1.00
O718   O     0.77613   0.16666   0.82681   0.00000  Uiso   1.00
O719   O     0.85258   0.16665   0.82681   0.00000  Uiso   1.00
O720   O     0.79510   0.10559   0.74999   0.00000  Uiso   1.00
O721   O     0.87154   0.10558   0.74999   0.00000  Uiso   1.00
O722   O     0.81409   0.16668   0.67319   0.00000  Uiso   1.00
O723   O     0.89053   0.16667   0.67319   0.00000  Uiso   1.00
Zn724  Zn    0.78229   0.16667   0.75000   0.00000  Uiso   1.00
Zn725  Zn    0.88438   0.16666   0.75000   0.00000  Uiso   1.00
C726   C     0.94112   0.08884   0.90694   0.00000  Uiso   1.00
H727   H     0.96191   0.09535   0.86482   0.00000  Uiso   1.00
O728   O     0.95338   0.06024   0.93026   0.00000  Uiso   1.00
C729   C     0.85691   0.08627   0.87202   0.00000  Uiso   1.00
O730   O     0.89317   0.07645   0.83486   0.00000  Uiso   1.00
O731   O     0.81328   0.06719   0.87573   0.00000  Uiso   1.00
H732   H     0.78593   0.07372   0.91038   0.00000  Uiso   1.00
C733   C     0.16665   0.58004   0.75001   0.00000  Uiso   1.00
C734   C     0.14375   0.48951   0.99212   0.00000  Uiso   1.00
C735   C     0.15333   0.47729   0.93821   0.00000  Uiso   1.00
C736   C     0.18116   0.48639   0.51407   0.00000  Uiso   1.00
C737   C     0.22545   0.46653   0.98487   0.00000  Uiso   1.00
C738   C     0.23076   0.44718   0.93512   0.00000  Uiso   1.00
C739   C     0.19306   0.45035   0.91339   0.00000  Uiso   1.00
C740   C     0.17588   0.50361   0.56426   0.00000  Uiso   1.00
C741   C     0.25419   0.47884   0.56013   0.00000  Uiso   1.00
C742   C     0.12245   0.49253   0.91106   0.00000  Uiso   1.00
C743   C     0.21064   0.64536   0.73564   0.00000  Uiso   1.00
C744   C     0.14000   0.49744   0.85213   0.00000  Uiso   1.00
C745   C     0.21071   0.35468   0.73530   0.00000  Uiso   1.00
C746   C     0.16683   0.37583   0.74928   0.00000  Uiso   1.00
C747   C     0.12288   0.35467   0.76345   0.00000  Uiso   1.00
C748   C     0.12282   0.64535   0.76370   0.00000  Uiso   1.00
C749   C     0.16670   0.62419   0.74981   0.00000  Uiso   1.00
C750   C     0.32038   0.47651   0.71376   0.00000  Uiso   1.00
C751   C     0.03501   0.47651   0.71378   0.00000  Uiso   1.00
C752   C     0.01289   0.52336   0.78639   0.00000  Uiso   1.00
C753   C     0.29826   0.52336   0.78637   0.00000  Uiso   1.00
C754   C     0.16681   0.41997   0.74948   0.00000  Uiso   1.00
C755   C     0.19337   0.50050   0.64776   0.00000  Uiso   1.00
C756   C     0.26266   0.46528   0.50751   0.00000  Uiso   1.00
C757   C     0.20966   0.49627   0.58925   0.00000  Uiso   1.00
C758   C     0.07681   0.50826   0.94081   0.00000  Uiso   1.00
C759   C     0.06339   0.51230   0.99648   0.00000  Uiso   1.00
C760   C     0.09683   0.50430   0.52195   0.00000  Uiso   1.00
H761   H     0.28139   0.47393   0.57872   0.00000  Uiso   1.00
H762   H     0.24488   0.37099   0.72391   0.00000  Uiso   1.00
H763   H     0.08872   0.37095   0.77480   0.00000  Uiso   1.00
H764   H     0.08863   0.62905   0.77515   0.00000  Uiso   1.00
H765   H     0.31102   0.45776   0.68479   0.00000  Uiso   1.00
H766   H     0.06200   0.45771   0.68481   0.00000  Uiso   1.00
H767   H     0.02223   0.54204   0.81544   0.00000  Uiso   1.00
H768   H     0.27125   0.54209   0.81541   0.00000  Uiso   1.00
H769   H     0.29771   0.45218   0.98604   0.00000  Uiso   1.00
H770   H     0.14452   0.52159   0.58619   0.00000  Uiso   1.00
H771   H     0.05208   0.51858   0.92088   0.00000  Uiso   1.00
H772   H     0.08451   0.50906   0.56512   0.00000  Uiso   1.00
H773   H     0.02786   0.52381   0.51960   0.00000  Uiso   1.00
H774   H     0.24480   0.62906   0.72444   0.00000  Uiso   1.00
N775   N     0.04760   0.50001   0.75001   0.00000  Uiso   1.00
N776   N     0.28573   0.49998   0.75000   0.00000  Uiso   1.00
O777   O     0.12846   0.56108   0.75000   0.00000  Uiso   1.00
O778   O     0.20490   0.56107   0.75000   0.00000  Uiso   1.00
O779   O     0.10947   0.50000   0.82681   0.00000  Uiso   1.00
O780   O     0.18591   0.49999   0.82681   0.00000  Uiso   1.00
O781   O     0.12843   0.43893   0.74999   0.00000  Uiso   1.00
O782   O     0.20488   0.43892   0.74999   0.00000  Uiso   1.00
O783   O     0.14742   0.50001   0.67319   0.00000  Uiso   1.00
O784   O     0.22387   0.50000   0.67319   0.00000  Uiso   1.00
Zn785  Zn    0.11562   0.50001   0.75000   0.00000  Uiso   1.00
Zn786  Zn    0.21771   0.49999   0.75000   0.00000  Uiso   1.00
C787   C     0.27445   0.42218   0.90694   0.00000  Uiso   1.00
H788   H     0.29525   0.42868   0.86482   0.00000  Uiso   1.00
O789   O     0.28672   0.39357   0.93026   0.00000  Uiso   1.00
C790   C     0.19024   0.41960   0.87202   0.00000  Uiso   1.00
O791   O     0.22650   0.40978   0.83486   0.00000  Uiso   1.00
O792   O     0.14661   0.40052   0.87573   0.00000  Uiso   1.00
H793   H     0.11927   0.40705   0.91038   0.00000  Uiso   1.00
C794   C     0.49999   0.58004   0.75001   0.00000  Uiso   1.00
C795   C     0.47708   0.48951   0.99212   0.00000  Uiso   1.00
C796   C     0.48666   0.47729   0.93821   0.00000  Uiso   1.00
C797   C     0.51450   0.48639   0.51407   0.00000  Uiso   1.00
C798   C     0.55878   0.46653   0.98487   0.00000  Uiso   1.00
C799   C     0.56410   0.44718   0.93512   0.00000  Uiso   1.00
C800   C     0.52639   0.45035   0.91339   0.00000  Uiso   1.00
C801   C     0.50922   0.50361   0.56426   0.00000  Uiso   1.00
C802   C     0.58752   0.47884   0.56013   0.00000  Uiso   1.00
C803   C     0.45578   0.49253   0.91106   0.00000  Uiso   1.00
C804   C     0.54398   0.64536   0.73564   0.00000  Uiso   1.00
C805   C     0.47333   0.49744   0.85213   0.00000  Uiso   1.00
C806   C     0.54404   0.35468   0.73530   0.00000  Uiso   1.00
C807   C     0.50016   0.37583   0.74928   0.00000  Uiso   1.00
C808   C     0.45622   0.35467   0.76345   0.00000  Uiso   1.00
C809   C     0.45615   0.64535   0.76370   0.00000  Uiso   1.00
C810   C     0.50003   0.62419   0.74981   0.00000  Uiso   1.00
C811   C     0.65372   0.47651   0.71376   0.00000  Uiso   1.00
C812   C     0.36835   0.47651   0.71378   0.00000  Uiso   1.00
C813   C     0.34623   0.52336   0.78639   0.00000  Uiso   1.00
C814   C     0.63160   0.52336   0.78637   0.00000  Uiso   1.00
C815   C     0.50015   0.41997   0.74948   0.00000  Uiso   1.00
C816   C     0.52671   0.50050   0.64776   0.00000  Uiso   1.00
C817   C     0.59600   0.46528   0.50751   0.00000  Uiso   1.00
C818   C     0.54300   0.49627   0.58925   0.00000  Uiso   1.00
C819   C     0.41014   0.50826   0.94081   0.00000  Uiso   1.00
C820   C     0.39673   0.51230   0.99648   0.00000  Uiso   1.00
C821   C     0.43016   0.50430   0.52195   0.00000  Uiso   1.00
H822   H     0.61473   0.47393   0.57872   0.00000  Uiso   1.00
H823   H     0.57821   0.37099   0.72391   0.00000  Uiso   1.00
H824   H     0.42205   0.37095   0.77480   0.00000  Uiso   1.00
H825   H     0.42197   0.62905   0.77515   0.00000  Uiso   1.00
H826   H     0.64435   0.45776   0.68479   0.00000  Uiso   1.00
H827   H     0.39533   0.45771   0.68481   0.00000  Uiso   1.00
H828   H     0.35556   0.54204   0.81544   0.00000  Uiso   1.00
H829   H     0.60459   0.54209   0.81541   0.00000  Uiso   1.00
H830   H     0.63104   0.45218   0.98604   0.00000  Uiso   1.00
H831   H     0.47785   0.52159   0.58619   0.00000  Uiso   1.00
H832   H     0.38541   0.51858   0.92088   0.00000  Uiso   1.00
H833   H     0.41784   0.50906   0.56512   0.00000  Uiso   1.00
H834   H     0.36120   0.52381   0.51960   0.00000  Uiso   1.00
H835   H     0.57813   0.62906   0.72444   0.00000  Uiso   1.00
N836   N     0.38093   0.50001   0.75001   0.00000  Uiso   1.00
N837   N     0.61906   0.49998   0.75000   0.00000  Uiso   1.00
O838   O     0.46179   0.56108   0.75000   0.00000  Uiso   1.00
O839   O     0.53823   0.56107   0.75000   0.00000  Uiso   1.00
O840   O     0.44280   0.50000   0.82681   0.00000  Uiso   1.00
O841   O     0.51924   0.49999   0.82681   0.00000  Uiso   1.00
O842   O     0.46177   0.43893   0.74999   0.00000  Uiso   1.00
O843   O     0.53821   0.43892   0.74999   0.00000  Uiso   1.00
O844   O     0.48076   0.50001   0.67319   0.00000  Uiso   1.00
O845   O     0.55720   0.50000   0.67319   0.00000  Uiso   1.00
Zn846  Zn    0.44896   0.50001   0.75000   0.00000  Uiso   1.00
Zn847  Zn    0.55104   0.49999   0.75000   0.00000  Uiso   1.00
C848   C     0.60778   0.42218   0.90694   0.00000  Uiso   1.00
H849   H     0.62858   0.42868   0.86482   0.00000  Uiso   1.00
O850   O     0.62005   0.39357   0.93026   0.00000  Uiso   1.00
C851   C     0.52358   0.41960   0.87202   0.00000  Uiso   1.00
O852   O     0.55984   0.40978   0.83486   0.00000  Uiso   1.00
O853   O     0.47994   0.40052   0.87573   0.00000  Uiso   1.00
H854   H     0.45260   0.40705   0.91038   0.00000  Uiso   1.00
C855   C     0.83332   0.58004   0.75001   0.00000  Uiso   1.00
C856   C     0.81041   0.48951   0.99212   0.00000  Uiso   1.00
C857   C     0.81999   0.47729   0.93821   0.00000  Uiso   1.00
C858   C     0.84783   0.48639   0.51407   0.00000  Uiso   1.00
C859   C     0.89212   0.46653   0.98487   0.00000  Uiso   1.00
C860   C     0.89743   0.44718   0.93512   0.00000  Uiso   1.00
C861   C     0.85972   0.45035   0.91339   0.00000  Uiso   1.00
C862   C     0.84255   0.50361   0.56426   0.00000  Uiso   1.00
C863   C     0.92086   0.47884   0.56013   0.00000  Uiso   1.00
C864   C     0.78911   0.49253   0.91106   0.00000  Uiso   1.00
C865   C     0.87731   0.64536   0.73564   0.00000  Uiso   1.00
C866   C     0.80666   0.49744   0.85213   0.00000  Uiso   1.00
C867   C     0.87737   0.35468   0.73530   0.00000  Uiso   1.00
C868   C     0.83349   0.37583   0.74928   0.00000  Uiso   1.00
C869   C     0.78955   0.35467   0.76345   0.00000  Uiso   1.00
C870   C     0.78949   0.64535   0.76370   0.00000  Uiso   1.00
C871   C     0.83336   0.62419   0.74981   0.00000  Uiso   1.00
C872   C     0.98705   0.47651   0.71376   0.00000  Uiso   1.00
C873   C     0.70168   0.47651   0.71378   0.00000  Uiso   1.00
C874   C     0.67956   0.52336   0.78639   0.00000  Uiso   1.00
C875   C     0.96493   0.52336   0.78637   0.00000  Uiso   1.00
C876   C     0.83348   0.41997   0.74948   0.00000  Uiso   1.00
C877   C     0.86004   0.50050   0.64776   0.00000  Uiso   1.00
C878   C     0.92933   0.46528   0.50751   0.00000  Uiso   1.00
C879   C     0.87633   0.49627   0.58925   0.00000  Uiso   1.00
C880   C     0.74348   0.50826   0.94081   0.00000  Uiso   1.00
C881   C     0.73006   0.51230   0.99648   0.00000  Uiso   1.00
C882   C     0.76349   0.50430   0.52195   0.00000  Uiso   1.00
H883   H     0.94806   0.47393   0.57872   0.00000  Uiso   1.00
H884   H     0.91155   0.37099   0.72391   0.00000  Uiso   1.00
H885   H     0.75538   0.37095   0.77480   0.00000  Uiso   1.00
H886   H     0.75530   0.62905   0.77515   0.00000  Uiso   1.00
H887   H     0.97769   0.45776   0.68479   0.00000  Uiso   1.00
H888   H     0.72867   0.45771   0.68481   0.00000  Uiso   1.00
H889   H     0.68890   0.54204   0.81544   0.00000  Uiso   1.00
H890   H     0.93792   0.54209   0.81541   0.00000  Uiso   1.00
H891   H     0.96438   0.45218   0.98604   0.00000  Uiso   1.00
H892   H     0.81119   0.52159   0.58619   0.00000  Uiso   1.00
H893   H     0.71874   0.51858   0.92088   0.00000  Uiso   1.00
H894   H     0.75118   0.50906   0.56512   0.00000  Uiso   1.00
H895   H     0.69453   0.52381   0.51960   0.00000  Uiso   1.00
H896   H     0.91146   0.62906   0.72444   0.00000  Uiso   1.00
N897   N     0.71426   0.50001   0.75001   0.00000  Uiso   1.00
N898   N     0.95239   0.49998   0.75000   0.00000  Uiso   1.00
O899   O     0.79512   0.56108   0.75000   0.00000  Uiso   1.00
O900   O     0.87157   0.56107   0.75000   0.00000  Uiso   1.00
O901   O     0.77613   0.50000   0.82681   0.00000  Uiso   1.00
O902   O     0.85258   0.49999   0.82681   0.00000  Uiso   1.00
O903   O     0.79510   0.43893   0.74999   0.00000  Uiso   1.00
O904   O     0.87154   0.43892   0.74999   0.00000  Uiso   1.00
O905   O     0.81409   0.50001   0.67319   0.00000  Uiso   1.00
O906   O     0.89053   0.50000   0.67319   0.00000  Uiso   1.00
Zn907  Zn    0.78229   0.50001   0.75000   0.00000  Uiso   1.00
Zn908  Zn    0.88438   0.49999   0.75000   0.00000  Uiso   1.00
C909   C     0.94112   0.42218   0.90694   0.00000  Uiso   1.00
H910   H     0.96191   0.42868   0.86482   0.00000  Uiso   1.00
O911   O     0.95338   0.39357   0.93026   0.00000  Uiso   1.00
C912   C     0.85691   0.41960   0.87202   0.00000  Uiso   1.00
O913   O     0.89317   0.40978   0.83486   0.00000  Uiso   1.00
O914   O     0.81328   0.40052   0.87573   0.00000  Uiso   1.00
H915   H     0.78593   0.40705   0.91038   0.00000  Uiso   1.00
C916   C     0.16665   0.91338   0.75001   0.00000  Uiso   1.00
C917   C     0.14375   0.82284   0.99212   0.00000  Uiso   1.00
C918   C     0.15333   0.81063   0.93821   0.00000  Uiso   1.00
C919   C     0.18116   0.81972   0.51407   0.00000  Uiso   1.00
C920   C     0.22545   0.79986   0.98487   0.00000  Uiso   1.00
C921   C     0.23076   0.78051   0.93512   0.00000  Uiso   1.00
C922   C     0.19306   0.78369   0.91339   0.00000  Uiso   1.00
C923   C     0.17588   0.83694   0.56426   0.00000  Uiso   1.00
C924   C     0.25419   0.81218   0.56013   0.00000  Uiso   1.00
C925   C     0.12245   0.82587   0.91106   0.00000  Uiso   1.00
C926   C     0.21064   0.97869   0.73564   0.00000  Uiso   1.00
C927   C     0.14000   0.83078   0.85213   0.00000  Uiso   1.00
C928   C     0.21071   0.68801   0.73530   0.00000  Uiso   1.00
C929   C     0.16683   0.70916   0.74928   0.00000  Uiso   1.00
C930   C     0.12288   0.68800   0.76345   0.00000  Uiso   1.00
C931   C     0.12282   0.97868   0.76370   0.00000  Uiso   1.00
C932   C     0.16670   0.95752   0.74981   0.00000  Uiso   1.00
C933   C     0.32038   0.80984   0.71376   0.00000  Uiso   1.00
C934   C     0.03501   0.80984   0.71378   0.00000  Uiso   1.00
C935   C     0.01289   0.85669   0.78639   0.00000  Uiso   1.00
C936   C     0.29826   0.85669   0.78637   0.00000  Uiso   1.00
C937   C     0.16681   0.75330   0.74948   0.00000  Uiso   1.00
C938   C     0.19337   0.83384   0.64776   0.00000  Uiso   1.00
C939   C     0.26266   0.79862   0.50751   0.00000  Uiso   1.00
C940   C     0.20966   0.82960   0.58925   0.00000  Uiso   1.00
C941   C     0.07681   0.84159   0.94081   0.00000  Uiso   1.00
C942   C     0.06339   0.84564   0.99648   0.00000  Uiso   1.00
C943   C     0.09683   0.83763   0.52195   0.00000  Uiso   1.00
H944   H     0.28139   0.80726   0.57872   0.00000  Uiso   1.00
H945   H     0.24488   0.70433   0.72391   0.00000  Uiso   1.00
H946   H     0.08872   0.70429   0.77480   0.00000  Uiso   1.00
H947   H     0.08863   0.96239   0.77515   0.00000  Uiso   1.00
H948   H     0.31102   0.79109   0.68479   0.00000  Uiso   1.00
H949   H     0.06200   0.79104   0.68481   0.00000  Uiso   1.00
H950   H     0.02223   0.87537   0.81544   0.00000  Uiso   1.00
H951   H     0.27125   0.87542   0.81541   0.00000  Uiso   1.00
H952   H     0.29771   0.78552   0.98604   0.00000  Uiso   1.00
H953   H     0.14452   0.85492   0.58619   0.00000  Uiso   1.00
H954   H     0.05208   0.85191   0.92088   0.00000  Uiso   1.00
H955   H     0.08451   0.84240   0.56512   0.00000  Uiso   1.00
H956   H     0.02786   0.85715   0.51960   0.00000  Uiso   1.00
H957   H     0.24480   0.96240   0.72444   0.00000  Uiso   1.00
N958   N     0.04760   0.83334   0.75001   0.00000  Uiso   1.00
N959   N     0.28573   0.83331   0.75000   0.00000  Uiso   1.00
O960   O     0.12846   0.89442   0.75000   0.00000  Uiso   1.00
O961   O     0.20490   0.89441   0.75000   0.00000  Uiso   1.00
O962   O     0.10947   0.83333   0.82681   0.00000  Uiso   1.00
O963   O     0.18591   0.83332   0.82681   0.00000  Uiso   1.00
O964   O     0.12843   0.77226   0.74999   0.00000  Uiso   1.00
O965   O     0.20488   0.77225   0.74999   0.00000  Uiso   1.00
O966   O     0.14742   0.83335   0.67319   0.00000  Uiso   1.00
O967   O     0.22387   0.83334   0.67319   0.00000  Uiso   1.00
Zn968  Zn    0.11562   0.83334   0.75000   0.00000  Uiso   1.00
Zn969  Zn    0.21771   0.83333   0.75000   0.00000  Uiso   1.00
C970   C     0.27445   0.75551   0.90694   0.00000  Uiso   1.00
H971   H     0.29525   0.76201   0.86482   0.00000  Uiso   1.00
O972   O     0.28672   0.72690   0.93026   0.00000  Uiso   1.00
C973   C     0.19024   0.75293   0.87202   0.00000  Uiso   1.00
O974   O     0.22650   0.74311   0.83486   0.00000  Uiso   1.00
O975   O     0.14661   0.73386   0.87573   0.00000  Uiso   1.00
H976   H     0.11927   0.74038   0.91038   0.00000  Uiso   1.00
C977   C     0.49999   0.91338   0.75001   0.00000  Uiso   1.00
C978   C     0.47708   0.82284   0.99212   0.00000  Uiso   1.00
C979   C     0.48666   0.81063   0.93821   0.00000  Uiso   1.00
C980   C     0.51450   0.81972   0.51407   0.00000  Uiso   1.00
C981   C     0.55878   0.79986   0.98487   0.00000  Uiso   1.00
C982   C     0.56410   0.78051   0.93512   0.00000  Uiso   1.00
C983   C     0.52639   0.78369   0.91339   0.00000  Uiso   1.00
C984   C     0.50922   0.83694   0.56426   0.00000  Uiso   1.00
C985   C     0.58752   0.81218   0.56013   0.00000  Uiso   1.00
C986   C     0.45578   0.82587   0.91106   0.00000  Uiso   1.00
C987   C     0.54398   0.97869   0.73564   0.00000  Uiso   1.00
C988   C     0.47333   0.83078   0.85213   0.00000  Uiso   1.00
C989   C     0.54404   0.68801   0.73530   0.00000  Uiso   1.00
C990   C     0.50016   0.70916   0.74928   0.00000  Uiso   1.00
C991   C     0.45622   0.68800   0.76345   0.00000  Uiso   1.00
C992   C     0.45615   0.97868   0.76370   0.00000  Uiso   1.00
C993   C     0.50003   0.95752   0.74981   0.00000  Uiso   1.00
C994   C     0.65372   0.80984   0.71376   0.00000  Uiso   1.00
C995   C     0.36835   0.80984   0.71378   0.00000  Uiso   1.00
C996   C     0.34623   0.85669   0.78639   0.00000  Uiso   1.00
C997   C     0.63160   0.85669   0.78637   0.00000  Uiso   1.00
C998   C     0.50015   0.75330   0.74948   0.00000  Uiso   1.00
C999   C     0.52671   0.83384   0.64776   0.00000  Uiso   1.00
C1000  C     0.59600   0.79862   0.50751   0.00000  Uiso   1.00
C1001  C     0.54300   0.82960   0.58925   0.00000  Uiso   1.00
C1002  C     0.41014   0.84159   0.94081   0.00000  Uiso   1.00
C1003  C     0.39673   0.84564   0.99648   0.00000  Uiso   1.00
C1004  C     0.43016   0.83763   0.52195   0.00000  Uiso   1.00
H1005  H     0.61473   0.80726   0.57872   0.00000  Uiso   1.00
H1006  H     0.57821   0.70433   0.72391   0.00000  Uiso   1.00
H1007  H     0.42205   0.70429   0.77480   0.00000  Uiso   1.00
H1008  H     0.42197   0.96239   0.77515   0.00000  Uiso   1.00
H1009  H     0.64435   0.79109   0.68479   0.00000  Uiso   1.00
H1010  H     0.39533   0.79104   0.68481   0.00000  Uiso   1.00
H1011  H     0.35556   0.87537   0.81544   0.00000  Uiso   1.00
H1012  H     0.60459   0.87542   0.81541   0.00000  Uiso   1.00
H1013  H     0.63104   0.78552   0.98604   0.00000  Uiso   1.00
H1014  H     0.47785   0.85492   0.58619   0.00000  Uiso   1.00
H1015  H     0.38541   0.85191   0.92088   0.00000  Uiso   1.00
H1016  H     0.41784   0.84240   0.56512   0.00000  Uiso   1.00
H1017  H     0.36120   0.85715   0.51960   0.00000  Uiso   1.00
H1018  H     0.57813   0.96240   0.72444   0.00000  Uiso   1.00
N1019  N     0.38093   0.83334   0.75001   0.00000  Uiso   1.00
N1020  N     0.61906   0.83331   0.75000   0.00000  Uiso   1.00
O1021  O     0.46179   0.89442   0.75000   0.00000  Uiso   1.00
O1022  O     0.53823   0.89441   0.75000   0.00000  Uiso   1.00
O1023  O     0.44280   0.83333   0.82681   0.00000  Uiso   1.00
O1024  O     0.51924   0.83332   0.82681   0.00000  Uiso   1.00
O1025  O     0.46177   0.77226   0.74999   0.00000  Uiso   1.00
O1026  O     0.53821   0.77225   0.74999   0.00000  Uiso   1.00
O1027  O     0.48076   0.83335   0.67319   0.00000  Uiso   1.00
O1028  O     0.55720   0.83334   0.67319   0.00000  Uiso   1.00
Zn1029 Zn    0.44896   0.83334   0.75000   0.00000  Uiso   1.00
Zn1030 Zn    0.55104   0.83333   0.75000   0.00000  Uiso   1.00
C1031  C     0.60778   0.75551   0.90694   0.00000  Uiso   1.00
H1032  H     0.62858   0.76201   0.86482   0.00000  Uiso   1.00
O1033  O     0.62005   0.72690   0.93026   0.00000  Uiso   1.00
C1034  C     0.52358   0.75293   0.87202   0.00000  Uiso   1.00
O1035  O     0.55984   0.74311   0.83486   0.00000  Uiso   1.00
O1036  O     0.47994   0.73386   0.87573   0.00000  Uiso   1.00
H1037  H     0.45260   0.74038   0.91038   0.00000  Uiso   1.00
C1038  C     0.83332   0.91338   0.75001   0.00000  Uiso   1.00
C1039  C     0.81041   0.82284   0.99212   0.00000  Uiso   1.00
C1040  C     0.81999   0.81063   0.93821   0.00000  Uiso   1.00
C1041  C     0.84783   0.81972   0.51407   0.00000  Uiso   1.00
C1042  C     0.89212   0.79986   0.98487   0.00000  Uiso   1.00
C1043  C     0.89743   0.78051   0.93512   0.00000  Uiso   1.00
C1044  C     0.85972   0.78369   0.91339   0.00000  Uiso   1.00
C1045  C     0.84255   0.83694   0.56426   0.00000  Uiso   1.00
C1046  C     0.92086   0.81218   0.56013   0.00000  Uiso   1.00
C1047  C     0.78911   0.82587   0.91106   0.00000  Uiso   1.00
C1048  C     0.87731   0.97869   0.73564   0.00000  Uiso   1.00
C1049  C     0.80666   0.83078   0.85213   0.00000  Uiso   1.00
C1050  C     0.87737   0.68801   0.73530   0.00000  Uiso   1.00
C1051  C     0.83349   0.70916   0.74928   0.00000  Uiso   1.00
C1052  C     0.78955   0.68800   0.76345   0.00000  Uiso   1.00
C1053  C     0.78949   0.97868   0.76370   0.00000  Uiso   1.00
C1054  C     0.83336   0.95752   0.74981   0.00000  Uiso   1.00
C1055  C     0.98705   0.80984   0.71376   0.00000  Uiso   1.00
C1056  C     0.70168   0.80984   0.71378   0.00000  Uiso   1.00
C1057  C     0.67956   0.85669   0.78639   0.00000  Uiso   1.00
C1058  C     0.96493   0.85669   0.78637   0.00000  Uiso   1.00
C1059  C     0.83348   0.75330   0.74948   0.00000  Uiso   1.00
C1060  C     0.86004   0.83384   0.64776   0.00000  Uiso   1.00
C1061  C     0.92933   0.79862   0.50751   0.00000  Uiso   1.00
C1062  C     0.87633   0.82960   0.58925   0.00000  Uiso   1.00
C1063  C     0.74348   0.84159   0.94081   0.00000  Uiso   1.00
C1064  C     0.73006   0.84564   0.99648   0.00000  Uiso   1.00
C1065  C     0.76349   0.83763   0.52195   0.00000  Uiso   1.00
H1066  H     0.94806   0.80726   0.57872   0.00000  Uiso   1.00
H1067  H     0.91155   0.70433   0.72391   0.00000  Uiso   1.00
H1068  H     0.75538   0.70429   0.77480   0.00000  Uiso   1.00
H1069  H     0.75530   0.96239   0.77515   0.00000  Uiso   1.00
H1070  H     0.97769   0.79109   0.68479   0.00000  Uiso   1.00
H1071  H     0.72867   0.79104   0.68481   0.00000  Uiso   1.00
H1072  H     0.68890   0.87537   0.81544   0.00000  Uiso   1.00
H1073  H     0.93792   0.87542   0.81541   0.00000  Uiso   1.00
H1074  H     0.96438   0.78552   0.98604   0.00000  Uiso   1.00
H1075  H     0.81119   0.85492   0.58619   0.00000  Uiso   1.00
H1076  H     0.71874   0.85191   0.92088   0.00000  Uiso   1.00
H1077  H     0.75118   0.84240   0.56512   0.00000  Uiso   1.00
H1078  H     0.69453   0.85715   0.51960   0.00000  Uiso   1.00
H1079  H     0.91146   0.96240   0.72444   0.00000  Uiso   1.00
N1080  N     0.71426   0.83334   0.75001   0.00000  Uiso   1.00
N1081  N     0.95239   0.83331   0.75000   0.00000  Uiso   1.00
O1082  O     0.79512   0.89442   0.75000   0.00000  Uiso   1.00
O1083  O     0.87157   0.89441   0.75000   0.00000  Uiso   1.00
O1084  O     0.77613   0.83333   0.82681   0.00000  Uiso   1.00
O1085  O     0.85258   0.83332   0.82681   0.00000  Uiso   1.00
O1086  O     0.79510   0.77226   0.74999   0.00000  Uiso   1.00
O1087  O     0.87154   0.77225   0.74999   0.00000  Uiso   1.00
O1088  O     0.81409   0.83335   0.67319   0.00000  Uiso   1.00
O1089  O     0.89053   0.83334   0.67319   0.00000  Uiso   1.00
Zn1090 Zn    0.78229   0.83334   0.75000   0.00000  Uiso   1.00
Zn1091 Zn    0.88438   0.83333   0.75000   0.00000  Uiso   1.00
C1092  C     0.94112   0.75551   0.90694   0.00000  Uiso   1.00
H1093  H     0.96191   0.76201   0.86482   0.00000  Uiso   1.00
O1094  O     0.95338   0.72690   0.93026   0.00000  Uiso   1.00
C1095  C     0.85691   0.75293   0.87202   0.00000  Uiso   1.00
O1096  O     0.89317   0.74311   0.83486   0.00000  Uiso   1.00
O1097  O     0.81328   0.73386   0.87573   0.00000  Uiso   1.00
H1098  H     0.78593   0.74038   0.91038   0.00000  Uiso   1.00
loop_
_geom_bond_atom_site_label_1
_geom_bond_atom_site_label_2
_geom_bond_distance
_geom_bond_site_symmetry_2
_ccdc_geom_bond_type
C1     C17     1.418   .     S
C1     O45     1.282   .     A
C1     O46     1.282   .     A
C2     C3      1.405   .     A
C2     C553    1.412   .     S
C2     C577    1.421   .     S
C3     C7      1.426   .     A
C3     C10     1.420   .     A
C4     C8      1.393   .     A
C4     C551    1.412   1_554 S
C4     C554    1.423   1_554 S
C5     C6      1.412   .     A
C5     C553    1.423   .     S
C5     C573    1.416   .     S
C6     C7      1.416   .     A
C6     C55     1.486   .     S
C7     C58     1.498   .     S
C8     C25     1.387   .     A
C8     H38     1.078   .     S
C9     C24     1.392   .     A
C9     C25     1.394   .     A
C9     H29     1.083   .     S
C10    C26     1.402   .     A
C10    C12     1.462   .     S
C11    H42     1.084   .     S
C11    C17     1.397   .     A
C11    C196    1.370   .     S
C12    O48     1.292   .     A
C12    O47     1.292   .     A
C13    C14     1.396   .     A
C13    H30     1.084   .     S
C13    C377    1.370   1_545 S
C14    C22     1.418   .     S
C14    C15     1.397   .     A
C15    H31     1.084   .     S
C15    C382    1.370   1_545 S
C16    H32     1.084   .     S
C16    C17     1.396   .     A
C16    C198    1.370   .     S
C18    N44     1.366   .     A
C18    H33     1.082   .     S
C18    C80     1.416   .     S
C19    N43     1.367   .     A
C19    H34     1.082   .     S
C19    C140    1.416   1_455 S
C20    N43     1.366   .     A
C20    H35     1.082   .     S
C20    C143    1.416   1_455 S
C21    N44     1.367   .     A
C21    H36     1.082   .     S
C21    C81     1.416   .     S
C22    O50     1.283   .     A
C22    O49     1.281   .     A
C23    O52     1.291   .     A
C23    C25     1.453   .     S
C23    O51     1.291   .     A
C24    C554    1.416   1_554 S
C24    H586    1.081   1_554 S
C26    C27     1.386   .     A
C26    H39     1.083   .     S
C27    C577    1.391   .     S
C27    H590    1.083   .     S
C28    H40     1.078   .     S
C28    C551    1.421   1_554 S
C28    C576    1.391   1_554 S
H37    C573    1.081   .     S
H41    C576    1.083   1_554 S
N43    Zn53    2.007   .     S
N44    Zn54    2.007   .     S
O45    Zn53    1.999   .     S
O46    Zn54    1.997   .     S
O47    Zn53    1.963   .     S
O48    Zn54    1.913   .     S
O49    Zn53    1.997   .     S
O50    Zn54    1.999   .     S
O51    Zn53    1.913   .     S
O52    Zn54    1.963   .     S
C55    H56     1.085   .     S
C55    O57     1.221   .     D
C58    O59     1.220   .     D
C58    O60     1.400   .     S
O60    H61     1.012   .     S
C62    C78     1.418   .     S
C62    O106    1.282   .     A
C62    O107    1.282   .     A
C63    C64     1.405   .     A
C63    C614    1.412   .     S
C63    C638    1.421   .     S
C64    C68     1.426   .     A
C64    C71     1.420   .     A
C65    C69     1.393   .     A
C65    C612    1.412   1_554 S
C65    C615    1.423   1_554 S
C66    C67     1.412   .     A
C66    C614    1.423   .     S
C66    C634    1.416   .     S
C67    C68     1.416   .     A
C67    C116    1.486   .     S
C68    C119    1.498   .     S
C69    C86     1.387   .     A
C69    H99     1.078   .     S
C70    C85     1.392   .     A
C70    C86     1.394   .     A
C70    H90     1.083   .     S
C71    C87     1.402   .     A
C71    C73     1.462   .     S
C72    H103    1.084   .     S
C72    C78     1.397   .     A
C72    C257    1.370   .     S
C73    O109    1.292   .     A
C73    O108    1.292   .     A
C74    C75     1.396   .     A
C74    H91     1.084   .     S
C74    C438    1.370   1_545 S
C75    C83     1.418   .     S
C75    C76     1.397   .     A
C76    H92     1.084   .     S
C76    C443    1.370   1_545 S
C77    H93     1.084   .     S
C77    C78     1.396   .     A
C77    C259    1.370   .     S
C79    N105    1.366   .     A
C79    H94     1.082   .     S
C79    C141    1.416   .     S
C80    N104    1.367   .     A
C80    H95     1.082   .     S
C81    N104    1.366   .     A
C81    H96     1.082   .     S
C82    N105    1.367   .     A
C82    H97     1.082   .     S
C82    C142    1.416   .     S
C83    O111    1.283   .     A
C83    O110    1.281   .     A
C84    O113    1.291   .     A
C84    C86     1.453   .     S
C84    O112    1.291   .     A
C85    C615    1.416   1_554 S
C85    H647    1.081   1_554 S
C87    C88     1.386   .     A
C87    H100    1.083   .     S
C88    C638    1.391   .     S
C88    H651    1.083   .     S
C89    H101    1.078   .     S
C89    C612    1.421   1_554 S
C89    C637    1.391   1_554 S
H98    C634    1.081   .     S
H102   C637    1.083   1_554 S
N104   Zn114   2.007   .     S
N105   Zn115   2.007   .     S
O106   Zn114   1.999   .     S
O107   Zn115   1.997   .     S
O108   Zn114   1.963   .     S
O109   Zn115   1.913   .     S
O110   Zn114   1.997   .     S
O111   Zn115   1.999   .     S
O112   Zn114   1.913   .     S
O113   Zn115   1.963   .     S
C116   H117    1.085   .     S
C116   O118    1.221   .     D
C119   O120    1.220   .     D
C119   O121    1.400   .     S
O121   H122    1.012   .     S
C123   C139    1.418   .     S
C123   O167    1.282   .     A
C123   O168    1.282   .     A
C124   C125    1.405   .     A
C124   C675    1.412   .     S
C124   C699    1.421   .     S
C125   C129    1.426   .     A
C125   C132    1.420   .     A
C126   C130    1.393   .     A
C126   C673    1.412   1_554 S
C126   C676    1.423   1_554 S
C127   C128    1.412   .     A
C127   C675    1.423   .     S
C127   C695    1.416   .     S
C128   C129    1.416   .     A
C128   C177    1.486   .     S
C129   C180    1.498   .     S
C130   C147    1.387   .     A
C130   H160    1.078   .     S
C131   C146    1.392   .     A
C131   C147    1.394   .     A
C131   H151    1.083   .     S
C132   C148    1.402   .     A
C132   C134    1.462   .     S
C133   H164    1.084   .     S
C133   C139    1.397   .     A
C133   C318    1.370   .     S
C134   O170    1.292   .     A
C134   O169    1.292   .     A
C135   C136    1.396   .     A
C135   H152    1.084   .     S
C135   C499    1.370   1_545 S
C136   C144    1.418   .     S
C136   C137    1.397   .     A
C137   H153    1.084   .     S
C137   C504    1.370   1_545 S
C138   H154    1.084   .     S
C138   C139    1.396   .     A
C138   C320    1.370   .     S
C140   N166    1.366   .     A
C140   H155    1.082   .     S
C140   C19     1.416   1_655 S
C141   N165    1.367   .     A
C141   H156    1.082   .     S
C142   N165    1.366   .     A
C142   H157    1.082   .     S
C143   N166    1.367   .     A
C143   H158    1.082   .     S
C143   C20     1.416   1_655 S
C144   O172    1.283   .     A
C144   O171    1.281   .     A
C145   O174    1.291   .     A
C145   C147    1.453   .     S
C145   O173    1.291   .     A
C146   C676    1.416   1_554 S
C146   H708    1.081   1_554 S
C148   C149    1.386   .     A
C148   H161    1.083   .     S
C149   C699    1.391   .     S
C149   H712    1.083   .     S
C150   H162    1.078   .     S
C150   C673    1.421   1_554 S
C150   C698    1.391   1_554 S
H159   C695    1.081   .     S
H163   C698    1.083   1_554 S
N165   Zn175   2.007   .     S
N166   Zn176   2.007   .     S
O167   Zn175   1.999   .     S
O168   Zn176   1.997   .     S
O169   Zn175   1.963   .     S
O170   Zn176   1.913   .     S
O171   Zn175   1.997   .     S
O172   Zn176   1.999   .     S
O173   Zn175   1.913   .     S
O174   Zn176   1.963   .     S
C177   H178    1.085   .     S
C177   O179    1.221   .     D
C180   O181    1.220   .     D
C180   O182    1.400   .     S
O182   H183    1.012   .     S
C184   C200    1.418   .     S
C184   O228    1.282   .     A
C184   O229    1.282   .     A
C185   C186    1.405   .     A
C185   C736    1.412   .     S
C185   C760    1.421   .     S
C186   C190    1.426   .     A
C186   C193    1.420   .     A
C187   C191    1.393   .     A
C187   C734    1.412   1_554 S
C187   C737    1.423   1_554 S
C188   C189    1.412   .     A
C188   C736    1.423   .     S
C188   C756    1.416   .     S
C189   C190    1.416   .     A
C189   C238    1.486   .     S
C190   C241    1.498   .     S
C191   C208    1.387   .     A
C191   H221    1.078   .     S
C192   C207    1.392   .     A
C192   C208    1.394   .     A
C192   H212    1.083   .     S
C193   C209    1.402   .     A
C193   C195    1.462   .     S
C194   H225    1.084   .     S
C194   C200    1.397   .     A
C194   C379    1.370   .     S
C195   O231    1.292   .     A
C195   O230    1.292   .     A
C196   C197    1.396   .     A
C196   H213    1.084   .     S
C197   C205    1.418   .     S
C197   C198    1.397   .     A
C198   H214    1.084   .     S
C199   H215    1.084   .     S
C199   C200    1.396   .     A
C199   C381    1.370   .     S
C201   N227    1.366   .     A
C201   H216    1.082   .     S
C201   C263    1.416   .     S
C202   N226    1.367   .     A
C202   H217    1.082   .     S
C202   C323    1.416   1_455 S
C203   N226    1.366   .     A
C203   H218    1.082   .     S
C203   C326    1.416   1_455 S
C204   N227    1.367   .     A
C204   H219    1.082   .     S
C204   C264    1.416   .     S
C205   O233    1.283   .     A
C205   O232    1.281   .     A
C206   O235    1.291   .     A
C206   C208    1.453   .     S
C206   O234    1.291   .     A
C207   C737    1.416   1_554 S
C207   H769    1.081   1_554 S
C209   C210    1.386   .     A
C209   H222    1.083   .     S
C210   C760    1.391   .     S
C210   H773    1.083   .     S
C211   H223    1.078   .     S
C211   C734    1.421   1_554 S
C211   C759    1.391   1_554 S
H220   C756    1.081   .     S
H224   C759    1.083   1_554 S
N226   Zn236   2.007   .     S
N227   Zn237   2.007   .     S
O228   Zn236   1.999   .     S
O229   Zn237   1.997   .     S
O230   Zn236   1.963   .     S
O231   Zn237   1.913   .     S
O232   Zn236   1.997   .     S
O233   Zn237   1.999   .     S
O234   Zn236   1.913   .     S
O235   Zn237   1.963   .     S
C238   H239    1.085   .     S
C238   O240    1.221   .     D
C241   O242    1.220   .     D
C241   O243    1.400   .     S
O243   H244    1.012   .     S
C245   C261    1.418   .     S
C245   O289    1.282   .     A
C245   O290    1.282   .     A
C246   C247    1.405   .     A
C246   C797    1.412   .     S
C246   C821    1.421   .     S
C247   C251    1.426   .     A
C247   C254    1.420   .     A
C248   C252    1.393   .     A
C248   C795    1.412   1_554 S
C248   C798    1.423   1_554 S
C249   C250    1.412   .     A
C249   C797    1.423   .     S
C249   C817    1.416   .     S
C250   C251    1.416   .     A
C250   C299    1.486   .     S
C251   C302    1.498   .     S
C252   C269    1.387   .     A
C252   H282    1.078   .     S
C253   C268    1.392   .     A
C253   C269    1.394   .     A
C253   H273    1.083   .     S
C254   C270    1.402   .     A
C254   C256    1.462   .     S
C255   H286    1.084   .     S
C255   C261    1.397   .     A
C255   C440    1.370   .     S
C256   O292    1.292   .     A
C256   O291    1.292   .     A
C257   C258    1.396   .     A
C257   H274    1.084   .     S
C258   C266    1.418   .     S
C258   C259    1.397   .     A
C259   H275    1.084   .     S
C260   H276    1.084   .     S
C260   C261    1.396   .     A
C260   C442    1.370   .     S
C262   N288    1.366   .     A
C262   H277    1.082   .     S
C262   C324    1.416   .     S
C263   N287    1.367   .     A
C263   H278    1.082   .     S
C264   N287    1.366   .     A
C264   H279    1.082   .     S
C265   N288    1.367   .     A
C265   H280    1.082   .     S
C265   C325    1.416   .     S
C266   O294    1.283   .     A
C266   O293    1.281   .     A
C267   O296    1.291   .     A
C267   C269    1.453   .     S
C267   O295    1.291   .     A
C268   C798    1.416   1_554 S
C268   H830    1.081   1_554 S
C270   C271    1.386   .     A
C270   H283    1.083   .     S
C271   C821    1.391   .     S
C271   H834    1.083   .     S
C272   H284    1.078   .     S
C272   C795    1.421   1_554 S
C272   C820    1.391   1_554 S
H281   C817    1.081   .     S
H285   C820    1.083   1_554 S
N287   Zn297   2.007   .     S
N288   Zn298   2.007   .     S
O289   Zn297   1.999   .     S
O290   Zn298   1.997   .     S
O291   Zn297   1.963   .     S
O292   Zn298   1.913   .     S
O293   Zn297   1.997   .     S
O294   Zn298   1.999   .     S
O295   Zn297   1.913   .     S
O296   Zn298   1.963   .     S
C299   H300    1.085   .     S
C299   O301    1.221   .     D
C302   O303    1.220   .     D
C302   O304    1.400   .     S
O304   H305    1.012   .     S
C306   C322    1.418   .     S
C306   O350    1.282   .     A
C306   O351    1.282   .     A
C307   C308    1.405   .     A
C307   C858    1.412   .     S
C307   C882    1.421   .     S
C308   C312    1.426   .     A
C308   C315    1.420   .     A
C309   C313    1.393   .     A
C309   C856    1.412   1_554 S
C309   C859    1.423   1_554 S
C310   C311    1.412   .     A
C310   C858    1.423   .     S
C310   C878    1.416   .     S
C311   C312    1.416   .     A
C311   C360    1.486   .     S
C312   C363    1.498   .     S
C313   C330    1.387   .     A
C313   H343    1.078   .     S
C314   C329    1.392   .     A
C314   C330    1.394   .     A
C314   H334    1.083   .     S
C315   C331    1.402   .     A
C315   C317    1.462   .     S
C316   H347    1.084   .     S
C316   C322    1.397   .     A
C316   C501    1.370   .     S
C317   O353    1.292   .     A
C317   O352    1.292   .     A
C318   C319    1.396   .     A
C318   H335    1.084   .     S
C319   C327    1.418   .     S
C319   C320    1.397   .     A
C320   H336    1.084   .     S
C321   H337    1.084   .     S
C321   C322    1.396   .     A
C321   C503    1.370   .     S
C323   N349    1.366   .     A
C323   H338    1.082   .     S
C323   C202    1.416   1_655 S
C324   N348    1.367   .     A
C324   H339    1.082   .     S
C325   N348    1.366   .     A
C325   H340    1.082   .     S
C326   N349    1.367   .     A
C326   H341    1.082   .     S
C326   C203    1.416   1_655 S
C327   O355    1.283   .     A
C327   O354    1.281   .     A
C328   O357    1.291   .     A
C328   C330    1.453   .     S
C328   O356    1.291   .     A
C329   C859    1.416   1_554 S
C329   H891    1.081   1_554 S
C331   C332    1.386   .     A
C331   H344    1.083   .     S
C332   C882    1.391   .     S
C332   H895    1.083   .     S
C333   H345    1.078   .     S
C333   C856    1.421   1_554 S
C333   C881    1.391   1_554 S
H342   C878    1.081   .     S
H346   C881    1.083   1_554 S
N348   Zn358   2.007   .     S
N349   Zn359   2.007   .     S
O350   Zn358   1.999   .     S
O351   Zn359   1.997   .     S
O352   Zn358   1.963   .     S
O353   Zn359   1.913   .     S
O354   Zn358   1.997   .     S
O355   Zn359   1.999   .     S
O356   Zn358   1.913   .     S
O357   Zn359   1.963   .     S
C360   H361    1.085   .     S
C360   O362    1.221   .     D
C363   O364    1.220   .     D
C363   O365    1.400   .     S
O365   H366    1.012   .     S
C367   C383    1.418   .     S
C367   O411    1.282   .     A
C367   O412    1.282   .     A
C368   C369    1.405   .     A
C368   C919    1.412   .     S
C368   C943    1.421   .     S
C369   C373    1.426   .     A
C369   C376    1.420   .     A
C370   C374    1.393   .     A
C370   C917    1.412   1_554 S
C370   C920    1.423   1_554 S
C371   C372    1.412   .     A
C371   C919    1.423   .     S
C371   C939    1.416   .     S
C372   C373    1.416   .     A
C372   C421    1.486   .     S
C373   C424    1.498   .     S
C374   C391    1.387   .     A
C374   H404    1.078   .     S
C375   C390    1.392   .     A
C375   C391    1.394   .     A
C375   H395    1.083   .     S
C376   C392    1.402   .     A
C376   C378    1.462   .     S
C377   H408    1.084   .     S
C377   C383    1.397   .     A
C377   C13     1.370   1_565 S
C378   O414    1.292   .     A
C378   O413    1.292   .     A
C379   C380    1.396   .     A
C379   H396    1.084   .     S
C380   C388    1.418   .     S
C380   C381    1.397   .     A
C381   H397    1.084   .     S
C382   H398    1.084   .     S
C382   C383    1.396   .     A
C382   C15     1.370   1_565 S
C384   N410    1.366   .     A
C384   H399    1.082   .     S
C384   C446    1.416   .     S
C385   N409    1.367   .     A
C385   H400    1.082   .     S
C385   C506    1.416   1_455 S
C386   N409    1.366   .     A
C386   H401    1.082   .     S
C386   C509    1.416   1_455 S
C387   N410    1.367   .     A
C387   H402    1.082   .     S
C387   C447    1.416   .     S
C388   O416    1.283   .     A
C388   O415    1.281   .     A
C389   O418    1.291   .     A
C389   C391    1.453   .     S
C389   O417    1.291   .     A
C390   C920    1.416   1_554 S
C390   H952    1.081   1_554 S
C392   C393    1.386   .     A
C392   H405    1.083   .     S
C393   C943    1.391   .     S
C393   H956    1.083   .     S
C394   H406    1.078   .     S
C394   C917    1.421   1_554 S
C394   C942    1.391   1_554 S
H403   C939    1.081   .     S
H407   C942    1.083   1_554 S
N409   Zn419   2.007   .     S
N410   Zn420   2.007   .     S
O411   Zn419   1.999   .     S
O412   Zn420   1.997   .     S
O413   Zn419   1.963   .     S
O414   Zn420   1.913   .     S
O415   Zn419   1.997   .     S
O416   Zn420   1.999   .     S
O417   Zn419   1.913   .     S
O418   Zn420   1.963   .     S
C421   H422    1.085   .     S
C421   O423    1.221   .     D
C424   O425    1.220   .     D
C424   O426    1.400   .     S
O426   H427    1.012   .     S
C428   C444    1.418   .     S
C428   O472    1.282   .     A
C428   O473    1.282   .     A
C429   C430    1.405   .     A
C429   C980    1.412   .     S
C429   C1004   1.421   .     S
C430   C434    1.426   .     A
C430   C437    1.420   .     A
C431   C435    1.393   .     A
C431   C978    1.412   1_554 S
C431   C981    1.423   1_554 S
C432   C433    1.412   .     A
C432   C980    1.423   .     S
C432   C1000   1.416   .     S
C433   C434    1.416   .     A
C433   C482    1.486   .     S
C434   C485    1.498   .     S
C435   C452    1.387   .     A
C435   H465    1.078   .     S
C436   C451    1.392   .     A
C436   C452    1.394   .     A
C436   H456    1.083   .     S
C437   C453    1.402   .     A
C437   C439    1.462   .     S
C438   H469    1.084   .     S
C438   C444    1.397   .     A
C438   C74     1.370   1_565 S
C439   O475    1.292   .     A
C439   O474    1.292   .     A
C440   C441    1.396   .     A
C440   H457    1.084   .     S
C441   C449    1.418   .     S
C441   C442    1.397   .     A
C442   H458    1.084   .     S
C443   H459    1.084   .     S
C443   C444    1.396   .     A
C443   C76     1.370   1_565 S
C445   N471    1.366   .     A
C445   H460    1.082   .     S
C445   C507    1.416   .     S
C446   N470    1.367   .     A
C446   H461    1.082   .     S
C447   N470    1.366   .     A
C447   H462    1.082   .     S
C448   N471    1.367   .     A
C448   H463    1.082   .     S
C448   C508    1.416   .     S
C449   O477    1.283   .     A
C449   O476    1.281   .     A
C450   O479    1.291   .     A
C450   C452    1.453   .     S
C450   O478    1.291   .     A
C451   C981    1.416   1_554 S
C451   H1013   1.081   1_554 S
C453   C454    1.386   .     A
C453   H466    1.083   .     S
C454   C1004   1.391   .     S
C454   H1017   1.083   .     S
C455   H467    1.078   .     S
C455   C978    1.421   1_554 S
C455   C1003   1.391   1_554 S
H464   C1000   1.081   .     S
H468   C1003   1.083   1_554 S
N470   Zn480   2.007   .     S
N471   Zn481   2.007   .     S
O472   Zn480   1.999   .     S
O473   Zn481   1.997   .     S
O474   Zn480   1.963   .     S
O475   Zn481   1.913   .     S
O476   Zn480   1.997   .     S
O477   Zn481   1.999   .     S
O478   Zn480   1.913   .     S
O479   Zn481   1.963   .     S
C482   H483    1.085   .     S
C482   O484    1.221   .     D
C485   O486    1.220   .     D
C485   O487    1.400   .     S
O487   H488    1.012   .     S
C489   C505    1.418   .     S
C489   O533    1.282   .     A
C489   O534    1.282   .     A
C490   C491    1.405   .     A
C490   C1041   1.412   .     S
C490   C1065   1.421   .     S
C491   C495    1.426   .     A
C491   C498    1.420   .     A
C492   C496    1.393   .     A
C492   C1039   1.412   1_554 S
C492   C1042   1.423   1_554 S
C493   C494    1.412   .     A
C493   C1041   1.423   .     S
C493   C1061   1.416   .     S
C494   C495    1.416   .     A
C494   C543    1.486   .     S
C495   C546    1.498   .     S
C496   C513    1.387   .     A
C496   H526    1.078   .     S
C497   C512    1.392   .     A
C497   C513    1.394   .     A
C497   H517    1.083   .     S
C498   C514    1.402   .     A
C498   C500    1.462   .     S
C499   H530    1.084   .     S
C499   C505    1.397   .     A
C499   C135    1.370   1_565 S
C500   O536    1.292   .     A
C500   O535    1.292   .     A
C501   C502    1.396   .     A
C501   H518    1.084   .     S
C502   C510    1.418   .     S
C502   C503    1.397   .     A
C503   H519    1.084   .     S
C504   H520    1.084   .     S
C504   C505    1.396   .     A
C504   C137    1.370   1_565 S
C506   N532    1.366   .     A
C506   H521    1.082   .     S
C506   C385    1.416   1_655 S
C507   N531    1.367   .     A
C507   H522    1.082   .     S
C508   N531    1.366   .     A
C508   H523    1.082   .     S
C509   N532    1.367   .     A
C509   H524    1.082   .     S
C509   C386    1.416   1_655 S
C510   O538    1.283   .     A
C510   O537    1.281   .     A
C511   O540    1.291   .     A
C511   C513    1.453   .     S
C511   O539    1.291   .     A
C512   C1042   1.416   1_554 S
C512   H1074   1.081   1_554 S
C514   C515    1.386   .     A
C514   H527    1.083   .     S
C515   C1065   1.391   .     S
C515   H1078   1.083   .     S
C516   H528    1.078   .     S
C516   C1039   1.421   1_554 S
C516   C1064   1.391   1_554 S
H525   C1061   1.081   .     S
H529   C1064   1.083   1_554 S
N531   Zn541   2.007   .     S
N532   Zn542   2.007   .     S
O533   Zn541   1.999   .     S
O534   Zn542   1.997   .     S
O535   Zn541   1.963   .     S
O536   Zn542   1.913   .     S
O537   Zn541   1.997   .     S
O538   Zn542   1.999   .     S
O539   Zn541   1.913   .     S
O540   Zn542   1.963   .     S
C543   H544    1.085   .     S
C543   O545    1.221   .     D
C546   O547    1.220   .     D
C546   O548    1.400   .     S
O548   H549    1.012   .     S
C550   C566    1.418   .     S
C550   O594    1.282   .     A
C550   O595    1.282   .     A
C551   C552    1.405   .     A
C551   C4      1.412   1_556 S
C551   C28     1.421   1_556 S
C552   C556    1.426   .     A
C552   C559    1.420   .     A
C553   C557    1.393   .     A
C554   C555    1.412   .     A
C554   C4      1.423   1_556 S
C554   C24     1.416   1_556 S
C555   C556    1.416   .     A
C555   C604    1.486   .     S
C556   C607    1.498   .     S
C557   C574    1.387   .     A
C557   H587    1.078   .     S
C558   C573    1.392   .     A
C558   C574    1.394   .     A
C558   H578    1.083   .     S
C559   C575    1.402   .     A
C559   C561    1.462   .     S
C560   H591    1.084   .     S
C560   C566    1.397   .     A
C560   C745    1.370   .     S
C561   O597    1.292   .     A
C561   O596    1.292   .     A
C562   C563    1.396   .     A
C562   H579    1.084   .     S
C562   C926    1.370   1_545 S
C563   C571    1.418   .     S
C563   C564    1.397   .     A
C564   H580    1.084   .     S
C564   C931    1.370   1_545 S
C565   H581    1.084   .     S
C565   C566    1.396   .     A
C565   C747    1.370   .     S
C567   N593    1.366   .     A
C567   H582    1.082   .     S
C567   C629    1.416   .     S
C568   N592    1.367   .     A
C568   H583    1.082   .     S
C568   C689    1.416   1_455 S
C569   N592    1.366   .     A
C569   H584    1.082   .     S
C569   C692    1.416   1_455 S
C570   N593    1.367   .     A
C570   H585    1.082   .     S
C570   C630    1.416   .     S
C571   O599    1.283   .     A
C571   O598    1.281   .     A
C572   O601    1.291   .     A
C572   C574    1.453   .     S
C572   O600    1.291   .     A
C575   C576    1.386   .     A
C575   H588    1.083   .     S
C576   C28     1.391   1_556 S
C576   H41     1.083   1_556 S
C577   H589    1.078   .     S
H586   C24     1.081   1_556 S
N592   Zn602   2.007   .     S
N593   Zn603   2.007   .     S
O594   Zn602   1.999   .     S
O595   Zn603   1.997   .     S
O596   Zn602   1.963   .     S
O597   Zn603   1.913   .     S
O598   Zn602   1.997   .     S
O599   Zn603   1.999   .     S
O600   Zn602   1.913   .     S
O601   Zn603   1.963   .     S
C604   H605    1.085   .     S
C604   O606    1.221   .     D
C607   O608    1.220   .     D
C607   O609    1.400   .     S
O609   H610    1.012   .     S
C611   C627    1.418   .     S
C611   O655    1.282   .     A
C611   O656    1.282   .     A
C612   C613    1.405   .     A
C612   C65     1.412   1_556 S
C612   C89     1.421   1_556 S
C613   C617    1.426   .     A
C613   C620    1.420   .     A
C614   C618    1.393   .     A
C615   C616    1.412   .     A
C615   C65     1.423   1_556 S
C615   C85     1.416   1_556 S
C616   C617    1.416   .     A
C616   C665    1.486   .     S
C617   C668    1.498   .     S
C618   C635    1.387   .     A
C618   H648    1.078   .     S
C619   C634    1.392   .     A
C619   C635    1.394   .     A
C619   H639    1.083   .     S
C620   C636    1.402   .     A
C620   C622    1.462   .     S
C621   H652    1.084   .     S
C621   C627    1.397   .     A
C621   C806    1.370   .     S
C622   O658    1.292   .     A
C622   O657    1.292   .     A
C623   C624    1.396   .     A
C623   H640    1.084   .     S
C623   C987    1.370   1_545 S
C624   C632    1.418   .     S
C624   C625    1.397   .     A
C625   H641    1.084   .     S
C625   C992    1.370   1_545 S
C626   H642    1.084   .     S
C626   C627    1.396   .     A
C626   C808    1.370   .     S
C628   N654    1.366   .     A
C628   H643    1.082   .     S
C628   C690    1.416   .     S
C629   N653    1.367   .     A
C629   H644    1.082   .     S
C630   N653    1.366   .     A
C630   H645    1.082   .     S
C631   N654    1.367   .     A
C631   H646    1.082   .     S
C631   C691    1.416   .     S
C632   O660    1.283   .     A
C632   O659    1.281   .     A
C633   O662    1.291   .     A
C633   C635    1.453   .     S
C633   O661    1.291   .     A
C636   C637    1.386   .     A
C636   H649    1.083   .     S
C637   C89     1.391   1_556 S
C637   H102    1.083   1_556 S
C638   H650    1.078   .     S
H647   C85     1.081   1_556 S
N653   Zn663   2.007   .     S
N654   Zn664   2.007   .     S
O655   Zn663   1.999   .     S
O656   Zn664   1.997   .     S
O657   Zn663   1.963   .     S
O658   Zn664   1.913   .     S
O659   Zn663   1.997   .     S
O660   Zn664   1.999   .     S
O661   Zn663   1.913   .     S
O662   Zn664   1.963   .     S
C665   H666    1.085   .     S
C665   O667    1.221   .     D
C668   O669    1.220   .     D
C668   O670    1.400   .     S
O670   H671    1.012   .     S
C672   C688    1.418   .     S
C672   O716    1.282   .     A
C672   O717    1.282   .     A
C673   C674    1.405   .     A
C673   C126    1.412   1_556 S
C673   C150    1.421   1_556 S
C674   C678    1.426   .     A
C674   C681    1.420   .     A
C675   C679    1.393   .     A
C676   C677    1.412   .     A
C676   C126    1.423   1_556 S
C676   C146    1.416   1_556 S
C677   C678    1.416   .     A
C677   C726    1.486   .     S
C678   C729    1.498   .     S
C679   C696    1.387   .     A
C679   H709    1.078   .     S
C680   C695    1.392   .     A
C680   C696    1.394   .     A
C680   H700    1.083   .     S
C681   C697    1.402   .     A
C681   C683    1.462   .     S
C682   H713    1.084   .     S
C682   C688    1.397   .     A
C682   C867    1.370   .     S
C683   O719    1.292   .     A
C683   O718    1.292   .     A
C684   C685    1.396   .     A
C684   H701    1.084   .     S
C684   C1048   1.370   1_545 S
C685   C693    1.418   .     S
C685   C686    1.397   .     A
C686   H702    1.084   .     S
C686   C1053   1.370   1_545 S
C687   H703    1.084   .     S
C687   C688    1.396   .     A
C687   C869    1.370   .     S
C689   N715    1.366   .     A
C689   H704    1.082   .     S
C689   C568    1.416   1_655 S
C690   N714    1.367   .     A
C690   H705    1.082   .     S
C691   N714    1.366   .     A
C691   H706    1.082   .     S
C692   N715    1.367   .     A
C692   H707    1.082   .     S
C692   C569    1.416   1_655 S
C693   O721    1.283   .     A
C693   O720    1.281   .     A
C694   O723    1.291   .     A
C694   C696    1.453   .     S
C694   O722    1.291   .     A
C697   C698    1.386   .     A
C697   H710    1.083   .     S
C698   C150    1.391   1_556 S
C698   H163    1.083   1_556 S
C699   H711    1.078   .     S
H708   C146    1.081   1_556 S
N714   Zn724   2.007   .     S
N715   Zn725   2.007   .     S
O716   Zn724   1.999   .     S
O717   Zn725   1.997   .     S
O718   Zn724   1.963   .     S
O719   Zn725   1.913   .     S
O720   Zn724   1.997   .     S
O721   Zn725   1.999   .     S
O722   Zn724   1.913   .     S
O723   Zn725   1.963   .     S
C726   H727    1.085   .     S
C726   O728    1.221   .     D
C729   O730    1.220   .     D
C729   O731    1.400   .     S
O731   H732    1.012   .     S
C733   C749    1.418   .     S
C733   O777    1.282   .     A
C733   O778    1.282   .     A
C734   C735    1.405   .     A
C734   C187    1.412   1_556 S
C734   C211    1.421   1_556 S
C735   C739    1.426   .     A
C735   C742    1.420   .     A
C736   C740    1.393   .     A
C737   C738    1.412   .     A
C737   C187    1.423   1_556 S
C737   C207    1.416   1_556 S
C738   C739    1.416   .     A
C738   C787    1.486   .     S
C739   C790    1.498   .     S
C740   C757    1.387   .     A
C740   H770    1.078   .     S
C741   C756    1.392   .     A
C741   C757    1.394   .     A
C741   H761    1.083   .     S
C742   C758    1.402   .     A
C742   C744    1.462   .     S
C743   H774    1.084   .     S
C743   C749    1.397   .     A
C743   C928    1.370   .     S
C744   O780    1.292   .     A
C744   O779    1.292   .     A
C745   C746    1.396   .     A
C745   H762    1.084   .     S
C746   C754    1.418   .     S
C746   C747    1.397   .     A
C747   H763    1.084   .     S
C748   H764    1.084   .     S
C748   C749    1.396   .     A
C748   C930    1.370   .     S
C750   N776    1.366   .     A
C750   H765    1.082   .     S
C750   C812    1.416   .     S
C751   N775    1.367   .     A
C751   H766    1.082   .     S
C751   C872    1.416   1_455 S
C752   N775    1.366   .     A
C752   H767    1.082   .     S
C752   C875    1.416   1_455 S
C753   N776    1.367   .     A
C753   H768    1.082   .     S
C753   C813    1.416   .     S
C754   O782    1.283   .     A
C754   O781    1.281   .     A
C755   O784    1.291   .     A
C755   C757    1.453   .     S
C755   O783    1.291   .     A
C758   C759    1.386   .     A
C758   H771    1.083   .     S
C759   C211    1.391   1_556 S
C759   H224    1.083   1_556 S
C760   H772    1.078   .     S
H769   C207    1.081   1_556 S
N775   Zn785   2.007   .     S
N776   Zn786   2.007   .     S
O777   Zn785   1.999   .     S
O778   Zn786   1.997   .     S
O779   Zn785   1.963   .     S
O780   Zn786   1.913   .     S
O781   Zn785   1.997   .     S
O782   Zn786   1.999   .     S
O783   Zn785   1.913   .     S
O784   Zn786   1.963   .     S
C787   H788    1.085   .     S
C787   O789    1.221   .     D
C790   O791    1.220   .     D
C790   O792    1.400   .     S
O792   H793    1.012   .     S
C794   C810    1.418   .     S
C794   O838    1.282   .     A
C794   O839    1.282   .     A
C795   C796    1.405   .     A
C795   C248    1.412   1_556 S
C795   C272    1.421   1_556 S
C796   C800    1.426   .     A
C796   C803    1.420   .     A
C797   C801    1.393   .     A
C798   C799    1.412   .     A
C798   C248    1.423   1_556 S
C798   C268    1.416   1_556 S
C799   C800    1.416   .     A
C799   C848    1.486   .     S
C800   C851    1.498   .     S
C801   C818    1.387   .     A
C801   H831    1.078   .     S
C802   C817    1.392   .     A
C802   C818    1.394   .     A
C802   H822    1.083   .     S
C803   C819    1.402   .     A
C803   C805    1.462   .     S
C804   H835    1.084   .     S
C804   C810    1.397   .     A
C804   C989    1.370   .     S
C805   O841    1.292   .     A
C805   O840    1.292   .     A
C806   C807    1.396   .     A
C806   H823    1.084   .     S
C807   C815    1.418   .     S
C807   C808    1.397   .     A
C808   H824    1.084   .     S
C809   H825    1.084   .     S
C809   C810    1.396   .     A
C809   C991    1.370   .     S
C811   N837    1.366   .     A
C811   H826    1.082   .     S
C811   C873    1.416   .     S
C812   N836    1.367   .     A
C812   H827    1.082   .     S
C813   N836    1.366   .     A
C813   H828    1.082   .     S
C814   N837    1.367   .     A
C814   H829    1.082   .     S
C814   C874    1.416   .     S
C815   O843    1.283   .     A
C815   O842    1.281   .     A
C816   O845    1.291   .     A
C816   C818    1.453   .     S
C816   O844    1.291   .     A
C819   C820    1.386   .     A
C819   H832    1.083   .     S
C820   C272    1.391   1_556 S
C820   H285    1.083   1_556 S
C821   H833    1.078   .     S
H830   C268    1.081   1_556 S
N836   Zn846   2.007   .     S
N837   Zn847   2.007   .     S
O838   Zn846   1.999   .     S
O839   Zn847   1.997   .     S
O840   Zn846   1.963   .     S
O841   Zn847   1.913   .     S
O842   Zn846   1.997   .     S
O843   Zn847   1.999   .     S
O844   Zn846   1.913   .     S
O845   Zn847   1.963   .     S
C848   H849    1.085   .     S
C848   O850    1.221   .     D
C851   O852    1.220   .     D
C851   O853    1.400   .     S
O853   H854    1.012   .     S
C855   C871    1.418   .     S
C855   O899    1.282   .     A
C855   O900    1.282   .     A
C856   C857    1.405   .     A
C856   C309    1.412   1_556 S
C856   C333    1.421   1_556 S
C857   C861    1.426   .     A
C857   C864    1.420   .     A
C858   C862    1.393   .     A
C859   C860    1.412   .     A
C859   C309    1.423   1_556 S
C859   C329    1.416   1_556 S
C860   C861    1.416   .     A
C860   C909    1.486   .     S
C861   C912    1.498   .     S
C862   C879    1.387   .     A
C862   H892    1.078   .     S
C863   C878    1.392   .     A
C863   C879    1.394   .     A
C863   H883    1.083   .     S
C864   C880    1.402   .     A
C864   C866    1.462   .     S
C865   H896    1.084   .     S
C865   C871    1.397   .     A
C865   C1050   1.370   .     S
C866   O902    1.292   .     A
C866   O901    1.292   .     A
C867   C868    1.396   .     A
C867   H884    1.084   .     S
C868   C876    1.418   .     S
C868   C869    1.397   .     A
C869   H885    1.084   .     S
C870   H886    1.084   .     S
C870   C871    1.396   .     A
C870   C1052   1.370   .     S
C872   N898    1.366   .     A
C872   H887    1.082   .     S
C872   C751    1.416   1_655 S
C873   N897    1.367   .     A
C873   H888    1.082   .     S
C874   N897    1.366   .     A
C874   H889    1.082   .     S
C875   N898    1.367   .     A
C875   H890    1.082   .     S
C875   C752    1.416   1_655 S
C876   O904    1.283   .     A
C876   O903    1.281   .     A
C877   O906    1.291   .     A
C877   C879    1.453   .     S
C877   O905    1.291   .     A
C880   C881    1.386   .     A
C880   H893    1.083   .     S
C881   C333    1.391   1_556 S
C881   H346    1.083   1_556 S
C882   H894    1.078   .     S
H891   C329    1.081   1_556 S
N897   Zn907   2.007   .     S
N898   Zn908   2.007   .     S
O899   Zn907   1.999   .     S
O900   Zn908   1.997   .     S
O901   Zn907   1.963   .     S
O902   Zn908   1.913   .     S
O903   Zn907   1.997   .     S
O904   Zn908   1.999   .     S
O905   Zn907   1.913   .     S
O906   Zn908   1.963   .     S
C909   H910    1.085   .     S
C909   O911    1.221   .     D
C912   O913    1.220   .     D
C912   O914    1.400   .     S
O914   H915    1.012   .     S
C916   C932    1.418   .     S
C916   O960    1.282   .     A
C916   O961    1.282   .     A
C917   C918    1.405   .     A
C917   C370    1.412   1_556 S
C917   C394    1.421   1_556 S
C918   C922    1.426   .     A
C918   C925    1.420   .     A
C919   C923    1.393   .     A
C920   C921    1.412   .     A
C920   C370    1.423   1_556 S
C920   C390    1.416   1_556 S
C921   C922    1.416   .     A
C921   C970    1.486   .     S
C922   C973    1.498   .     S
C923   C940    1.387   .     A
C923   H953    1.078   .     S
C924   C939    1.392   .     A
C924   C940    1.394   .     A
C924   H944    1.083   .     S
C925   C941    1.402   .     A
C925   C927    1.462   .     S
C926   H957    1.084   .     S
C926   C932    1.397   .     A
C926   C562    1.370   1_565 S
C927   O963    1.292   .     A
C927   O962    1.292   .     A
C928   C929    1.396   .     A
C928   H945    1.084   .     S
C929   C937    1.418   .     S
C929   C930    1.397   .     A
C930   H946    1.084   .     S
C931   H947    1.084   .     S
C931   C932    1.396   .     A
C931   C564    1.370   1_565 S
C933   N959    1.366   .     A
C933   H948    1.082   .     S
C933   C995    1.416   .     S
C934   N958    1.367   .     A
C934   H949    1.082   .     S
C934   C1055   1.416   1_455 S
C935   N958    1.366   .     A
C935   H950    1.082   .     S
C935   C1058   1.416   1_455 S
C936   N959    1.367   .     A
C936   H951    1.082   .     S
C936   C996    1.416   .     S
C937   O965    1.283   .     A
C937   O964    1.281   .     A
C938   O967    1.291   .     A
C938   C940    1.453   .     S
C938   O966    1.291   .     A
C941   C942    1.386   .     A
C941   H954    1.083   .     S
C942   C394    1.391   1_556 S
C942   H407    1.083   1_556 S
C943   H955    1.078   .     S
H952   C390    1.081   1_556 S
N958   Zn968   2.007   .     S
N959   Zn969   2.007   .     S
O960   Zn968   1.999   .     S
O961   Zn969   1.997   .     S
O962   Zn968   1.963   .     S
O963   Zn969   1.913   .     S
O964   Zn968   1.997   .     S
O965   Zn969   1.999   .     S
O966   Zn968   1.913   .     S
O967   Zn969   1.963   .     S
C970   H971    1.085   .     S
C970   O972    1.221   .     D
C973   O974    1.220   .     D
C973   O975    1.400   .     S
O975   H976    1.012   .     S
C977   C993    1.418   .     S
C977   O1021   1.282   .     A
C977   O1022   1.282   .     A
C978   C979    1.405   .     A
C978   C431    1.412   1_556 S
C978   C455    1.421   1_556 S
C979   C983    1.426   .     A
C979   C986    1.420   .     A
C980   C984    1.393   .     A
C981   C982    1.412   .     A
C981   C431    1.423   1_556 S
C981   C451    1.416   1_556 S
C982   C983    1.416   .     A
C982   C1031   1.486   .     S
C983   C1034   1.498   .     S
C984   C1001   1.387   .     A
C984   H1014   1.078   .     S
C985   C1000   1.392   .     A
C985   C1001   1.394   .     A
C985   H1005   1.083   .     S
C986   C1002   1.402   .     A
C986   C988    1.462   .     S
C987   H1018   1.084   .     S
C987   C993    1.397   .     A
C987   C623    1.370   1_565 S
C988   O1024   1.292   .     A
C988   O1023   1.292   .     A
C989   C990    1.396   .     A
C989   H1006   1.084   .     S
C990   C998    1.418   .     S
C990   C991    1.397   .     A
C991   H1007   1.084   .     S
C992   H1008   1.084   .     S
C992   C993    1.396   .     A
C992   C625    1.370   1_565 S
C994   N1020   1.366   .     A
C994   H1009   1.082   .     S
C994   C1056   1.416   .     S
C995   N1019   1.367   .     A
C995   H1010   1.082   .     S
C996   N1019   1.366   .     A
C996   H1011   1.082   .     S
C997   N1020   1.367   .     A
C997   H1012   1.082   .     S
C997   C1057   1.416   .     S
C998   O1026   1.283   .     A
C998   O1025   1.281   .     A
C999   O1028   1.291   .     A
C999   C1001   1.453   .     S
C999   O1027   1.291   .     A
C1002  C1003   1.386   .     A
C1002  H1015   1.083   .     S
C1003  C455    1.391   1_556 S
C1003  H468    1.083   1_556 S
C1004  H1016   1.078   .     S
H1013  C451    1.081   1_556 S
N1019  Zn1029  2.007   .     S
N1020  Zn1030  2.007   .     S
O1021  Zn1029  1.999   .     S
O1022  Zn1030  1.997   .     S
O1023  Zn1029  1.963   .     S
O1024  Zn1030  1.913   .     S
O1025  Zn1029  1.997   .     S
O1026  Zn1030  1.999   .     S
O1027  Zn1029  1.913   .     S
O1028  Zn1030  1.963   .     S
C1031  H1032   1.085   .     S
C1031  O1033   1.221   .     D
C1034  O1035   1.220   .     D
C1034  O1036   1.400   .     S
O1036  H1037   1.012   .     S
C1038  C1054   1.418   .     S
C1038  O1082   1.282   .     A
C1038  O1083   1.282   .     A
C1039  C1040   1.405   .     A
C1039  C492    1.412   1_556 S
C1039  C516    1.421   1_556 S
C1040  C1044   1.426   .     A
C1040  C1047   1.420   .     A
C1041  C1045   1.393   .     A
C1042  C1043   1.412   .     A
C1042  C492    1.423   1_556 S
C1042  C512    1.416   1_556 S
C1043  C1044   1.416   .     A
C1043  C1092   1.486   .     S
C1044  C1095   1.498   .     S
C1045  C1062   1.387   .     A
C1045  H1075   1.078   .     S
C1046  C1061   1.392   .     A
C1046  C1062   1.394   .     A
C1046  H1066   1.083   .     S
C1047  C1063   1.402   .     A
C1047  C1049   1.462   .     S
C1048  H1079   1.084   .     S
C1048  C1054   1.397   .     A
C1048  C684    1.370   1_565 S
C1049  O1085   1.292   .     A
C1049  O1084   1.292   .     A
C1050  C1051   1.396   .     A
C1050  H1067   1.084   .     S
C1051  C1059   1.418   .     S
C1051  C1052   1.397   .     A
C1052  H1068   1.084   .     S
C1053  H1069   1.084   .     S
C1053  C1054   1.396   .     A
C1053  C686    1.370   1_565 S
C1055  N1081   1.366   .     A
C1055  H1070   1.082   .     S
C1055  C934    1.416   1_655 S
C1056  N1080   1.367   .     A
C1056  H1071   1.082   .     S
C1057  N1080   1.366   .     A
C1057  H1072   1.082   .     S
C1058  N1081   1.367   .     A
C1058  H1073   1.082   .     S
C1058  C935    1.416   1_655 S
C1059  O1087   1.283   .     A
C1059  O1086   1.281   .     A
C1060  O1089   1.291   .     A
C1060  C1062   1.453   .     S
C1060  O1088   1.291   .     A
C1063  C1064   1.386   .     A
C1063  H1076   1.083   .     S
C1064  C516    1.391   1_556 S
C1064  H529    1.083   1_556 S
C1065  H1077   1.078   .     S
H1074  C512    1.081   1_556 S
N1080  Zn1090  2.007   .     S
N1081  Zn1091  2.007   .     S
O1082  Zn1090  1.999   .     S
O1083  Zn1091  1.997   .     S
O1084  Zn1090  1.963   .     S
O1085  Zn1091  1.913   .     S
O1086  Zn1090  1.997   .     S
O1087  Zn1091  1.999   .     S
O1088  Zn1090  1.913   .     S
O1089  Zn1091  1.963   .     S
C1092  H1093   1.085   .     S
C1092  O1094   1.221   .     D
C1095  O1096   1.220   .     D
C1095  O1097   1.400   .     S
O1097  H1098   1.012   .     S
