data_str_m2_o2_o10_pcu_sym.168
_audit_creation_date              2020-01-03
_audit_creation_method            'Materials Studio'
_symmetry_space_group_name_H-M    'P1'
_symmetry_Int_Tables_number       1
_symmetry_cell_setting            triclinic
loop_
_symmetry_equiv_pos_as_xyz
  x,y,z
_cell_length_a                    26.1928
_cell_length_b                    30.2115
_cell_length_c                    27.8078
_cell_angle_alpha                 89.0967
_cell_angle_beta                  97.6901
_cell_angle_gamma                 90.5132
loop_
_atom_site_label
_atom_site_type_symbol
_atom_site_fract_x
_atom_site_fract_y
_atom_site_fract_z
_atom_site_U_iso_or_equiv
_atom_site_adp_type
_atom_site_occupancy
C1     C     0.16606   0.16502   0.25023   0.00000  Uiso   1.00
C2     C     0.16609   0.33513   0.24953   0.00000  Uiso   1.00
C3     C     0.21078   0.26622   0.05971   0.00000  Uiso   1.00
C4     C     0.15026   0.21151   0.44438   0.00000  Uiso   1.00
C5     C     0.20731   0.26840   0.10974   0.00000  Uiso   1.00
C6     C     0.14748   0.21426   0.39347   0.00000  Uiso   1.00
C7     C     0.12624   0.23261   0.09938   0.00000  Uiso   1.00
C8     C     0.18514   0.28550   0.39752   0.00000  Uiso   1.00
C9     C     0.12587   0.23304   0.04870   0.00000  Uiso   1.00
C10    C     0.18475   0.28591   0.44809   0.00000  Uiso   1.00
C11    C     0.16873   0.24897   0.02764   0.00000  Uiso   1.00
C12    C     0.16827   0.24846   0.47297   0.00000  Uiso   1.00
C13    C     0.06796   0.24987   0.23763   0.00000  Uiso   1.00
C14    C     0.26538   0.24998   0.26238   0.00000  Uiso   1.00
C15    C     0.01274   0.24963   0.23079   0.00000  Uiso   1.00
C16    C     0.32062   0.24998   0.26923   0.00000  Uiso   1.00
C17    C     0.12637   0.04805   0.27621   0.00000  Uiso   1.00
C18    C     0.14184   0.45259   0.20435   0.00000  Uiso   1.00
C19    C     0.12990   0.09414   0.27729   0.00000  Uiso   1.00
C20    C     0.14539   0.40653   0.20510   0.00000  Uiso   1.00
C21    C     0.16389   0.11683   0.25051   0.00000  Uiso   1.00
C22    C     0.16395   0.38359   0.24828   0.00000  Uiso   1.00
C23    C     0.19460   0.09340   0.22244   0.00000  Uiso   1.00
C24    C     0.17954   0.40720   0.29073   0.00000  Uiso   1.00
C25    C     0.19232   0.04749   0.22185   0.00000  Uiso   1.00
C26    C     0.17723   0.45309   0.29015   0.00000  Uiso   1.00
C27    C     0.15846   0.02452   0.24844   0.00000  Uiso   1.00
C28    C     0.15847   0.47606   0.24740   0.00000  Uiso   1.00
Cu29   Cu    0.16667   0.24999   0.29822   0.00000  Uiso   1.00
Cu30   Cu    0.16667   0.25000   0.20179   0.00000  Uiso   1.00
H31    H     0.32630   0.24915   0.19386   0.00000  Uiso   1.00
H32    H     0.00711   0.25034   0.30617   0.00000  Uiso   1.00
H33    H     0.22082   0.11065   0.20147   0.00000  Uiso   1.00
H34    H     0.19412   0.39022   0.32430   0.00000  Uiso   1.00
H35    H     0.21701   0.02970   0.20061   0.00000  Uiso   1.00
H36    H     0.19024   0.47088   0.32313   0.00000  Uiso   1.00
H37    H     0.09360   0.21874   0.11454   0.00000  Uiso   1.00
H38    H     0.19986   0.31412   0.37990   0.00000  Uiso   1.00
H39    H     0.09218   0.22046   0.02605   0.00000  Uiso   1.00
H40    H     0.19784   0.31543   0.46777   0.00000  Uiso   1.00
N41    N     0.16667   0.25001   0.12935   0.00000  Uiso   1.00
N42    N     0.16667   0.24999   0.37066   0.00000  Uiso   1.00
O43    O     0.16667   0.18572   0.29072   0.00000  Uiso   1.00
O44    O     0.16666   0.31427   0.20929   0.00000  Uiso   1.00
O45    O     0.16667   0.18573   0.20928   0.00000  Uiso   1.00
O46    O     0.16666   0.31427   0.29072   0.00000  Uiso   1.00
O47    O     0.09161   0.24999   0.28132   0.00000  Uiso   1.00
O48    O     0.24172   0.25000   0.21868   0.00000  Uiso   1.00
O49    O     0.09161   0.25000   0.19989   0.00000  Uiso   1.00
O50    O     0.24172   0.25000   0.30012   0.00000  Uiso   1.00
O51    O     0.09066   0.02782   0.30184   0.00000  Uiso   1.00
H52    H     0.08657   0.49632   0.29290   0.00000  Uiso   1.00
O53    O     0.12140   0.47290   0.16124   0.00000  Uiso   1.00
H54    H     0.11371   0.00422   0.16694   0.00000  Uiso   1.00
F55    F     0.09787   0.11682   0.30239   0.00000  Uiso   1.00
F56    F     0.12876   0.38429   0.16379   0.00000  Uiso   1.00
O57    O     0.25622   0.28044   0.04435   0.00000  Uiso   1.00
H58    H     0.26089   0.26465   0.01435   0.00000  Uiso   1.00
O59    O     0.13600   0.17186   0.46421   0.00000  Uiso   1.00
H60    H     0.15466   0.16867   0.49744   0.00000  Uiso   1.00
F61    F     0.24575   0.28901   0.13861   0.00000  Uiso   1.00
F62    F     0.12564   0.18012   0.36720   0.00000  Uiso   1.00
C63    C     0.49939   0.16502   0.25023   0.00000  Uiso   1.00
C64    C     0.49943   0.33513   0.24953   0.00000  Uiso   1.00
C65    C     0.54411   0.26622   0.05971   0.00000  Uiso   1.00
C66    C     0.48359   0.21151   0.44438   0.00000  Uiso   1.00
C67    C     0.54065   0.26840   0.10974   0.00000  Uiso   1.00
C68    C     0.48081   0.21426   0.39347   0.00000  Uiso   1.00
C69    C     0.45957   0.23261   0.09938   0.00000  Uiso   1.00
C70    C     0.51847   0.28550   0.39752   0.00000  Uiso   1.00
C71    C     0.45920   0.23304   0.04870   0.00000  Uiso   1.00
C72    C     0.51808   0.28591   0.44809   0.00000  Uiso   1.00
C73    C     0.50206   0.24897   0.02764   0.00000  Uiso   1.00
C74    C     0.50161   0.24846   0.47297   0.00000  Uiso   1.00
C75    C     0.40129   0.24987   0.23763   0.00000  Uiso   1.00
C76    C     0.59872   0.24998   0.26238   0.00000  Uiso   1.00
C77    C     0.34607   0.24963   0.23079   0.00000  Uiso   1.00
C78    C     0.65395   0.24998   0.26923   0.00000  Uiso   1.00
C79    C     0.45970   0.04805   0.27621   0.00000  Uiso   1.00
C80    C     0.47518   0.45259   0.20435   0.00000  Uiso   1.00
C81    C     0.46323   0.09414   0.27729   0.00000  Uiso   1.00
C82    C     0.47872   0.40653   0.20510   0.00000  Uiso   1.00
C83    C     0.49722   0.11683   0.25051   0.00000  Uiso   1.00
C84    C     0.49729   0.38359   0.24828   0.00000  Uiso   1.00
C85    C     0.52793   0.09340   0.22244   0.00000  Uiso   1.00
C86    C     0.51288   0.40720   0.29073   0.00000  Uiso   1.00
C87    C     0.52565   0.04749   0.22185   0.00000  Uiso   1.00
C88    C     0.51057   0.45309   0.29015   0.00000  Uiso   1.00
C89    C     0.49179   0.02452   0.24844   0.00000  Uiso   1.00
C90    C     0.49181   0.47606   0.24740   0.00000  Uiso   1.00
Cu91   Cu    0.50000   0.24999   0.29822   0.00000  Uiso   1.00
Cu92   Cu    0.50000   0.25000   0.20179   0.00000  Uiso   1.00
H93    H     0.65963   0.24915   0.19386   0.00000  Uiso   1.00
H94    H     0.34044   0.25034   0.30617   0.00000  Uiso   1.00
H95    H     0.55415   0.11065   0.20147   0.00000  Uiso   1.00
H96    H     0.52745   0.39022   0.32430   0.00000  Uiso   1.00
H97    H     0.55035   0.02970   0.20061   0.00000  Uiso   1.00
H98    H     0.52358   0.47088   0.32313   0.00000  Uiso   1.00
H99    H     0.42693   0.21874   0.11454   0.00000  Uiso   1.00
H100   H     0.53320   0.31412   0.37990   0.00000  Uiso   1.00
H101   H     0.42552   0.22046   0.02605   0.00000  Uiso   1.00
H102   H     0.53118   0.31543   0.46777   0.00000  Uiso   1.00
N103   N     0.50000   0.25001   0.12935   0.00000  Uiso   1.00
N104   N     0.50000   0.24999   0.37066   0.00000  Uiso   1.00
O105   O     0.50000   0.18572   0.29072   0.00000  Uiso   1.00
O106   O     0.50000   0.31427   0.20929   0.00000  Uiso   1.00
O107   O     0.50000   0.18573   0.20928   0.00000  Uiso   1.00
O108   O     0.50000   0.31427   0.29072   0.00000  Uiso   1.00
O109   O     0.42495   0.24999   0.28132   0.00000  Uiso   1.00
O110   O     0.57505   0.25000   0.21868   0.00000  Uiso   1.00
O111   O     0.42495   0.25000   0.19989   0.00000  Uiso   1.00
O112   O     0.57505   0.25000   0.30012   0.00000  Uiso   1.00
O113   O     0.42399   0.02782   0.30184   0.00000  Uiso   1.00
H114   H     0.41991   0.49632   0.29290   0.00000  Uiso   1.00
O115   O     0.45473   0.47290   0.16124   0.00000  Uiso   1.00
H116   H     0.44704   0.00422   0.16694   0.00000  Uiso   1.00
F117   F     0.43121   0.11682   0.30239   0.00000  Uiso   1.00
F118   F     0.46209   0.38429   0.16379   0.00000  Uiso   1.00
O119   O     0.58955   0.28044   0.04435   0.00000  Uiso   1.00
H120   H     0.59423   0.26465   0.01435   0.00000  Uiso   1.00
O121   O     0.46933   0.17186   0.46421   0.00000  Uiso   1.00
H122   H     0.48800   0.16867   0.49744   0.00000  Uiso   1.00
F123   F     0.57908   0.28901   0.13861   0.00000  Uiso   1.00
F124   F     0.45897   0.18012   0.36720   0.00000  Uiso   1.00
C125   C     0.83272   0.16502   0.25023   0.00000  Uiso   1.00
C126   C     0.83276   0.33513   0.24953   0.00000  Uiso   1.00
C127   C     0.87745   0.26622   0.05971   0.00000  Uiso   1.00
C128   C     0.81692   0.21151   0.44438   0.00000  Uiso   1.00
C129   C     0.87398   0.26840   0.10974   0.00000  Uiso   1.00
C130   C     0.81415   0.21426   0.39347   0.00000  Uiso   1.00
C131   C     0.79290   0.23261   0.09938   0.00000  Uiso   1.00
C132   C     0.85180   0.28550   0.39752   0.00000  Uiso   1.00
C133   C     0.79253   0.23304   0.04870   0.00000  Uiso   1.00
C134   C     0.85141   0.28591   0.44809   0.00000  Uiso   1.00
C135   C     0.83540   0.24897   0.02764   0.00000  Uiso   1.00
C136   C     0.83494   0.24846   0.47297   0.00000  Uiso   1.00
C137   C     0.73462   0.24987   0.23763   0.00000  Uiso   1.00
C138   C     0.93205   0.24998   0.26238   0.00000  Uiso   1.00
C139   C     0.67940   0.24963   0.23079   0.00000  Uiso   1.00
C140   C     0.98729   0.24998   0.26923   0.00000  Uiso   1.00
C141   C     0.79303   0.04805   0.27621   0.00000  Uiso   1.00
C142   C     0.80851   0.45259   0.20435   0.00000  Uiso   1.00
C143   C     0.79656   0.09414   0.27729   0.00000  Uiso   1.00
C144   C     0.81205   0.40653   0.20510   0.00000  Uiso   1.00
C145   C     0.83055   0.11683   0.25051   0.00000  Uiso   1.00
C146   C     0.83062   0.38359   0.24828   0.00000  Uiso   1.00
C147   C     0.86127   0.09340   0.22244   0.00000  Uiso   1.00
C148   C     0.84621   0.40720   0.29073   0.00000  Uiso   1.00
C149   C     0.85899   0.04749   0.22185   0.00000  Uiso   1.00
C150   C     0.84390   0.45309   0.29015   0.00000  Uiso   1.00
C151   C     0.82513   0.02452   0.24844   0.00000  Uiso   1.00
C152   C     0.82514   0.47606   0.24740   0.00000  Uiso   1.00
Cu153  Cu    0.83333   0.24999   0.29822   0.00000  Uiso   1.00
Cu154  Cu    0.83333   0.25000   0.20179   0.00000  Uiso   1.00
H155   H     0.99297   0.24915   0.19386   0.00000  Uiso   1.00
H156   H     0.67377   0.25034   0.30617   0.00000  Uiso   1.00
H157   H     0.88748   0.11065   0.20147   0.00000  Uiso   1.00
H158   H     0.86078   0.39022   0.32430   0.00000  Uiso   1.00
H159   H     0.88368   0.02970   0.20061   0.00000  Uiso   1.00
H160   H     0.85691   0.47088   0.32313   0.00000  Uiso   1.00
H161   H     0.76027   0.21874   0.11454   0.00000  Uiso   1.00
H162   H     0.86653   0.31412   0.37990   0.00000  Uiso   1.00
H163   H     0.75885   0.22046   0.02605   0.00000  Uiso   1.00
H164   H     0.86451   0.31543   0.46777   0.00000  Uiso   1.00
N165   N     0.83333   0.25001   0.12935   0.00000  Uiso   1.00
N166   N     0.83333   0.24999   0.37066   0.00000  Uiso   1.00
O167   O     0.83334   0.18572   0.29072   0.00000  Uiso   1.00
O168   O     0.83333   0.31427   0.20929   0.00000  Uiso   1.00
O169   O     0.83334   0.18573   0.20928   0.00000  Uiso   1.00
O170   O     0.83333   0.31427   0.29072   0.00000  Uiso   1.00
O171   O     0.75828   0.24999   0.28132   0.00000  Uiso   1.00
O172   O     0.90839   0.25000   0.21868   0.00000  Uiso   1.00
O173   O     0.75828   0.25000   0.19989   0.00000  Uiso   1.00
O174   O     0.90839   0.25000   0.30012   0.00000  Uiso   1.00
O175   O     0.75732   0.02782   0.30184   0.00000  Uiso   1.00
H176   H     0.75324   0.49632   0.29290   0.00000  Uiso   1.00
O177   O     0.78806   0.47290   0.16124   0.00000  Uiso   1.00
H178   H     0.78038   0.00422   0.16694   0.00000  Uiso   1.00
F179   F     0.76454   0.11682   0.30239   0.00000  Uiso   1.00
F180   F     0.79542   0.38429   0.16379   0.00000  Uiso   1.00
O181   O     0.92288   0.28044   0.04435   0.00000  Uiso   1.00
H182   H     0.92756   0.26465   0.01435   0.00000  Uiso   1.00
O183   O     0.80267   0.17186   0.46421   0.00000  Uiso   1.00
H184   H     0.82133   0.16867   0.49744   0.00000  Uiso   1.00
F185   F     0.91241   0.28901   0.13861   0.00000  Uiso   1.00
F186   F     0.79230   0.18012   0.36720   0.00000  Uiso   1.00
C187   C     0.16606   0.66502   0.25023   0.00000  Uiso   1.00
C188   C     0.16609   0.83513   0.24953   0.00000  Uiso   1.00
C189   C     0.21078   0.76622   0.05971   0.00000  Uiso   1.00
C190   C     0.15026   0.71151   0.44438   0.00000  Uiso   1.00
C191   C     0.20731   0.76840   0.10974   0.00000  Uiso   1.00
C192   C     0.14748   0.71426   0.39347   0.00000  Uiso   1.00
C193   C     0.12624   0.73261   0.09938   0.00000  Uiso   1.00
C194   C     0.18514   0.78550   0.39752   0.00000  Uiso   1.00
C195   C     0.12587   0.73304   0.04870   0.00000  Uiso   1.00
C196   C     0.18475   0.78591   0.44809   0.00000  Uiso   1.00
C197   C     0.16873   0.74897   0.02764   0.00000  Uiso   1.00
C198   C     0.16827   0.74846   0.47297   0.00000  Uiso   1.00
C199   C     0.06796   0.74987   0.23763   0.00000  Uiso   1.00
C200   C     0.26538   0.74998   0.26238   0.00000  Uiso   1.00
C201   C     0.01274   0.74963   0.23079   0.00000  Uiso   1.00
C202   C     0.32062   0.74998   0.26923   0.00000  Uiso   1.00
C203   C     0.12637   0.54805   0.27621   0.00000  Uiso   1.00
C204   C     0.14184   0.95259   0.20435   0.00000  Uiso   1.00
C205   C     0.12990   0.59414   0.27729   0.00000  Uiso   1.00
C206   C     0.14539   0.90653   0.20510   0.00000  Uiso   1.00
C207   C     0.16389   0.61683   0.25051   0.00000  Uiso   1.00
C208   C     0.16395   0.88359   0.24828   0.00000  Uiso   1.00
C209   C     0.19460   0.59340   0.22244   0.00000  Uiso   1.00
C210   C     0.17954   0.90720   0.29073   0.00000  Uiso   1.00
C211   C     0.19232   0.54749   0.22185   0.00000  Uiso   1.00
C212   C     0.17723   0.95309   0.29015   0.00000  Uiso   1.00
C213   C     0.15846   0.52452   0.24844   0.00000  Uiso   1.00
C214   C     0.15847   0.97606   0.24740   0.00000  Uiso   1.00
Cu215  Cu    0.16667   0.74999   0.29822   0.00000  Uiso   1.00
Cu216  Cu    0.16667   0.75000   0.20179   0.00000  Uiso   1.00
H217   H     0.32630   0.74915   0.19386   0.00000  Uiso   1.00
H218   H     0.00711   0.75034   0.30617   0.00000  Uiso   1.00
H219   H     0.22082   0.61065   0.20147   0.00000  Uiso   1.00
H220   H     0.19412   0.89022   0.32430   0.00000  Uiso   1.00
H221   H     0.21701   0.52970   0.20061   0.00000  Uiso   1.00
H222   H     0.19024   0.97088   0.32313   0.00000  Uiso   1.00
H223   H     0.09360   0.71874   0.11454   0.00000  Uiso   1.00
H224   H     0.19986   0.81412   0.37990   0.00000  Uiso   1.00
H225   H     0.09218   0.72046   0.02605   0.00000  Uiso   1.00
H226   H     0.19784   0.81543   0.46777   0.00000  Uiso   1.00
N227   N     0.16667   0.75001   0.12935   0.00000  Uiso   1.00
N228   N     0.16667   0.74999   0.37066   0.00000  Uiso   1.00
O229   O     0.16667   0.68572   0.29072   0.00000  Uiso   1.00
O230   O     0.16666   0.81427   0.20929   0.00000  Uiso   1.00
O231   O     0.16667   0.68573   0.20928   0.00000  Uiso   1.00
O232   O     0.16666   0.81427   0.29072   0.00000  Uiso   1.00
O233   O     0.09161   0.74999   0.28132   0.00000  Uiso   1.00
O234   O     0.24172   0.75000   0.21868   0.00000  Uiso   1.00
O235   O     0.09161   0.75000   0.19989   0.00000  Uiso   1.00
O236   O     0.24172   0.75000   0.30012   0.00000  Uiso   1.00
O237   O     0.09066   0.52782   0.30184   0.00000  Uiso   1.00
H238   H     0.08657   0.99632   0.29290   0.00000  Uiso   1.00
O239   O     0.12140   0.97290   0.16124   0.00000  Uiso   1.00
H240   H     0.11371   0.50422   0.16694   0.00000  Uiso   1.00
F241   F     0.09787   0.61682   0.30239   0.00000  Uiso   1.00
F242   F     0.12876   0.88429   0.16379   0.00000  Uiso   1.00
O243   O     0.25622   0.78044   0.04435   0.00000  Uiso   1.00
H244   H     0.26089   0.76465   0.01435   0.00000  Uiso   1.00
O245   O     0.13600   0.67186   0.46421   0.00000  Uiso   1.00
H246   H     0.15466   0.66867   0.49744   0.00000  Uiso   1.00
F247   F     0.24575   0.78901   0.13861   0.00000  Uiso   1.00
F248   F     0.12564   0.68012   0.36720   0.00000  Uiso   1.00
C249   C     0.49939   0.66502   0.25023   0.00000  Uiso   1.00
C250   C     0.49943   0.83513   0.24953   0.00000  Uiso   1.00
C251   C     0.54411   0.76622   0.05971   0.00000  Uiso   1.00
C252   C     0.48359   0.71151   0.44438   0.00000  Uiso   1.00
C253   C     0.54065   0.76840   0.10974   0.00000  Uiso   1.00
C254   C     0.48081   0.71426   0.39347   0.00000  Uiso   1.00
C255   C     0.45957   0.73261   0.09938   0.00000  Uiso   1.00
C256   C     0.51847   0.78550   0.39752   0.00000  Uiso   1.00
C257   C     0.45920   0.73304   0.04870   0.00000  Uiso   1.00
C258   C     0.51808   0.78591   0.44809   0.00000  Uiso   1.00
C259   C     0.50206   0.74897   0.02764   0.00000  Uiso   1.00
C260   C     0.50161   0.74846   0.47297   0.00000  Uiso   1.00
C261   C     0.40129   0.74987   0.23763   0.00000  Uiso   1.00
C262   C     0.59872   0.74998   0.26238   0.00000  Uiso   1.00
C263   C     0.34607   0.74963   0.23079   0.00000  Uiso   1.00
C264   C     0.65395   0.74998   0.26923   0.00000  Uiso   1.00
C265   C     0.45970   0.54805   0.27621   0.00000  Uiso   1.00
C266   C     0.47518   0.95259   0.20435   0.00000  Uiso   1.00
C267   C     0.46323   0.59414   0.27729   0.00000  Uiso   1.00
C268   C     0.47872   0.90653   0.20510   0.00000  Uiso   1.00
C269   C     0.49722   0.61683   0.25051   0.00000  Uiso   1.00
C270   C     0.49729   0.88359   0.24828   0.00000  Uiso   1.00
C271   C     0.52793   0.59340   0.22244   0.00000  Uiso   1.00
C272   C     0.51288   0.90720   0.29073   0.00000  Uiso   1.00
C273   C     0.52565   0.54749   0.22185   0.00000  Uiso   1.00
C274   C     0.51057   0.95309   0.29015   0.00000  Uiso   1.00
C275   C     0.49179   0.52452   0.24844   0.00000  Uiso   1.00
C276   C     0.49181   0.97606   0.24740   0.00000  Uiso   1.00
Cu277  Cu    0.50000   0.74999   0.29822   0.00000  Uiso   1.00
Cu278  Cu    0.50000   0.75000   0.20179   0.00000  Uiso   1.00
H279   H     0.65963   0.74915   0.19386   0.00000  Uiso   1.00
H280   H     0.34044   0.75034   0.30617   0.00000  Uiso   1.00
H281   H     0.55415   0.61065   0.20147   0.00000  Uiso   1.00
H282   H     0.52745   0.89022   0.32430   0.00000  Uiso   1.00
H283   H     0.55035   0.52970   0.20061   0.00000  Uiso   1.00
H284   H     0.52358   0.97088   0.32313   0.00000  Uiso   1.00
H285   H     0.42693   0.71874   0.11454   0.00000  Uiso   1.00
H286   H     0.53320   0.81412   0.37990   0.00000  Uiso   1.00
H287   H     0.42552   0.72046   0.02605   0.00000  Uiso   1.00
H288   H     0.53118   0.81543   0.46777   0.00000  Uiso   1.00
N289   N     0.50000   0.75001   0.12935   0.00000  Uiso   1.00
N290   N     0.50000   0.74999   0.37066   0.00000  Uiso   1.00
O291   O     0.50000   0.68572   0.29072   0.00000  Uiso   1.00
O292   O     0.50000   0.81427   0.20929   0.00000  Uiso   1.00
O293   O     0.50000   0.68573   0.20928   0.00000  Uiso   1.00
O294   O     0.50000   0.81427   0.29072   0.00000  Uiso   1.00
O295   O     0.42495   0.74999   0.28132   0.00000  Uiso   1.00
O296   O     0.57505   0.75000   0.21868   0.00000  Uiso   1.00
O297   O     0.42495   0.75000   0.19989   0.00000  Uiso   1.00
O298   O     0.57505   0.75000   0.30012   0.00000  Uiso   1.00
O299   O     0.42399   0.52782   0.30184   0.00000  Uiso   1.00
H300   H     0.41991   0.99632   0.29290   0.00000  Uiso   1.00
O301   O     0.45473   0.97290   0.16124   0.00000  Uiso   1.00
H302   H     0.44704   0.50422   0.16694   0.00000  Uiso   1.00
F303   F     0.43121   0.61682   0.30239   0.00000  Uiso   1.00
F304   F     0.46209   0.88429   0.16379   0.00000  Uiso   1.00
O305   O     0.58955   0.78044   0.04435   0.00000  Uiso   1.00
H306   H     0.59423   0.76465   0.01435   0.00000  Uiso   1.00
O307   O     0.46933   0.67186   0.46421   0.00000  Uiso   1.00
H308   H     0.48800   0.66867   0.49744   0.00000  Uiso   1.00
F309   F     0.57908   0.78901   0.13861   0.00000  Uiso   1.00
F310   F     0.45897   0.68012   0.36720   0.00000  Uiso   1.00
C311   C     0.83272   0.66502   0.25023   0.00000  Uiso   1.00
C312   C     0.83276   0.83513   0.24953   0.00000  Uiso   1.00
C313   C     0.87745   0.76622   0.05971   0.00000  Uiso   1.00
C314   C     0.81692   0.71151   0.44438   0.00000  Uiso   1.00
C315   C     0.87398   0.76840   0.10974   0.00000  Uiso   1.00
C316   C     0.81415   0.71426   0.39347   0.00000  Uiso   1.00
C317   C     0.79290   0.73261   0.09938   0.00000  Uiso   1.00
C318   C     0.85180   0.78550   0.39752   0.00000  Uiso   1.00
C319   C     0.79253   0.73304   0.04870   0.00000  Uiso   1.00
C320   C     0.85141   0.78591   0.44809   0.00000  Uiso   1.00
C321   C     0.83540   0.74897   0.02764   0.00000  Uiso   1.00
C322   C     0.83494   0.74846   0.47297   0.00000  Uiso   1.00
C323   C     0.73462   0.74987   0.23763   0.00000  Uiso   1.00
C324   C     0.93205   0.74998   0.26238   0.00000  Uiso   1.00
C325   C     0.67940   0.74963   0.23079   0.00000  Uiso   1.00
C326   C     0.98729   0.74998   0.26923   0.00000  Uiso   1.00
C327   C     0.79303   0.54805   0.27621   0.00000  Uiso   1.00
C328   C     0.80851   0.95259   0.20435   0.00000  Uiso   1.00
C329   C     0.79656   0.59414   0.27729   0.00000  Uiso   1.00
C330   C     0.81205   0.90653   0.20510   0.00000  Uiso   1.00
C331   C     0.83055   0.61683   0.25051   0.00000  Uiso   1.00
C332   C     0.83062   0.88359   0.24828   0.00000  Uiso   1.00
C333   C     0.86127   0.59340   0.22244   0.00000  Uiso   1.00
C334   C     0.84621   0.90720   0.29073   0.00000  Uiso   1.00
C335   C     0.85899   0.54749   0.22185   0.00000  Uiso   1.00
C336   C     0.84390   0.95309   0.29015   0.00000  Uiso   1.00
C337   C     0.82513   0.52452   0.24844   0.00000  Uiso   1.00
C338   C     0.82514   0.97606   0.24740   0.00000  Uiso   1.00
Cu339  Cu    0.83333   0.74999   0.29822   0.00000  Uiso   1.00
Cu340  Cu    0.83333   0.75000   0.20179   0.00000  Uiso   1.00
H341   H     0.99297   0.74915   0.19386   0.00000  Uiso   1.00
H342   H     0.67377   0.75034   0.30617   0.00000  Uiso   1.00
H343   H     0.88748   0.61065   0.20147   0.00000  Uiso   1.00
H344   H     0.86078   0.89022   0.32430   0.00000  Uiso   1.00
H345   H     0.88368   0.52970   0.20061   0.00000  Uiso   1.00
H346   H     0.85691   0.97088   0.32313   0.00000  Uiso   1.00
H347   H     0.76027   0.71874   0.11454   0.00000  Uiso   1.00
H348   H     0.86653   0.81412   0.37990   0.00000  Uiso   1.00
H349   H     0.75885   0.72046   0.02605   0.00000  Uiso   1.00
H350   H     0.86451   0.81543   0.46777   0.00000  Uiso   1.00
N351   N     0.83333   0.75001   0.12935   0.00000  Uiso   1.00
N352   N     0.83333   0.74999   0.37066   0.00000  Uiso   1.00
O353   O     0.83334   0.68572   0.29072   0.00000  Uiso   1.00
O354   O     0.83333   0.81427   0.20929   0.00000  Uiso   1.00
O355   O     0.83334   0.68573   0.20928   0.00000  Uiso   1.00
O356   O     0.83333   0.81427   0.29072   0.00000  Uiso   1.00
O357   O     0.75828   0.74999   0.28132   0.00000  Uiso   1.00
O358   O     0.90839   0.75000   0.21868   0.00000  Uiso   1.00
O359   O     0.75828   0.75000   0.19989   0.00000  Uiso   1.00
O360   O     0.90839   0.75000   0.30012   0.00000  Uiso   1.00
O361   O     0.75732   0.52782   0.30184   0.00000  Uiso   1.00
H362   H     0.75324   0.99632   0.29290   0.00000  Uiso   1.00
O363   O     0.78806   0.97290   0.16124   0.00000  Uiso   1.00
H364   H     0.78038   0.50422   0.16694   0.00000  Uiso   1.00
F365   F     0.76454   0.61682   0.30239   0.00000  Uiso   1.00
F366   F     0.79542   0.88429   0.16379   0.00000  Uiso   1.00
O367   O     0.92288   0.78044   0.04435   0.00000  Uiso   1.00
H368   H     0.92756   0.76465   0.01435   0.00000  Uiso   1.00
O369   O     0.80267   0.67186   0.46421   0.00000  Uiso   1.00
H370   H     0.82133   0.66867   0.49744   0.00000  Uiso   1.00
F371   F     0.91241   0.78901   0.13861   0.00000  Uiso   1.00
F372   F     0.79230   0.68012   0.36720   0.00000  Uiso   1.00
C373   C     0.16606   0.16502   0.75023   0.00000  Uiso   1.00
C374   C     0.16609   0.33513   0.74953   0.00000  Uiso   1.00
C375   C     0.21078   0.26622   0.55971   0.00000  Uiso   1.00
C376   C     0.15026   0.21151   0.94438   0.00000  Uiso   1.00
C377   C     0.20731   0.26840   0.60974   0.00000  Uiso   1.00
C378   C     0.14748   0.21426   0.89347   0.00000  Uiso   1.00
C379   C     0.12624   0.23261   0.59938   0.00000  Uiso   1.00
C380   C     0.18514   0.28550   0.89752   0.00000  Uiso   1.00
C381   C     0.12587   0.23304   0.54870   0.00000  Uiso   1.00
C382   C     0.18475   0.28591   0.94809   0.00000  Uiso   1.00
C383   C     0.16873   0.24897   0.52764   0.00000  Uiso   1.00
C384   C     0.16827   0.24846   0.97297   0.00000  Uiso   1.00
C385   C     0.06796   0.24987   0.73763   0.00000  Uiso   1.00
C386   C     0.26538   0.24998   0.76238   0.00000  Uiso   1.00
C387   C     0.01274   0.24963   0.73079   0.00000  Uiso   1.00
C388   C     0.32062   0.24998   0.76923   0.00000  Uiso   1.00
C389   C     0.12637   0.04805   0.77621   0.00000  Uiso   1.00
C390   C     0.14184   0.45259   0.70435   0.00000  Uiso   1.00
C391   C     0.12990   0.09414   0.77729   0.00000  Uiso   1.00
C392   C     0.14539   0.40653   0.70510   0.00000  Uiso   1.00
C393   C     0.16389   0.11683   0.75051   0.00000  Uiso   1.00
C394   C     0.16395   0.38359   0.74828   0.00000  Uiso   1.00
C395   C     0.19460   0.09340   0.72244   0.00000  Uiso   1.00
C396   C     0.17954   0.40720   0.79073   0.00000  Uiso   1.00
C397   C     0.19232   0.04749   0.72185   0.00000  Uiso   1.00
C398   C     0.17723   0.45309   0.79015   0.00000  Uiso   1.00
C399   C     0.15846   0.02452   0.74844   0.00000  Uiso   1.00
C400   C     0.15847   0.47606   0.74740   0.00000  Uiso   1.00
Cu401  Cu    0.16667   0.24999   0.79822   0.00000  Uiso   1.00
Cu402  Cu    0.16667   0.25000   0.70179   0.00000  Uiso   1.00
H403   H     0.32630   0.24915   0.69386   0.00000  Uiso   1.00
H404   H     0.00711   0.25034   0.80617   0.00000  Uiso   1.00
H405   H     0.22082   0.11065   0.70147   0.00000  Uiso   1.00
H406   H     0.19412   0.39022   0.82430   0.00000  Uiso   1.00
H407   H     0.21701   0.02970   0.70061   0.00000  Uiso   1.00
H408   H     0.19024   0.47088   0.82313   0.00000  Uiso   1.00
H409   H     0.09360   0.21874   0.61454   0.00000  Uiso   1.00
H410   H     0.19986   0.31412   0.87990   0.00000  Uiso   1.00
H411   H     0.09218   0.22046   0.52605   0.00000  Uiso   1.00
H412   H     0.19784   0.31543   0.96777   0.00000  Uiso   1.00
N413   N     0.16667   0.25001   0.62935   0.00000  Uiso   1.00
N414   N     0.16667   0.24999   0.87066   0.00000  Uiso   1.00
O415   O     0.16667   0.18572   0.79072   0.00000  Uiso   1.00
O416   O     0.16666   0.31427   0.70929   0.00000  Uiso   1.00
O417   O     0.16667   0.18573   0.70928   0.00000  Uiso   1.00
O418   O     0.16666   0.31427   0.79072   0.00000  Uiso   1.00
O419   O     0.09161   0.24999   0.78132   0.00000  Uiso   1.00
O420   O     0.24172   0.25000   0.71868   0.00000  Uiso   1.00
O421   O     0.09161   0.25000   0.69989   0.00000  Uiso   1.00
O422   O     0.24172   0.25000   0.80012   0.00000  Uiso   1.00
O423   O     0.09066   0.02782   0.80184   0.00000  Uiso   1.00
H424   H     0.08657   0.49632   0.79290   0.00000  Uiso   1.00
O425   O     0.12140   0.47290   0.66124   0.00000  Uiso   1.00
H426   H     0.11371   0.00422   0.66694   0.00000  Uiso   1.00
F427   F     0.09787   0.11682   0.80239   0.00000  Uiso   1.00
F428   F     0.12876   0.38429   0.66379   0.00000  Uiso   1.00
O429   O     0.25622   0.28044   0.54435   0.00000  Uiso   1.00
H430   H     0.26089   0.26465   0.51435   0.00000  Uiso   1.00
O431   O     0.13600   0.17186   0.96421   0.00000  Uiso   1.00
H432   H     0.15466   0.16867   0.99744   0.00000  Uiso   1.00
F433   F     0.24575   0.28901   0.63861   0.00000  Uiso   1.00
F434   F     0.12564   0.18012   0.86720   0.00000  Uiso   1.00
C435   C     0.49939   0.16502   0.75023   0.00000  Uiso   1.00
C436   C     0.49943   0.33513   0.74953   0.00000  Uiso   1.00
C437   C     0.54411   0.26622   0.55971   0.00000  Uiso   1.00
C438   C     0.48359   0.21151   0.94438   0.00000  Uiso   1.00
C439   C     0.54065   0.26840   0.60974   0.00000  Uiso   1.00
C440   C     0.48081   0.21426   0.89347   0.00000  Uiso   1.00
C441   C     0.45957   0.23261   0.59938   0.00000  Uiso   1.00
C442   C     0.51847   0.28550   0.89752   0.00000  Uiso   1.00
C443   C     0.45920   0.23304   0.54870   0.00000  Uiso   1.00
C444   C     0.51808   0.28591   0.94809   0.00000  Uiso   1.00
C445   C     0.50206   0.24897   0.52764   0.00000  Uiso   1.00
C446   C     0.50161   0.24846   0.97297   0.00000  Uiso   1.00
C447   C     0.40129   0.24987   0.73763   0.00000  Uiso   1.00
C448   C     0.59872   0.24998   0.76238   0.00000  Uiso   1.00
C449   C     0.34607   0.24963   0.73079   0.00000  Uiso   1.00
C450   C     0.65395   0.24998   0.76923   0.00000  Uiso   1.00
C451   C     0.45970   0.04805   0.77621   0.00000  Uiso   1.00
C452   C     0.47518   0.45259   0.70435   0.00000  Uiso   1.00
C453   C     0.46323   0.09414   0.77729   0.00000  Uiso   1.00
C454   C     0.47872   0.40653   0.70510   0.00000  Uiso   1.00
C455   C     0.49722   0.11683   0.75051   0.00000  Uiso   1.00
C456   C     0.49729   0.38359   0.74828   0.00000  Uiso   1.00
C457   C     0.52793   0.09340   0.72244   0.00000  Uiso   1.00
C458   C     0.51288   0.40720   0.79073   0.00000  Uiso   1.00
C459   C     0.52565   0.04749   0.72185   0.00000  Uiso   1.00
C460   C     0.51057   0.45309   0.79015   0.00000  Uiso   1.00
C461   C     0.49179   0.02452   0.74844   0.00000  Uiso   1.00
C462   C     0.49181   0.47606   0.74740   0.00000  Uiso   1.00
Cu463  Cu    0.50000   0.24999   0.79822   0.00000  Uiso   1.00
Cu464  Cu    0.50000   0.25000   0.70179   0.00000  Uiso   1.00
H465   H     0.65963   0.24915   0.69386   0.00000  Uiso   1.00
H466   H     0.34044   0.25034   0.80617   0.00000  Uiso   1.00
H467   H     0.55415   0.11065   0.70147   0.00000  Uiso   1.00
H468   H     0.52745   0.39022   0.82430   0.00000  Uiso   1.00
H469   H     0.55035   0.02970   0.70061   0.00000  Uiso   1.00
H470   H     0.52358   0.47088   0.82313   0.00000  Uiso   1.00
H471   H     0.42693   0.21874   0.61454   0.00000  Uiso   1.00
H472   H     0.53320   0.31412   0.87990   0.00000  Uiso   1.00
H473   H     0.42552   0.22046   0.52605   0.00000  Uiso   1.00
H474   H     0.53118   0.31543   0.96777   0.00000  Uiso   1.00
N475   N     0.50000   0.25001   0.62935   0.00000  Uiso   1.00
N476   N     0.50000   0.24999   0.87066   0.00000  Uiso   1.00
O477   O     0.50000   0.18572   0.79072   0.00000  Uiso   1.00
O478   O     0.50000   0.31427   0.70929   0.00000  Uiso   1.00
O479   O     0.50000   0.18573   0.70928   0.00000  Uiso   1.00
O480   O     0.50000   0.31427   0.79072   0.00000  Uiso   1.00
O481   O     0.42495   0.24999   0.78132   0.00000  Uiso   1.00
O482   O     0.57505   0.25000   0.71868   0.00000  Uiso   1.00
O483   O     0.42495   0.25000   0.69989   0.00000  Uiso   1.00
O484   O     0.57505   0.25000   0.80012   0.00000  Uiso   1.00
O485   O     0.42399   0.02782   0.80184   0.00000  Uiso   1.00
H486   H     0.41991   0.49632   0.79290   0.00000  Uiso   1.00
O487   O     0.45473   0.47290   0.66124   0.00000  Uiso   1.00
H488   H     0.44704   0.00422   0.66694   0.00000  Uiso   1.00
F489   F     0.43121   0.11682   0.80239   0.00000  Uiso   1.00
F490   F     0.46209   0.38429   0.66379   0.00000  Uiso   1.00
O491   O     0.58955   0.28044   0.54435   0.00000  Uiso   1.00
H492   H     0.59423   0.26465   0.51435   0.00000  Uiso   1.00
O493   O     0.46933   0.17186   0.96421   0.00000  Uiso   1.00
H494   H     0.48800   0.16867   0.99744   0.00000  Uiso   1.00
F495   F     0.57908   0.28901   0.63861   0.00000  Uiso   1.00
F496   F     0.45897   0.18012   0.86720   0.00000  Uiso   1.00
C497   C     0.83272   0.16502   0.75023   0.00000  Uiso   1.00
C498   C     0.83276   0.33513   0.74953   0.00000  Uiso   1.00
C499   C     0.87745   0.26622   0.55971   0.00000  Uiso   1.00
C500   C     0.81692   0.21151   0.94438   0.00000  Uiso   1.00
C501   C     0.87398   0.26840   0.60974   0.00000  Uiso   1.00
C502   C     0.81415   0.21426   0.89347   0.00000  Uiso   1.00
C503   C     0.79290   0.23261   0.59938   0.00000  Uiso   1.00
C504   C     0.85180   0.28550   0.89752   0.00000  Uiso   1.00
C505   C     0.79253   0.23304   0.54870   0.00000  Uiso   1.00
C506   C     0.85141   0.28591   0.94809   0.00000  Uiso   1.00
C507   C     0.83540   0.24897   0.52764   0.00000  Uiso   1.00
C508   C     0.83494   0.24846   0.97297   0.00000  Uiso   1.00
C509   C     0.73462   0.24987   0.73763   0.00000  Uiso   1.00
C510   C     0.93205   0.24998   0.76238   0.00000  Uiso   1.00
C511   C     0.67940   0.24963   0.73079   0.00000  Uiso   1.00
C512   C     0.98729   0.24998   0.76923   0.00000  Uiso   1.00
C513   C     0.79303   0.04805   0.77621   0.00000  Uiso   1.00
C514   C     0.80851   0.45259   0.70435   0.00000  Uiso   1.00
C515   C     0.79656   0.09414   0.77729   0.00000  Uiso   1.00
C516   C     0.81205   0.40653   0.70510   0.00000  Uiso   1.00
C517   C     0.83055   0.11683   0.75051   0.00000  Uiso   1.00
C518   C     0.83062   0.38359   0.74828   0.00000  Uiso   1.00
C519   C     0.86127   0.09340   0.72244   0.00000  Uiso   1.00
C520   C     0.84621   0.40720   0.79073   0.00000  Uiso   1.00
C521   C     0.85899   0.04749   0.72185   0.00000  Uiso   1.00
C522   C     0.84390   0.45309   0.79015   0.00000  Uiso   1.00
C523   C     0.82513   0.02452   0.74844   0.00000  Uiso   1.00
C524   C     0.82514   0.47606   0.74740   0.00000  Uiso   1.00
Cu525  Cu    0.83333   0.24999   0.79822   0.00000  Uiso   1.00
Cu526  Cu    0.83333   0.25000   0.70179   0.00000  Uiso   1.00
H527   H     0.99297   0.24915   0.69386   0.00000  Uiso   1.00
H528   H     0.67377   0.25034   0.80617   0.00000  Uiso   1.00
H529   H     0.88748   0.11065   0.70147   0.00000  Uiso   1.00
H530   H     0.86078   0.39022   0.82430   0.00000  Uiso   1.00
H531   H     0.88368   0.02970   0.70061   0.00000  Uiso   1.00
H532   H     0.85691   0.47088   0.82313   0.00000  Uiso   1.00
H533   H     0.76027   0.21874   0.61454   0.00000  Uiso   1.00
H534   H     0.86653   0.31412   0.87990   0.00000  Uiso   1.00
H535   H     0.75885   0.22046   0.52605   0.00000  Uiso   1.00
H536   H     0.86451   0.31543   0.96777   0.00000  Uiso   1.00
N537   N     0.83333   0.25001   0.62935   0.00000  Uiso   1.00
N538   N     0.83333   0.24999   0.87066   0.00000  Uiso   1.00
O539   O     0.83334   0.18572   0.79072   0.00000  Uiso   1.00
O540   O     0.83333   0.31427   0.70929   0.00000  Uiso   1.00
O541   O     0.83334   0.18573   0.70928   0.00000  Uiso   1.00
O542   O     0.83333   0.31427   0.79072   0.00000  Uiso   1.00
O543   O     0.75828   0.24999   0.78132   0.00000  Uiso   1.00
O544   O     0.90839   0.25000   0.71868   0.00000  Uiso   1.00
O545   O     0.75828   0.25000   0.69989   0.00000  Uiso   1.00
O546   O     0.90839   0.25000   0.80012   0.00000  Uiso   1.00
O547   O     0.75732   0.02782   0.80184   0.00000  Uiso   1.00
H548   H     0.75324   0.49632   0.79290   0.00000  Uiso   1.00
O549   O     0.78806   0.47290   0.66124   0.00000  Uiso   1.00
H550   H     0.78038   0.00422   0.66694   0.00000  Uiso   1.00
F551   F     0.76454   0.11682   0.80239   0.00000  Uiso   1.00
F552   F     0.79542   0.38429   0.66379   0.00000  Uiso   1.00
O553   O     0.92288   0.28044   0.54435   0.00000  Uiso   1.00
H554   H     0.92756   0.26465   0.51435   0.00000  Uiso   1.00
O555   O     0.80267   0.17186   0.96421   0.00000  Uiso   1.00
H556   H     0.82133   0.16867   0.99744   0.00000  Uiso   1.00
F557   F     0.91241   0.28901   0.63861   0.00000  Uiso   1.00
F558   F     0.79230   0.18012   0.86720   0.00000  Uiso   1.00
C559   C     0.16606   0.66502   0.75023   0.00000  Uiso   1.00
C560   C     0.16609   0.83513   0.74953   0.00000  Uiso   1.00
C561   C     0.21078   0.76622   0.55971   0.00000  Uiso   1.00
C562   C     0.15026   0.71151   0.94438   0.00000  Uiso   1.00
C563   C     0.20731   0.76840   0.60974   0.00000  Uiso   1.00
C564   C     0.14748   0.71426   0.89347   0.00000  Uiso   1.00
C565   C     0.12624   0.73261   0.59938   0.00000  Uiso   1.00
C566   C     0.18514   0.78550   0.89752   0.00000  Uiso   1.00
C567   C     0.12587   0.73304   0.54870   0.00000  Uiso   1.00
C568   C     0.18475   0.78591   0.94809   0.00000  Uiso   1.00
C569   C     0.16873   0.74897   0.52764   0.00000  Uiso   1.00
C570   C     0.16827   0.74846   0.97297   0.00000  Uiso   1.00
C571   C     0.06796   0.74987   0.73763   0.00000  Uiso   1.00
C572   C     0.26538   0.74998   0.76238   0.00000  Uiso   1.00
C573   C     0.01274   0.74963   0.73079   0.00000  Uiso   1.00
C574   C     0.32062   0.74998   0.76923   0.00000  Uiso   1.00
C575   C     0.12637   0.54805   0.77621   0.00000  Uiso   1.00
C576   C     0.14184   0.95259   0.70435   0.00000  Uiso   1.00
C577   C     0.12990   0.59414   0.77729   0.00000  Uiso   1.00
C578   C     0.14539   0.90653   0.70510   0.00000  Uiso   1.00
C579   C     0.16389   0.61683   0.75051   0.00000  Uiso   1.00
C580   C     0.16395   0.88359   0.74828   0.00000  Uiso   1.00
C581   C     0.19460   0.59340   0.72244   0.00000  Uiso   1.00
C582   C     0.17954   0.90720   0.79073   0.00000  Uiso   1.00
C583   C     0.19232   0.54749   0.72185   0.00000  Uiso   1.00
C584   C     0.17723   0.95309   0.79015   0.00000  Uiso   1.00
C585   C     0.15846   0.52452   0.74844   0.00000  Uiso   1.00
C586   C     0.15847   0.97606   0.74740   0.00000  Uiso   1.00
Cu587  Cu    0.16667   0.74999   0.79822   0.00000  Uiso   1.00
Cu588  Cu    0.16667   0.75000   0.70179   0.00000  Uiso   1.00
H589   H     0.32630   0.74915   0.69386   0.00000  Uiso   1.00
H590   H     0.00711   0.75034   0.80617   0.00000  Uiso   1.00
H591   H     0.22082   0.61065   0.70147   0.00000  Uiso   1.00
H592   H     0.19412   0.89022   0.82430   0.00000  Uiso   1.00
H593   H     0.21701   0.52970   0.70061   0.00000  Uiso   1.00
H594   H     0.19024   0.97088   0.82313   0.00000  Uiso   1.00
H595   H     0.09360   0.71874   0.61454   0.00000  Uiso   1.00
H596   H     0.19986   0.81412   0.87990   0.00000  Uiso   1.00
H597   H     0.09218   0.72046   0.52605   0.00000  Uiso   1.00
H598   H     0.19784   0.81543   0.96777   0.00000  Uiso   1.00
N599   N     0.16667   0.75001   0.62935   0.00000  Uiso   1.00
N600   N     0.16667   0.74999   0.87066   0.00000  Uiso   1.00
O601   O     0.16667   0.68572   0.79072   0.00000  Uiso   1.00
O602   O     0.16666   0.81427   0.70929   0.00000  Uiso   1.00
O603   O     0.16667   0.68573   0.70928   0.00000  Uiso   1.00
O604   O     0.16666   0.81427   0.79072   0.00000  Uiso   1.00
O605   O     0.09161   0.74999   0.78132   0.00000  Uiso   1.00
O606   O     0.24172   0.75000   0.71868   0.00000  Uiso   1.00
O607   O     0.09161   0.75000   0.69989   0.00000  Uiso   1.00
O608   O     0.24172   0.75000   0.80012   0.00000  Uiso   1.00
O609   O     0.09066   0.52782   0.80184   0.00000  Uiso   1.00
H610   H     0.08657   0.99632   0.79290   0.00000  Uiso   1.00
O611   O     0.12140   0.97290   0.66124   0.00000  Uiso   1.00
H612   H     0.11371   0.50422   0.66694   0.00000  Uiso   1.00
F613   F     0.09787   0.61682   0.80239   0.00000  Uiso   1.00
F614   F     0.12876   0.88429   0.66379   0.00000  Uiso   1.00
O615   O     0.25622   0.78044   0.54435   0.00000  Uiso   1.00
H616   H     0.26089   0.76465   0.51435   0.00000  Uiso   1.00
O617   O     0.13600   0.67186   0.96421   0.00000  Uiso   1.00
H618   H     0.15466   0.66867   0.99744   0.00000  Uiso   1.00
F619   F     0.24575   0.78901   0.63861   0.00000  Uiso   1.00
F620   F     0.12564   0.68012   0.86720   0.00000  Uiso   1.00
C621   C     0.49939   0.66502   0.75023   0.00000  Uiso   1.00
C622   C     0.49943   0.83513   0.74953   0.00000  Uiso   1.00
C623   C     0.54411   0.76622   0.55971   0.00000  Uiso   1.00
C624   C     0.48359   0.71151   0.94438   0.00000  Uiso   1.00
C625   C     0.54065   0.76840   0.60974   0.00000  Uiso   1.00
C626   C     0.48081   0.71426   0.89347   0.00000  Uiso   1.00
C627   C     0.45957   0.73261   0.59938   0.00000  Uiso   1.00
C628   C     0.51847   0.78550   0.89752   0.00000  Uiso   1.00
C629   C     0.45920   0.73304   0.54870   0.00000  Uiso   1.00
C630   C     0.51808   0.78591   0.94809   0.00000  Uiso   1.00
C631   C     0.50206   0.74897   0.52764   0.00000  Uiso   1.00
C632   C     0.50161   0.74846   0.97297   0.00000  Uiso   1.00
C633   C     0.40129   0.74987   0.73763   0.00000  Uiso   1.00
C634   C     0.59872   0.74998   0.76238   0.00000  Uiso   1.00
C635   C     0.34607   0.74963   0.73079   0.00000  Uiso   1.00
C636   C     0.65395   0.74998   0.76923   0.00000  Uiso   1.00
C637   C     0.45970   0.54805   0.77621   0.00000  Uiso   1.00
C638   C     0.47518   0.95259   0.70435   0.00000  Uiso   1.00
C639   C     0.46323   0.59414   0.77729   0.00000  Uiso   1.00
C640   C     0.47872   0.90653   0.70510   0.00000  Uiso   1.00
C641   C     0.49722   0.61683   0.75051   0.00000  Uiso   1.00
C642   C     0.49729   0.88359   0.74828   0.00000  Uiso   1.00
C643   C     0.52793   0.59340   0.72244   0.00000  Uiso   1.00
C644   C     0.51288   0.90720   0.79073   0.00000  Uiso   1.00
C645   C     0.52565   0.54749   0.72185   0.00000  Uiso   1.00
C646   C     0.51057   0.95309   0.79015   0.00000  Uiso   1.00
C647   C     0.49179   0.52452   0.74844   0.00000  Uiso   1.00
C648   C     0.49181   0.97606   0.74740   0.00000  Uiso   1.00
Cu649  Cu    0.50000   0.74999   0.79822   0.00000  Uiso   1.00
Cu650  Cu    0.50000   0.75000   0.70179   0.00000  Uiso   1.00
H651   H     0.65963   0.74915   0.69386   0.00000  Uiso   1.00
H652   H     0.34044   0.75034   0.80617   0.00000  Uiso   1.00
H653   H     0.55415   0.61065   0.70147   0.00000  Uiso   1.00
H654   H     0.52745   0.89022   0.82430   0.00000  Uiso   1.00
H655   H     0.55035   0.52970   0.70061   0.00000  Uiso   1.00
H656   H     0.52358   0.97088   0.82313   0.00000  Uiso   1.00
H657   H     0.42693   0.71874   0.61454   0.00000  Uiso   1.00
H658   H     0.53320   0.81412   0.87990   0.00000  Uiso   1.00
H659   H     0.42552   0.72046   0.52605   0.00000  Uiso   1.00
H660   H     0.53118   0.81543   0.96777   0.00000  Uiso   1.00
N661   N     0.50000   0.75001   0.62935   0.00000  Uiso   1.00
N662   N     0.50000   0.74999   0.87066   0.00000  Uiso   1.00
O663   O     0.50000   0.68572   0.79072   0.00000  Uiso   1.00
O664   O     0.50000   0.81427   0.70929   0.00000  Uiso   1.00
O665   O     0.50000   0.68573   0.70928   0.00000  Uiso   1.00
O666   O     0.50000   0.81427   0.79072   0.00000  Uiso   1.00
O667   O     0.42495   0.74999   0.78132   0.00000  Uiso   1.00
O668   O     0.57505   0.75000   0.71868   0.00000  Uiso   1.00
O669   O     0.42495   0.75000   0.69989   0.00000  Uiso   1.00
O670   O     0.57505   0.75000   0.80012   0.00000  Uiso   1.00
O671   O     0.42399   0.52782   0.80184   0.00000  Uiso   1.00
H672   H     0.41991   0.99632   0.79290   0.00000  Uiso   1.00
O673   O     0.45473   0.97290   0.66124   0.00000  Uiso   1.00
H674   H     0.44704   0.50422   0.66694   0.00000  Uiso   1.00
F675   F     0.43121   0.61682   0.80239   0.00000  Uiso   1.00
F676   F     0.46209   0.88429   0.66379   0.00000  Uiso   1.00
O677   O     0.58955   0.78044   0.54435   0.00000  Uiso   1.00
H678   H     0.59423   0.76465   0.51435   0.00000  Uiso   1.00
O679   O     0.46933   0.67186   0.96421   0.00000  Uiso   1.00
H680   H     0.48800   0.66867   0.99744   0.00000  Uiso   1.00
F681   F     0.57908   0.78901   0.63861   0.00000  Uiso   1.00
F682   F     0.45897   0.68012   0.86720   0.00000  Uiso   1.00
C683   C     0.83272   0.66502   0.75023   0.00000  Uiso   1.00
C684   C     0.83276   0.83513   0.74953   0.00000  Uiso   1.00
C685   C     0.87745   0.76622   0.55971   0.00000  Uiso   1.00
C686   C     0.81692   0.71151   0.94438   0.00000  Uiso   1.00
C687   C     0.87398   0.76840   0.60974   0.00000  Uiso   1.00
C688   C     0.81415   0.71426   0.89347   0.00000  Uiso   1.00
C689   C     0.79290   0.73261   0.59938   0.00000  Uiso   1.00
C690   C     0.85180   0.78550   0.89752   0.00000  Uiso   1.00
C691   C     0.79253   0.73304   0.54870   0.00000  Uiso   1.00
C692   C     0.85141   0.78591   0.94809   0.00000  Uiso   1.00
C693   C     0.83540   0.74897   0.52764   0.00000  Uiso   1.00
C694   C     0.83494   0.74846   0.97297   0.00000  Uiso   1.00
C695   C     0.73462   0.74987   0.73763   0.00000  Uiso   1.00
C696   C     0.93205   0.74998   0.76238   0.00000  Uiso   1.00
C697   C     0.67940   0.74963   0.73079   0.00000  Uiso   1.00
C698   C     0.98729   0.74998   0.76923   0.00000  Uiso   1.00
C699   C     0.79303   0.54805   0.77621   0.00000  Uiso   1.00
C700   C     0.80851   0.95259   0.70435   0.00000  Uiso   1.00
C701   C     0.79656   0.59414   0.77729   0.00000  Uiso   1.00
C702   C     0.81205   0.90653   0.70510   0.00000  Uiso   1.00
C703   C     0.83055   0.61683   0.75051   0.00000  Uiso   1.00
C704   C     0.83062   0.88359   0.74828   0.00000  Uiso   1.00
C705   C     0.86127   0.59340   0.72244   0.00000  Uiso   1.00
C706   C     0.84621   0.90720   0.79073   0.00000  Uiso   1.00
C707   C     0.85899   0.54749   0.72185   0.00000  Uiso   1.00
C708   C     0.84390   0.95309   0.79015   0.00000  Uiso   1.00
C709   C     0.82513   0.52452   0.74844   0.00000  Uiso   1.00
C710   C     0.82514   0.97606   0.74740   0.00000  Uiso   1.00
Cu711  Cu    0.83333   0.74999   0.79822   0.00000  Uiso   1.00
Cu712  Cu    0.83333   0.75000   0.70179   0.00000  Uiso   1.00
H713   H     0.99297   0.74915   0.69386   0.00000  Uiso   1.00
H714   H     0.67377   0.75034   0.80617   0.00000  Uiso   1.00
H715   H     0.88748   0.61065   0.70147   0.00000  Uiso   1.00
H716   H     0.86078   0.89022   0.82430   0.00000  Uiso   1.00
H717   H     0.88368   0.52970   0.70061   0.00000  Uiso   1.00
H718   H     0.85691   0.97088   0.82313   0.00000  Uiso   1.00
H719   H     0.76027   0.71874   0.61454   0.00000  Uiso   1.00
H720   H     0.86653   0.81412   0.87990   0.00000  Uiso   1.00
H721   H     0.75885   0.72046   0.52605   0.00000  Uiso   1.00
H722   H     0.86451   0.81543   0.96777   0.00000  Uiso   1.00
N723   N     0.83333   0.75001   0.62935   0.00000  Uiso   1.00
N724   N     0.83333   0.74999   0.87066   0.00000  Uiso   1.00
O725   O     0.83334   0.68572   0.79072   0.00000  Uiso   1.00
O726   O     0.83333   0.81427   0.70929   0.00000  Uiso   1.00
O727   O     0.83334   0.68573   0.70928   0.00000  Uiso   1.00
O728   O     0.83333   0.81427   0.79072   0.00000  Uiso   1.00
O729   O     0.75828   0.74999   0.78132   0.00000  Uiso   1.00
O730   O     0.90839   0.75000   0.71868   0.00000  Uiso   1.00
O731   O     0.75828   0.75000   0.69989   0.00000  Uiso   1.00
O732   O     0.90839   0.75000   0.80012   0.00000  Uiso   1.00
O733   O     0.75732   0.52782   0.80184   0.00000  Uiso   1.00
H734   H     0.75324   0.99632   0.79290   0.00000  Uiso   1.00
O735   O     0.78806   0.97290   0.66124   0.00000  Uiso   1.00
H736   H     0.78038   0.50422   0.66694   0.00000  Uiso   1.00
F737   F     0.76454   0.61682   0.80239   0.00000  Uiso   1.00
F738   F     0.79542   0.88429   0.66379   0.00000  Uiso   1.00
O739   O     0.92288   0.78044   0.54435   0.00000  Uiso   1.00
H740   H     0.92756   0.76465   0.51435   0.00000  Uiso   1.00
O741   O     0.80267   0.67186   0.96421   0.00000  Uiso   1.00
H742   H     0.82133   0.66867   0.99744   0.00000  Uiso   1.00
F743   F     0.91241   0.78901   0.63861   0.00000  Uiso   1.00
F744   F     0.79230   0.68012   0.86720   0.00000  Uiso   1.00
loop_
_geom_bond_atom_site_label_1
_geom_bond_atom_site_label_2
_geom_bond_distance
_geom_bond_site_symmetry_2
_ccdc_geom_bond_type
C1     C21     1.456   .     S
C1     O45     1.293   .     A
C1     O43     1.295   .     A
C2     C22     1.465   .     S
C2     O46     1.297   .     A
C2     O44     1.295   .     A
C3     O57     1.380   .     S
C3     C5      1.409   .     A
C3     C11     1.422   .     A
C4     O59     1.380   .     S
C4     C6      1.409   .     A
C4     C12     1.421   .     A
C5     F61     1.354   .     S
C5     N41     1.369   .     A
C6     F62     1.351   .     S
C6     N42     1.369   .     A
C7     H37     1.081   .     S
C7     N41     1.364   .     A
C7     C9      1.408   .     A
C8     H38     1.081   .     S
C8     N42     1.365   .     A
C8     C10     1.408   .     A
C9     C11     1.412   .     A
C9     H39     1.083   .     S
C10    C12     1.411   .     A
C10    H40     1.083   .     S
C11    C384    1.519   1_554 S
C12    C383    1.519   .     S
C13    C15     1.433   .     S
C13    O49     1.288   .     A
C13    O47     1.288   .     A
C14    O50     1.288   .     A
C14    C16     1.434   .     S
C14    O48     1.288   .     A
C15    C140    1.333   1_455 S
C15    H155    1.087   1_455 S
C16    C77     1.333   .     S
C16    H94     1.087   .     S
C17    O51     1.382   .     S
C17    C27     1.418   .     A
C17    C19     1.395   .     A
C18    C28     1.417   .     A
C18    C20     1.395   .     A
C18    O53     1.383   .     S
C19    C21     1.403   .     A
C19    F55     1.357   .     S
C20    F56     1.359   .     S
C20    C22     1.408   .     A
C21    C23     1.398   .     A
C22    C24     1.401   .     A
C23    C25     1.388   .     A
C23    H33     1.084   .     S
C24    C26     1.388   .     A
C24    H34     1.083   .     S
C25    C27     1.401   .     A
C25    H35     1.084   .     S
C26    C28     1.400   .     A
C26    H36     1.084   .     S
C27    C214    1.465   1_545 S
C28    C213    1.465   .     S
Cu29   Cu30    2.681   .     S
Cu29   N42     2.014   .     S
Cu29   O46     1.950   .     S
Cu29   O43     1.956   .     S
Cu29   O47     1.959   .     S
Cu29   O50     1.959   .     S
Cu30   N41     2.014   .     S
Cu30   O45     1.950   .     S
Cu30   O44     1.956   .     S
Cu30   O48     1.959   .     S
Cu30   O49     1.959   .     S
H31    C77     1.087   .     S
H32    C140    1.087   1_455 S
O51    H238    0.989   1_545 S
H52    O237    0.989   .     S
O53    H240    0.989   .     S
H54    O239    0.989   1_545 S
O57    H58     0.990   .     S
O59    H60     0.990   .     S
C63    C83     1.456   .     S
C63    O107    1.293   .     A
C63    O105    1.295   .     A
C64    C84     1.465   .     S
C64    O108    1.297   .     A
C64    O106    1.295   .     A
C65    O119    1.380   .     S
C65    C67     1.409   .     A
C65    C73     1.422   .     A
C66    O121    1.380   .     S
C66    C68     1.409   .     A
C66    C74     1.421   .     A
C67    F123    1.354   .     S
C67    N103    1.369   .     A
C68    F124    1.351   .     S
C68    N104    1.369   .     A
C69    H99     1.081   .     S
C69    N103    1.364   .     A
C69    C71     1.408   .     A
C70    H100    1.081   .     S
C70    N104    1.365   .     A
C70    C72     1.408   .     A
C71    C73     1.412   .     A
C71    H101    1.083   .     S
C72    C74     1.411   .     A
C72    H102    1.083   .     S
C73    C446    1.519   1_554 S
C74    C445    1.519   .     S
C75    C77     1.433   .     S
C75    O111    1.288   .     A
C75    O109    1.288   .     A
C76    O112    1.288   .     A
C76    C78     1.434   .     S
C76    O110    1.288   .     A
C78    C139    1.333   .     S
C78    H156    1.087   .     S
C79    O113    1.382   .     S
C79    C89     1.418   .     A
C79    C81     1.395   .     A
C80    C90     1.417   .     A
C80    C82     1.395   .     A
C80    O115    1.383   .     S
C81    C83     1.403   .     A
C81    F117    1.357   .     S
C82    F118    1.359   .     S
C82    C84     1.408   .     A
C83    C85     1.398   .     A
C84    C86     1.401   .     A
C85    C87     1.388   .     A
C85    H95     1.084   .     S
C86    C88     1.388   .     A
C86    H96     1.083   .     S
C87    C89     1.401   .     A
C87    H97     1.084   .     S
C88    C90     1.400   .     A
C88    H98     1.084   .     S
C89    C276    1.465   1_545 S
C90    C275    1.465   .     S
Cu91   Cu92    2.681   .     S
Cu91   N104    2.014   .     S
Cu91   O108    1.950   .     S
Cu91   O105    1.956   .     S
Cu91   O109    1.959   .     S
Cu91   O112    1.959   .     S
Cu92   N103    2.014   .     S
Cu92   O107    1.950   .     S
Cu92   O106    1.956   .     S
Cu92   O110    1.959   .     S
Cu92   O111    1.959   .     S
H93    C139    1.087   .     S
O113   H300    0.989   1_545 S
H114   O299    0.989   .     S
O115   H302    0.989   .     S
H116   O301    0.989   1_545 S
O119   H120    0.990   .     S
O121   H122    0.990   .     S
C125   C145    1.456   .     S
C125   O169    1.293   .     A
C125   O167    1.295   .     A
C126   C146    1.465   .     S
C126   O170    1.297   .     A
C126   O168    1.295   .     A
C127   O181    1.380   .     S
C127   C129    1.409   .     A
C127   C135    1.422   .     A
C128   O183    1.380   .     S
C128   C130    1.409   .     A
C128   C136    1.421   .     A
C129   F185    1.354   .     S
C129   N165    1.369   .     A
C130   F186    1.351   .     S
C130   N166    1.369   .     A
C131   H161    1.081   .     S
C131   N165    1.364   .     A
C131   C133    1.408   .     A
C132   H162    1.081   .     S
C132   N166    1.365   .     A
C132   C134    1.408   .     A
C133   C135    1.412   .     A
C133   H163    1.083   .     S
C134   C136    1.411   .     A
C134   H164    1.083   .     S
C135   C508    1.519   1_554 S
C136   C507    1.519   .     S
C137   C139    1.433   .     S
C137   O173    1.288   .     A
C137   O171    1.288   .     A
C138   O174    1.288   .     A
C138   C140    1.434   .     S
C138   O172    1.288   .     A
C140   C15     1.333   1_655 S
C140   H32     1.087   1_655 S
C141   O175    1.382   .     S
C141   C151    1.418   .     A
C141   C143    1.395   .     A
C142   C152    1.417   .     A
C142   C144    1.395   .     A
C142   O177    1.383   .     S
C143   C145    1.403   .     A
C143   F179    1.357   .     S
C144   F180    1.359   .     S
C144   C146    1.408   .     A
C145   C147    1.398   .     A
C146   C148    1.401   .     A
C147   C149    1.388   .     A
C147   H157    1.084   .     S
C148   C150    1.388   .     A
C148   H158    1.083   .     S
C149   C151    1.401   .     A
C149   H159    1.084   .     S
C150   C152    1.400   .     A
C150   H160    1.084   .     S
C151   C338    1.465   1_545 S
C152   C337    1.465   .     S
Cu153  Cu154   2.681   .     S
Cu153  N166    2.014   .     S
Cu153  O170    1.950   .     S
Cu153  O167    1.956   .     S
Cu153  O171    1.959   .     S
Cu153  O174    1.959   .     S
Cu154  N165    2.014   .     S
Cu154  O169    1.950   .     S
Cu154  O168    1.956   .     S
Cu154  O172    1.959   .     S
Cu154  O173    1.959   .     S
H155   C15     1.087   1_655 S
O175   H362    0.989   1_545 S
H176   O361    0.989   .     S
O177   H364    0.989   .     S
H178   O363    0.989   1_545 S
O181   H182    0.990   .     S
O183   H184    0.990   .     S
C187   C207    1.456   .     S
C187   O231    1.293   .     A
C187   O229    1.295   .     A
C188   C208    1.465   .     S
C188   O232    1.297   .     A
C188   O230    1.295   .     A
C189   O243    1.380   .     S
C189   C191    1.409   .     A
C189   C197    1.422   .     A
C190   O245    1.380   .     S
C190   C192    1.409   .     A
C190   C198    1.421   .     A
C191   F247    1.354   .     S
C191   N227    1.369   .     A
C192   F248    1.351   .     S
C192   N228    1.369   .     A
C193   H223    1.081   .     S
C193   N227    1.364   .     A
C193   C195    1.408   .     A
C194   H224    1.081   .     S
C194   N228    1.365   .     A
C194   C196    1.408   .     A
C195   C197    1.412   .     A
C195   H225    1.083   .     S
C196   C198    1.411   .     A
C196   H226    1.083   .     S
C197   C570    1.519   1_554 S
C198   C569    1.519   .     S
C199   C201    1.433   .     S
C199   O235    1.288   .     A
C199   O233    1.288   .     A
C200   O236    1.288   .     A
C200   C202    1.434   .     S
C200   O234    1.288   .     A
C201   C326    1.333   1_455 S
C201   H341    1.087   1_455 S
C202   C263    1.333   .     S
C202   H280    1.087   .     S
C203   O237    1.382   .     S
C203   C213    1.418   .     A
C203   C205    1.395   .     A
C204   C214    1.417   .     A
C204   C206    1.395   .     A
C204   O239    1.383   .     S
C205   C207    1.403   .     A
C205   F241    1.357   .     S
C206   F242    1.359   .     S
C206   C208    1.408   .     A
C207   C209    1.398   .     A
C208   C210    1.401   .     A
C209   C211    1.388   .     A
C209   H219    1.084   .     S
C210   C212    1.388   .     A
C210   H220    1.083   .     S
C211   C213    1.401   .     A
C211   H221    1.084   .     S
C212   C214    1.400   .     A
C212   H222    1.084   .     S
C214   C27     1.465   1_565 S
Cu215  Cu216   2.681   .     S
Cu215  N228    2.014   .     S
Cu215  O232    1.950   .     S
Cu215  O229    1.956   .     S
Cu215  O233    1.959   .     S
Cu215  O236    1.959   .     S
Cu216  N227    2.014   .     S
Cu216  O231    1.950   .     S
Cu216  O230    1.956   .     S
Cu216  O234    1.959   .     S
Cu216  O235    1.959   .     S
H217   C263    1.087   .     S
H218   C326    1.087   1_455 S
H238   O51     0.989   1_565 S
O239   H54     0.989   1_565 S
O243   H244    0.990   .     S
O245   H246    0.990   .     S
C249   C269    1.456   .     S
C249   O293    1.293   .     A
C249   O291    1.295   .     A
C250   C270    1.465   .     S
C250   O294    1.297   .     A
C250   O292    1.295   .     A
C251   O305    1.380   .     S
C251   C253    1.409   .     A
C251   C259    1.422   .     A
C252   O307    1.380   .     S
C252   C254    1.409   .     A
C252   C260    1.421   .     A
C253   F309    1.354   .     S
C253   N289    1.369   .     A
C254   F310    1.351   .     S
C254   N290    1.369   .     A
C255   H285    1.081   .     S
C255   N289    1.364   .     A
C255   C257    1.408   .     A
C256   H286    1.081   .     S
C256   N290    1.365   .     A
C256   C258    1.408   .     A
C257   C259    1.412   .     A
C257   H287    1.083   .     S
C258   C260    1.411   .     A
C258   H288    1.083   .     S
C259   C632    1.519   1_554 S
C260   C631    1.519   .     S
C261   C263    1.433   .     S
C261   O297    1.288   .     A
C261   O295    1.288   .     A
C262   O298    1.288   .     A
C262   C264    1.434   .     S
C262   O296    1.288   .     A
C264   C325    1.333   .     S
C264   H342    1.087   .     S
C265   O299    1.382   .     S
C265   C275    1.418   .     A
C265   C267    1.395   .     A
C266   C276    1.417   .     A
C266   C268    1.395   .     A
C266   O301    1.383   .     S
C267   C269    1.403   .     A
C267   F303    1.357   .     S
C268   F304    1.359   .     S
C268   C270    1.408   .     A
C269   C271    1.398   .     A
C270   C272    1.401   .     A
C271   C273    1.388   .     A
C271   H281    1.084   .     S
C272   C274    1.388   .     A
C272   H282    1.083   .     S
C273   C275    1.401   .     A
C273   H283    1.084   .     S
C274   C276    1.400   .     A
C274   H284    1.084   .     S
C276   C89     1.465   1_565 S
Cu277  Cu278   2.681   .     S
Cu277  N290    2.014   .     S
Cu277  O294    1.950   .     S
Cu277  O291    1.956   .     S
Cu277  O295    1.959   .     S
Cu277  O298    1.959   .     S
Cu278  N289    2.014   .     S
Cu278  O293    1.950   .     S
Cu278  O292    1.956   .     S
Cu278  O296    1.959   .     S
Cu278  O297    1.959   .     S
H279   C325    1.087   .     S
H300   O113    0.989   1_565 S
O301   H116    0.989   1_565 S
O305   H306    0.990   .     S
O307   H308    0.990   .     S
C311   C331    1.456   .     S
C311   O355    1.293   .     A
C311   O353    1.295   .     A
C312   C332    1.465   .     S
C312   O356    1.297   .     A
C312   O354    1.295   .     A
C313   O367    1.380   .     S
C313   C315    1.409   .     A
C313   C321    1.422   .     A
C314   O369    1.380   .     S
C314   C316    1.409   .     A
C314   C322    1.421   .     A
C315   F371    1.354   .     S
C315   N351    1.369   .     A
C316   F372    1.351   .     S
C316   N352    1.369   .     A
C317   H347    1.081   .     S
C317   N351    1.364   .     A
C317   C319    1.408   .     A
C318   H348    1.081   .     S
C318   N352    1.365   .     A
C318   C320    1.408   .     A
C319   C321    1.412   .     A
C319   H349    1.083   .     S
C320   C322    1.411   .     A
C320   H350    1.083   .     S
C321   C694    1.519   1_554 S
C322   C693    1.519   .     S
C323   C325    1.433   .     S
C323   O359    1.288   .     A
C323   O357    1.288   .     A
C324   O360    1.288   .     A
C324   C326    1.434   .     S
C324   O358    1.288   .     A
C326   C201    1.333   1_655 S
C326   H218    1.087   1_655 S
C327   O361    1.382   .     S
C327   C337    1.418   .     A
C327   C329    1.395   .     A
C328   C338    1.417   .     A
C328   C330    1.395   .     A
C328   O363    1.383   .     S
C329   C331    1.403   .     A
C329   F365    1.357   .     S
C330   F366    1.359   .     S
C330   C332    1.408   .     A
C331   C333    1.398   .     A
C332   C334    1.401   .     A
C333   C335    1.388   .     A
C333   H343    1.084   .     S
C334   C336    1.388   .     A
C334   H344    1.083   .     S
C335   C337    1.401   .     A
C335   H345    1.084   .     S
C336   C338    1.400   .     A
C336   H346    1.084   .     S
C338   C151    1.465   1_565 S
Cu339  Cu340   2.681   .     S
Cu339  N352    2.014   .     S
Cu339  O356    1.950   .     S
Cu339  O353    1.956   .     S
Cu339  O357    1.959   .     S
Cu339  O360    1.959   .     S
Cu340  N351    2.014   .     S
Cu340  O355    1.950   .     S
Cu340  O354    1.956   .     S
Cu340  O358    1.959   .     S
Cu340  O359    1.959   .     S
H341   C201    1.087   1_655 S
H362   O175    0.989   1_565 S
O363   H178    0.989   1_565 S
O367   H368    0.990   .     S
O369   H370    0.990   .     S
C373   C393    1.456   .     S
C373   O417    1.293   .     A
C373   O415    1.295   .     A
C374   C394    1.465   .     S
C374   O418    1.297   .     A
C374   O416    1.295   .     A
C375   O429    1.380   .     S
C375   C377    1.409   .     A
C375   C383    1.422   .     A
C376   O431    1.380   .     S
C376   C378    1.409   .     A
C376   C384    1.421   .     A
C377   F433    1.354   .     S
C377   N413    1.369   .     A
C378   F434    1.351   .     S
C378   N414    1.369   .     A
C379   H409    1.081   .     S
C379   N413    1.364   .     A
C379   C381    1.408   .     A
C380   H410    1.081   .     S
C380   N414    1.365   .     A
C380   C382    1.408   .     A
C381   C383    1.412   .     A
C381   H411    1.083   .     S
C382   C384    1.411   .     A
C382   H412    1.083   .     S
C384   C11     1.519   1_556 S
C385   C387    1.433   .     S
C385   O421    1.288   .     A
C385   O419    1.288   .     A
C386   O422    1.288   .     A
C386   C388    1.434   .     S
C386   O420    1.288   .     A
C387   C512    1.333   1_455 S
C387   H527    1.087   1_455 S
C388   C449    1.333   .     S
C388   H466    1.087   .     S
C389   O423    1.382   .     S
C389   C399    1.418   .     A
C389   C391    1.395   .     A
C390   C400    1.417   .     A
C390   C392    1.395   .     A
C390   O425    1.383   .     S
C391   C393    1.403   .     A
C391   F427    1.357   .     S
C392   F428    1.359   .     S
C392   C394    1.408   .     A
C393   C395    1.398   .     A
C394   C396    1.401   .     A
C395   C397    1.388   .     A
C395   H405    1.084   .     S
C396   C398    1.388   .     A
C396   H406    1.083   .     S
C397   C399    1.401   .     A
C397   H407    1.084   .     S
C398   C400    1.400   .     A
C398   H408    1.084   .     S
C399   C586    1.465   1_545 S
C400   C585    1.465   .     S
Cu401  Cu402   2.681   .     S
Cu401  N414    2.014   .     S
Cu401  O418    1.950   .     S
Cu401  O415    1.956   .     S
Cu401  O419    1.959   .     S
Cu401  O422    1.959   .     S
Cu402  N413    2.014   .     S
Cu402  O417    1.950   .     S
Cu402  O416    1.956   .     S
Cu402  O420    1.959   .     S
Cu402  O421    1.959   .     S
H403   C449    1.087   .     S
H404   C512    1.087   1_455 S
O423   H610    0.989   1_545 S
H424   O609    0.989   .     S
O425   H612    0.989   .     S
H426   O611    0.989   1_545 S
O429   H430    0.990   .     S
O431   H432    0.990   .     S
C435   C455    1.456   .     S
C435   O479    1.293   .     A
C435   O477    1.295   .     A
C436   C456    1.465   .     S
C436   O480    1.297   .     A
C436   O478    1.295   .     A
C437   O491    1.380   .     S
C437   C439    1.409   .     A
C437   C445    1.422   .     A
C438   O493    1.380   .     S
C438   C440    1.409   .     A
C438   C446    1.421   .     A
C439   F495    1.354   .     S
C439   N475    1.369   .     A
C440   F496    1.351   .     S
C440   N476    1.369   .     A
C441   H471    1.081   .     S
C441   N475    1.364   .     A
C441   C443    1.408   .     A
C442   H472    1.081   .     S
C442   N476    1.365   .     A
C442   C444    1.408   .     A
C443   C445    1.412   .     A
C443   H473    1.083   .     S
C444   C446    1.411   .     A
C444   H474    1.083   .     S
C446   C73     1.519   1_556 S
C447   C449    1.433   .     S
C447   O483    1.288   .     A
C447   O481    1.288   .     A
C448   O484    1.288   .     A
C448   C450    1.434   .     S
C448   O482    1.288   .     A
C450   C511    1.333   .     S
C450   H528    1.087   .     S
C451   O485    1.382   .     S
C451   C461    1.418   .     A
C451   C453    1.395   .     A
C452   C462    1.417   .     A
C452   C454    1.395   .     A
C452   O487    1.383   .     S
C453   C455    1.403   .     A
C453   F489    1.357   .     S
C454   F490    1.359   .     S
C454   C456    1.408   .     A
C455   C457    1.398   .     A
C456   C458    1.401   .     A
C457   C459    1.388   .     A
C457   H467    1.084   .     S
C458   C460    1.388   .     A
C458   H468    1.083   .     S
C459   C461    1.401   .     A
C459   H469    1.084   .     S
C460   C462    1.400   .     A
C460   H470    1.084   .     S
C461   C648    1.465   1_545 S
C462   C647    1.465   .     S
Cu463  Cu464   2.681   .     S
Cu463  N476    2.014   .     S
Cu463  O480    1.950   .     S
Cu463  O477    1.956   .     S
Cu463  O481    1.959   .     S
Cu463  O484    1.959   .     S
Cu464  N475    2.014   .     S
Cu464  O479    1.950   .     S
Cu464  O478    1.956   .     S
Cu464  O482    1.959   .     S
Cu464  O483    1.959   .     S
H465   C511    1.087   .     S
O485   H672    0.989   1_545 S
H486   O671    0.989   .     S
O487   H674    0.989   .     S
H488   O673    0.989   1_545 S
O491   H492    0.990   .     S
O493   H494    0.990   .     S
C497   C517    1.456   .     S
C497   O541    1.293   .     A
C497   O539    1.295   .     A
C498   C518    1.465   .     S
C498   O542    1.297   .     A
C498   O540    1.295   .     A
C499   O553    1.380   .     S
C499   C501    1.409   .     A
C499   C507    1.422   .     A
C500   O555    1.380   .     S
C500   C502    1.409   .     A
C500   C508    1.421   .     A
C501   F557    1.354   .     S
C501   N537    1.369   .     A
C502   F558    1.351   .     S
C502   N538    1.369   .     A
C503   H533    1.081   .     S
C503   N537    1.364   .     A
C503   C505    1.408   .     A
C504   H534    1.081   .     S
C504   N538    1.365   .     A
C504   C506    1.408   .     A
C505   C507    1.412   .     A
C505   H535    1.083   .     S
C506   C508    1.411   .     A
C506   H536    1.083   .     S
C508   C135    1.519   1_556 S
C509   C511    1.433   .     S
C509   O545    1.288   .     A
C509   O543    1.288   .     A
C510   O546    1.288   .     A
C510   C512    1.434   .     S
C510   O544    1.288   .     A
C512   C387    1.333   1_655 S
C512   H404    1.087   1_655 S
C513   O547    1.382   .     S
C513   C523    1.418   .     A
C513   C515    1.395   .     A
C514   C524    1.417   .     A
C514   C516    1.395   .     A
C514   O549    1.383   .     S
C515   C517    1.403   .     A
C515   F551    1.357   .     S
C516   F552    1.359   .     S
C516   C518    1.408   .     A
C517   C519    1.398   .     A
C518   C520    1.401   .     A
C519   C521    1.388   .     A
C519   H529    1.084   .     S
C520   C522    1.388   .     A
C520   H530    1.083   .     S
C521   C523    1.401   .     A
C521   H531    1.084   .     S
C522   C524    1.400   .     A
C522   H532    1.084   .     S
C523   C710    1.465   1_545 S
C524   C709    1.465   .     S
Cu525  Cu526   2.681   .     S
Cu525  N538    2.014   .     S
Cu525  O542    1.950   .     S
Cu525  O539    1.956   .     S
Cu525  O543    1.959   .     S
Cu525  O546    1.959   .     S
Cu526  N537    2.014   .     S
Cu526  O541    1.950   .     S
Cu526  O540    1.956   .     S
Cu526  O544    1.959   .     S
Cu526  O545    1.959   .     S
H527   C387    1.087   1_655 S
O547   H734    0.989   1_545 S
H548   O733    0.989   .     S
O549   H736    0.989   .     S
H550   O735    0.989   1_545 S
O553   H554    0.990   .     S
O555   H556    0.990   .     S
C559   C579    1.456   .     S
C559   O603    1.293   .     A
C559   O601    1.295   .     A
C560   C580    1.465   .     S
C560   O604    1.297   .     A
C560   O602    1.295   .     A
C561   O615    1.380   .     S
C561   C563    1.409   .     A
C561   C569    1.422   .     A
C562   O617    1.380   .     S
C562   C564    1.409   .     A
C562   C570    1.421   .     A
C563   F619    1.354   .     S
C563   N599    1.369   .     A
C564   F620    1.351   .     S
C564   N600    1.369   .     A
C565   H595    1.081   .     S
C565   N599    1.364   .     A
C565   C567    1.408   .     A
C566   H596    1.081   .     S
C566   N600    1.365   .     A
C566   C568    1.408   .     A
C567   C569    1.412   .     A
C567   H597    1.083   .     S
C568   C570    1.411   .     A
C568   H598    1.083   .     S
C570   C197    1.519   1_556 S
C571   C573    1.433   .     S
C571   O607    1.288   .     A
C571   O605    1.288   .     A
C572   O608    1.288   .     A
C572   C574    1.434   .     S
C572   O606    1.288   .     A
C573   C698    1.333   1_455 S
C573   H713    1.087   1_455 S
C574   C635    1.333   .     S
C574   H652    1.087   .     S
C575   O609    1.382   .     S
C575   C585    1.418   .     A
C575   C577    1.395   .     A
C576   C586    1.417   .     A
C576   C578    1.395   .     A
C576   O611    1.383   .     S
C577   C579    1.403   .     A
C577   F613    1.357   .     S
C578   F614    1.359   .     S
C578   C580    1.408   .     A
C579   C581    1.398   .     A
C580   C582    1.401   .     A
C581   C583    1.388   .     A
C581   H591    1.084   .     S
C582   C584    1.388   .     A
C582   H592    1.083   .     S
C583   C585    1.401   .     A
C583   H593    1.084   .     S
C584   C586    1.400   .     A
C584   H594    1.084   .     S
C586   C399    1.465   1_565 S
Cu587  Cu588   2.681   .     S
Cu587  N600    2.014   .     S
Cu587  O604    1.950   .     S
Cu587  O601    1.956   .     S
Cu587  O605    1.959   .     S
Cu587  O608    1.959   .     S
Cu588  N599    2.014   .     S
Cu588  O603    1.950   .     S
Cu588  O602    1.956   .     S
Cu588  O606    1.959   .     S
Cu588  O607    1.959   .     S
H589   C635    1.087   .     S
H590   C698    1.087   1_455 S
H610   O423    0.989   1_565 S
O611   H426    0.989   1_565 S
O615   H616    0.990   .     S
O617   H618    0.990   .     S
C621   C641    1.456   .     S
C621   O665    1.293   .     A
C621   O663    1.295   .     A
C622   C642    1.465   .     S
C622   O666    1.297   .     A
C622   O664    1.295   .     A
C623   O677    1.380   .     S
C623   C625    1.409   .     A
C623   C631    1.422   .     A
C624   O679    1.380   .     S
C624   C626    1.409   .     A
C624   C632    1.421   .     A
C625   F681    1.354   .     S
C625   N661    1.369   .     A
C626   F682    1.351   .     S
C626   N662    1.369   .     A
C627   H657    1.081   .     S
C627   N661    1.364   .     A
C627   C629    1.408   .     A
C628   H658    1.081   .     S
C628   N662    1.365   .     A
C628   C630    1.408   .     A
C629   C631    1.412   .     A
C629   H659    1.083   .     S
C630   C632    1.411   .     A
C630   H660    1.083   .     S
C632   C259    1.519   1_556 S
C633   C635    1.433   .     S
C633   O669    1.288   .     A
C633   O667    1.288   .     A
C634   O670    1.288   .     A
C634   C636    1.434   .     S
C634   O668    1.288   .     A
C636   C697    1.333   .     S
C636   H714    1.087   .     S
C637   O671    1.382   .     S
C637   C647    1.418   .     A
C637   C639    1.395   .     A
C638   C648    1.417   .     A
C638   C640    1.395   .     A
C638   O673    1.383   .     S
C639   C641    1.403   .     A
C639   F675    1.357   .     S
C640   F676    1.359   .     S
C640   C642    1.408   .     A
C641   C643    1.398   .     A
C642   C644    1.401   .     A
C643   C645    1.388   .     A
C643   H653    1.084   .     S
C644   C646    1.388   .     A
C644   H654    1.083   .     S
C645   C647    1.401   .     A
C645   H655    1.084   .     S
C646   C648    1.400   .     A
C646   H656    1.084   .     S
C648   C461    1.465   1_565 S
Cu649  Cu650   2.681   .     S
Cu649  N662    2.014   .     S
Cu649  O666    1.950   .     S
Cu649  O663    1.956   .     S
Cu649  O667    1.959   .     S
Cu649  O670    1.959   .     S
Cu650  N661    2.014   .     S
Cu650  O665    1.950   .     S
Cu650  O664    1.956   .     S
Cu650  O668    1.959   .     S
Cu650  O669    1.959   .     S
H651   C697    1.087   .     S
H672   O485    0.989   1_565 S
O673   H488    0.989   1_565 S
O677   H678    0.990   .     S
O679   H680    0.990   .     S
C683   C703    1.456   .     S
C683   O727    1.293   .     A
C683   O725    1.295   .     A
C684   C704    1.465   .     S
C684   O728    1.297   .     A
C684   O726    1.295   .     A
C685   O739    1.380   .     S
C685   C687    1.409   .     A
C685   C693    1.422   .     A
C686   O741    1.380   .     S
C686   C688    1.409   .     A
C686   C694    1.421   .     A
C687   F743    1.354   .     S
C687   N723    1.369   .     A
C688   F744    1.351   .     S
C688   N724    1.369   .     A
C689   H719    1.081   .     S
C689   N723    1.364   .     A
C689   C691    1.408   .     A
C690   H720    1.081   .     S
C690   N724    1.365   .     A
C690   C692    1.408   .     A
C691   C693    1.412   .     A
C691   H721    1.083   .     S
C692   C694    1.411   .     A
C692   H722    1.083   .     S
C694   C321    1.519   1_556 S
C695   C697    1.433   .     S
C695   O731    1.288   .     A
C695   O729    1.288   .     A
C696   O732    1.288   .     A
C696   C698    1.434   .     S
C696   O730    1.288   .     A
C698   C573    1.333   1_655 S
C698   H590    1.087   1_655 S
C699   O733    1.382   .     S
C699   C709    1.418   .     A
C699   C701    1.395   .     A
C700   C710    1.417   .     A
C700   C702    1.395   .     A
C700   O735    1.383   .     S
C701   C703    1.403   .     A
C701   F737    1.357   .     S
C702   F738    1.359   .     S
C702   C704    1.408   .     A
C703   C705    1.398   .     A
C704   C706    1.401   .     A
C705   C707    1.388   .     A
C705   H715    1.084   .     S
C706   C708    1.388   .     A
C706   H716    1.083   .     S
C707   C709    1.401   .     A
C707   H717    1.084   .     S
C708   C710    1.400   .     A
C708   H718    1.084   .     S
C710   C523    1.465   1_565 S
Cu711  Cu712   2.681   .     S
Cu711  N724    2.014   .     S
Cu711  O728    1.950   .     S
Cu711  O725    1.956   .     S
Cu711  O729    1.959   .     S
Cu711  O732    1.959   .     S
Cu712  N723    2.014   .     S
Cu712  O727    1.950   .     S
Cu712  O726    1.956   .     S
Cu712  O730    1.959   .     S
Cu712  O731    1.959   .     S
H713   C573    1.087   1_655 S
H734   O547    0.989   1_565 S
O735   H550    0.989   1_565 S
O739   H740    0.990   .     S
O741   H742    0.990   .     S
