data_str_m2_o10_o16_pcu_sym.84
_audit_creation_date              2020-01-03
_audit_creation_method            'Materials Studio'
_symmetry_space_group_name_H-M    'P1'
_symmetry_Int_Tables_number       1
_symmetry_cell_setting            triclinic
loop_
_symmetry_equiv_pos_as_xyz
  x,y,z
_cell_length_a                    22.2818
_cell_length_b                    26.0316
_cell_length_c                    26.8127
_cell_angle_alpha                 93.3738
_cell_angle_beta                  76.9857
_cell_angle_gamma                 103.0806
loop_
_atom_site_label
_atom_site_type_symbol
_atom_site_fract_x
_atom_site_fract_y
_atom_site_fract_z
_atom_site_U_iso_or_equiv
_atom_site_adp_type
_atom_site_occupancy
C1     C     0.18162   0.26671   0.25186   0.00000  Uiso   1.00
C2     C     0.11150   0.15988   0.40336   0.00000  Uiso   1.00
C3     C     0.19017   0.32267   0.25276   0.00000  Uiso   1.00
C4     C     0.13273   0.16466   0.34728   0.00000  Uiso   1.00
C5     C     0.14170   0.01068   0.25206   0.00000  Uiso   1.00
C6     C     0.15107   0.06663   0.24995   0.00000  Uiso   1.00
C7     C     0.20098   0.17159   0.15292   0.00000  Uiso   1.00
C8     C     0.28964   0.23185   0.02499   0.00000  Uiso   1.00
C9     C     0.22213   0.18129   0.09755   0.00000  Uiso   1.00
C10    C     0.05265   0.12743   0.42367   0.00000  Uiso   1.00
C11    C     0.03755   0.11167   0.47442   0.00000  Uiso   1.00
C12    C     0.14081   0.16079   0.48655   0.00000  Uiso   1.00
C13    C     0.08154   0.12649   0.00511   0.00000  Uiso   1.00
C14    C     0.32263   0.24728   0.10645   0.00000  Uiso   1.00
C15    C     0.30810   0.29155   0.13498   0.00000  Uiso   1.00
C16    C     0.02145   0.32692   0.15441   0.00000  Uiso   1.00
C17    C     0.08272   0.31834   0.14515   0.00000  Uiso   1.00
C18    C     0.09681   0.27328   0.11858   0.00000  Uiso   1.00
C19    C     0.05028   0.23792   0.09908   0.00000  Uiso   1.00
C20    C     0.15360   0.18028   0.43595   0.00000  Uiso   1.00
C21    C     0.18743   0.17723   0.01655   0.00000  Uiso   1.00
C22    C     0.24400   0.21403   0.49605   0.00000  Uiso   1.00
C23    C     0.25325   0.23541   0.44785   0.00000  Uiso   1.00
C24    C     0.20811   0.21993   0.41888   0.00000  Uiso   1.00
C25    C     0.17917   0.15963   0.06676   0.00000  Uiso   1.00
C26    C     0.27847   0.21738   0.07612   0.00000  Uiso   1.00
Cu27   Cu    0.10710   0.16105   0.24436   0.00000  Uiso   1.00
Cu28   Cu    0.22623   0.17228   0.25565   0.00000  Uiso   1.00
H29    H     0.09481   0.32023   0.25197   0.00000  Uiso   1.00
H30    H     0.21609   0.24030   0.38319   0.00000  Uiso   1.00
H31    H     0.23698   0.01307   0.25322   0.00000  Uiso   1.00
H32    H     0.26165   0.29996   0.14000   0.00000  Uiso   1.00
H33    H     0.01069   0.02849   0.17514   0.00000  Uiso   1.00
H34    H     0.11964   0.01373   0.15769   0.00000  Uiso   1.00
H35    H     0.14426   0.26669   0.11165   0.00000  Uiso   1.00
H36    H     0.06233   0.20453   0.07653   0.00000  Uiso   1.00
H37    H     0.00360   0.20566   0.28950   0.00000  Uiso   1.00
H38    H     0.32977   0.12776   0.21043   0.00000  Uiso   1.00
H39    H     0.29512   0.26527   0.43284   0.00000  Uiso   1.00
H40    H     0.33230   0.26055   0.00891   0.00000  Uiso   1.00
H41    H     0.13786   0.13087   0.08407   0.00000  Uiso   1.00
H42    H     0.01946   0.11205   0.39962   0.00000  Uiso   1.00
H43    H     0.06700   0.11118   0.04343   0.00000  Uiso   1.00
H44    H     0.32558   0.08599   0.48957   0.00000  Uiso   1.00
N45    N     0.31574   0.18074   0.26416   0.00000  Uiso   1.00
N46    N     0.01759   0.15259   0.23584   0.00000  Uiso   1.00
O47    O     0.12797   0.23807   0.24633   0.00000  Uiso   1.00
O48    O     0.22858   0.24755   0.25587   0.00000  Uiso   1.00
O49    O     0.09181   0.15960   0.31840   0.00000  Uiso   1.00
O50    O     0.19242   0.16908   0.32793   0.00000  Uiso   1.00
O51    O     0.10476   0.08578   0.24414   0.00000  Uiso   1.00
O52    O     0.20536   0.09526   0.25367   0.00000  Uiso   1.00
O53    O     0.14092   0.16425   0.17207   0.00000  Uiso   1.00
O54    O     0.24152   0.17373   0.18161   0.00000  Uiso   1.00
C55    C     0.51495   0.26671   0.25186   0.00000  Uiso   1.00
C56    C     0.44483   0.15988   0.40336   0.00000  Uiso   1.00
C57    C     0.52350   0.32267   0.25276   0.00000  Uiso   1.00
C58    C     0.46607   0.16466   0.34728   0.00000  Uiso   1.00
C59    C     0.47504   0.01068   0.25206   0.00000  Uiso   1.00
C60    C     0.48440   0.06663   0.24995   0.00000  Uiso   1.00
C61    C     0.53432   0.17159   0.15292   0.00000  Uiso   1.00
C62    C     0.62298   0.23185   0.02499   0.00000  Uiso   1.00
C63    C     0.55546   0.18129   0.09755   0.00000  Uiso   1.00
C64    C     0.38599   0.12743   0.42367   0.00000  Uiso   1.00
C65    C     0.37088   0.11167   0.47442   0.00000  Uiso   1.00
C66    C     0.47414   0.16079   0.48655   0.00000  Uiso   1.00
C67    C     0.41487   0.12649   0.00511   0.00000  Uiso   1.00
C68    C     0.65596   0.24728   0.10645   0.00000  Uiso   1.00
C69    C     0.64144   0.29155   0.13498   0.00000  Uiso   1.00
C70    C     0.35478   0.32692   0.15441   0.00000  Uiso   1.00
C71    C     0.41606   0.31834   0.14515   0.00000  Uiso   1.00
C72    C     0.43014   0.27328   0.11858   0.00000  Uiso   1.00
C73    C     0.38361   0.23792   0.09908   0.00000  Uiso   1.00
C74    C     0.48694   0.18028   0.43595   0.00000  Uiso   1.00
C75    C     0.52077   0.17723   0.01655   0.00000  Uiso   1.00
C76    C     0.57733   0.21403   0.49605   0.00000  Uiso   1.00
C77    C     0.58658   0.23541   0.44785   0.00000  Uiso   1.00
C78    C     0.54144   0.21993   0.41888   0.00000  Uiso   1.00
C79    C     0.51250   0.15963   0.06676   0.00000  Uiso   1.00
C80    C     0.61181   0.21738   0.07612   0.00000  Uiso   1.00
Cu81   Cu    0.44043   0.16105   0.24436   0.00000  Uiso   1.00
Cu82   Cu    0.55957   0.17228   0.25565   0.00000  Uiso   1.00
H83    H     0.42815   0.32023   0.25197   0.00000  Uiso   1.00
H84    H     0.54942   0.24030   0.38319   0.00000  Uiso   1.00
H85    H     0.57032   0.01307   0.25322   0.00000  Uiso   1.00
H86    H     0.59498   0.29996   0.14000   0.00000  Uiso   1.00
H87    H     0.34402   0.02849   0.17514   0.00000  Uiso   1.00
H88    H     0.45297   0.01373   0.15769   0.00000  Uiso   1.00
H89    H     0.47759   0.26669   0.11165   0.00000  Uiso   1.00
H90    H     0.39567   0.20453   0.07653   0.00000  Uiso   1.00
H91    H     0.33693   0.20566   0.28950   0.00000  Uiso   1.00
H92    H     0.66311   0.12776   0.21043   0.00000  Uiso   1.00
H93    H     0.62845   0.26527   0.43284   0.00000  Uiso   1.00
H94    H     0.66563   0.26055   0.00891   0.00000  Uiso   1.00
H95    H     0.47120   0.13087   0.08407   0.00000  Uiso   1.00
H96    H     0.35279   0.11205   0.39962   0.00000  Uiso   1.00
H97    H     0.40033   0.11118   0.04343   0.00000  Uiso   1.00
H98    H     0.65891   0.08599   0.48957   0.00000  Uiso   1.00
N99    N     0.64908   0.18074   0.26416   0.00000  Uiso   1.00
N100   N     0.35092   0.15259   0.23584   0.00000  Uiso   1.00
O101   O     0.46131   0.23807   0.24633   0.00000  Uiso   1.00
O102   O     0.56191   0.24755   0.25587   0.00000  Uiso   1.00
O103   O     0.42515   0.15960   0.31840   0.00000  Uiso   1.00
O104   O     0.52575   0.16908   0.32793   0.00000  Uiso   1.00
O105   O     0.43809   0.08578   0.24414   0.00000  Uiso   1.00
O106   O     0.53869   0.09526   0.25367   0.00000  Uiso   1.00
O107   O     0.47425   0.16425   0.17207   0.00000  Uiso   1.00
O108   O     0.57485   0.17373   0.18161   0.00000  Uiso   1.00
C109   C     0.84828   0.26671   0.25186   0.00000  Uiso   1.00
C110   C     0.77816   0.15988   0.40336   0.00000  Uiso   1.00
C111   C     0.85684   0.32267   0.25276   0.00000  Uiso   1.00
C112   C     0.79940   0.16466   0.34728   0.00000  Uiso   1.00
C113   C     0.80837   0.01068   0.25206   0.00000  Uiso   1.00
C114   C     0.81774   0.06663   0.24995   0.00000  Uiso   1.00
C115   C     0.86765   0.17159   0.15292   0.00000  Uiso   1.00
C116   C     0.95631   0.23185   0.02499   0.00000  Uiso   1.00
C117   C     0.88880   0.18129   0.09755   0.00000  Uiso   1.00
C118   C     0.71932   0.12743   0.42367   0.00000  Uiso   1.00
C119   C     0.70421   0.11167   0.47442   0.00000  Uiso   1.00
C120   C     0.80747   0.16079   0.48655   0.00000  Uiso   1.00
C121   C     0.74821   0.12649   0.00511   0.00000  Uiso   1.00
C122   C     0.98929   0.24728   0.10645   0.00000  Uiso   1.00
C123   C     0.97477   0.29155   0.13498   0.00000  Uiso   1.00
C124   C     0.68812   0.32692   0.15441   0.00000  Uiso   1.00
C125   C     0.74939   0.31834   0.14515   0.00000  Uiso   1.00
C126   C     0.76347   0.27328   0.11858   0.00000  Uiso   1.00
C127   C     0.71695   0.23792   0.09908   0.00000  Uiso   1.00
C128   C     0.82027   0.18028   0.43595   0.00000  Uiso   1.00
C129   C     0.85410   0.17723   0.01655   0.00000  Uiso   1.00
C130   C     0.91067   0.21403   0.49605   0.00000  Uiso   1.00
C131   C     0.91992   0.23541   0.44785   0.00000  Uiso   1.00
C132   C     0.87477   0.21993   0.41888   0.00000  Uiso   1.00
C133   C     0.84583   0.15963   0.06676   0.00000  Uiso   1.00
C134   C     0.94514   0.21738   0.07612   0.00000  Uiso   1.00
Cu135  Cu    0.77377   0.16105   0.24436   0.00000  Uiso   1.00
Cu136  Cu    0.89290   0.17228   0.25565   0.00000  Uiso   1.00
H137   H     0.76148   0.32023   0.25197   0.00000  Uiso   1.00
H138   H     0.88275   0.24030   0.38319   0.00000  Uiso   1.00
H139   H     0.90365   0.01307   0.25322   0.00000  Uiso   1.00
H140   H     0.92831   0.29996   0.14000   0.00000  Uiso   1.00
H141   H     0.67735   0.02849   0.17514   0.00000  Uiso   1.00
H142   H     0.78630   0.01373   0.15769   0.00000  Uiso   1.00
H143   H     0.81093   0.26669   0.11165   0.00000  Uiso   1.00
H144   H     0.72900   0.20453   0.07653   0.00000  Uiso   1.00
H145   H     0.67026   0.20566   0.28950   0.00000  Uiso   1.00
H146   H     0.99644   0.12776   0.21043   0.00000  Uiso   1.00
H147   H     0.96179   0.26527   0.43284   0.00000  Uiso   1.00
H148   H     0.99896   0.26055   0.00891   0.00000  Uiso   1.00
H149   H     0.80453   0.13087   0.08407   0.00000  Uiso   1.00
H150   H     0.68613   0.11205   0.39962   0.00000  Uiso   1.00
H151   H     0.73367   0.11118   0.04343   0.00000  Uiso   1.00
H152   H     0.99225   0.08599   0.48957   0.00000  Uiso   1.00
N153   N     0.98241   0.18074   0.26416   0.00000  Uiso   1.00
N154   N     0.68426   0.15259   0.23584   0.00000  Uiso   1.00
O155   O     0.79464   0.23807   0.24633   0.00000  Uiso   1.00
O156   O     0.89524   0.24755   0.25587   0.00000  Uiso   1.00
O157   O     0.75848   0.15960   0.31840   0.00000  Uiso   1.00
O158   O     0.85908   0.16908   0.32793   0.00000  Uiso   1.00
O159   O     0.77142   0.08578   0.24414   0.00000  Uiso   1.00
O160   O     0.87203   0.09526   0.25367   0.00000  Uiso   1.00
O161   O     0.80758   0.16425   0.17207   0.00000  Uiso   1.00
O162   O     0.90819   0.17373   0.18161   0.00000  Uiso   1.00
C163   C     0.18162   0.60004   0.25186   0.00000  Uiso   1.00
C164   C     0.11150   0.49321   0.40336   0.00000  Uiso   1.00
C165   C     0.19017   0.65600   0.25276   0.00000  Uiso   1.00
C166   C     0.13273   0.49800   0.34728   0.00000  Uiso   1.00
C167   C     0.14170   0.34402   0.25206   0.00000  Uiso   1.00
C168   C     0.15107   0.39996   0.24995   0.00000  Uiso   1.00
C169   C     0.20098   0.50492   0.15292   0.00000  Uiso   1.00
C170   C     0.28964   0.56519   0.02499   0.00000  Uiso   1.00
C171   C     0.22213   0.51462   0.09755   0.00000  Uiso   1.00
C172   C     0.05265   0.46076   0.42367   0.00000  Uiso   1.00
C173   C     0.03755   0.44501   0.47442   0.00000  Uiso   1.00
C174   C     0.14081   0.49412   0.48655   0.00000  Uiso   1.00
C175   C     0.08154   0.45982   0.00511   0.00000  Uiso   1.00
C176   C     0.32263   0.58061   0.10645   0.00000  Uiso   1.00
C177   C     0.30810   0.62488   0.13498   0.00000  Uiso   1.00
C178   C     0.02145   0.66025   0.15441   0.00000  Uiso   1.00
C179   C     0.08272   0.65168   0.14515   0.00000  Uiso   1.00
C180   C     0.09681   0.60662   0.11858   0.00000  Uiso   1.00
C181   C     0.05028   0.57126   0.09908   0.00000  Uiso   1.00
C182   C     0.15360   0.51362   0.43595   0.00000  Uiso   1.00
C183   C     0.18743   0.51056   0.01655   0.00000  Uiso   1.00
C184   C     0.24400   0.54736   0.49605   0.00000  Uiso   1.00
C185   C     0.25325   0.56874   0.44785   0.00000  Uiso   1.00
C186   C     0.20811   0.55326   0.41888   0.00000  Uiso   1.00
C187   C     0.17917   0.49296   0.06676   0.00000  Uiso   1.00
C188   C     0.27847   0.55071   0.07612   0.00000  Uiso   1.00
Cu189  Cu    0.10710   0.49439   0.24436   0.00000  Uiso   1.00
Cu190  Cu    0.22623   0.50561   0.25565   0.00000  Uiso   1.00
H191   H     0.09481   0.65356   0.25197   0.00000  Uiso   1.00
H192   H     0.21609   0.57363   0.38319   0.00000  Uiso   1.00
H193   H     0.23698   0.34640   0.25322   0.00000  Uiso   1.00
H194   H     0.26165   0.63329   0.14000   0.00000  Uiso   1.00
H195   H     0.01069   0.36183   0.17514   0.00000  Uiso   1.00
H196   H     0.11964   0.34706   0.15769   0.00000  Uiso   1.00
H197   H     0.14426   0.60003   0.11165   0.00000  Uiso   1.00
H198   H     0.06233   0.53786   0.07653   0.00000  Uiso   1.00
H199   H     0.00360   0.53899   0.28950   0.00000  Uiso   1.00
H200   H     0.32977   0.46109   0.21043   0.00000  Uiso   1.00
H201   H     0.29512   0.59860   0.43284   0.00000  Uiso   1.00
H202   H     0.33230   0.59388   0.00891   0.00000  Uiso   1.00
H203   H     0.13786   0.46420   0.08407   0.00000  Uiso   1.00
H204   H     0.01946   0.44539   0.39962   0.00000  Uiso   1.00
H205   H     0.06700   0.44451   0.04343   0.00000  Uiso   1.00
H206   H     0.32558   0.41933   0.48957   0.00000  Uiso   1.00
N207   N     0.31574   0.51407   0.26416   0.00000  Uiso   1.00
N208   N     0.01759   0.48593   0.23584   0.00000  Uiso   1.00
O209   O     0.12797   0.57141   0.24633   0.00000  Uiso   1.00
O210   O     0.22858   0.58089   0.25587   0.00000  Uiso   1.00
O211   O     0.09181   0.49293   0.31840   0.00000  Uiso   1.00
O212   O     0.19242   0.50241   0.32793   0.00000  Uiso   1.00
O213   O     0.10476   0.41911   0.24414   0.00000  Uiso   1.00
O214   O     0.20536   0.42859   0.25367   0.00000  Uiso   1.00
O215   O     0.14092   0.49759   0.17207   0.00000  Uiso   1.00
O216   O     0.24152   0.50707   0.18161   0.00000  Uiso   1.00
C217   C     0.51495   0.60004   0.25186   0.00000  Uiso   1.00
C218   C     0.44483   0.49321   0.40336   0.00000  Uiso   1.00
C219   C     0.52350   0.65600   0.25276   0.00000  Uiso   1.00
C220   C     0.46607   0.49800   0.34728   0.00000  Uiso   1.00
C221   C     0.47504   0.34402   0.25206   0.00000  Uiso   1.00
C222   C     0.48440   0.39996   0.24995   0.00000  Uiso   1.00
C223   C     0.53432   0.50492   0.15292   0.00000  Uiso   1.00
C224   C     0.62298   0.56519   0.02499   0.00000  Uiso   1.00
C225   C     0.55546   0.51462   0.09755   0.00000  Uiso   1.00
C226   C     0.38599   0.46076   0.42367   0.00000  Uiso   1.00
C227   C     0.37088   0.44501   0.47442   0.00000  Uiso   1.00
C228   C     0.47414   0.49412   0.48655   0.00000  Uiso   1.00
C229   C     0.41487   0.45982   0.00511   0.00000  Uiso   1.00
C230   C     0.65596   0.58061   0.10645   0.00000  Uiso   1.00
C231   C     0.64144   0.62488   0.13498   0.00000  Uiso   1.00
C232   C     0.35478   0.66025   0.15441   0.00000  Uiso   1.00
C233   C     0.41606   0.65168   0.14515   0.00000  Uiso   1.00
C234   C     0.43014   0.60662   0.11858   0.00000  Uiso   1.00
C235   C     0.38361   0.57126   0.09908   0.00000  Uiso   1.00
C236   C     0.48694   0.51362   0.43595   0.00000  Uiso   1.00
C237   C     0.52077   0.51056   0.01655   0.00000  Uiso   1.00
C238   C     0.57733   0.54736   0.49605   0.00000  Uiso   1.00
C239   C     0.58658   0.56874   0.44785   0.00000  Uiso   1.00
C240   C     0.54144   0.55326   0.41888   0.00000  Uiso   1.00
C241   C     0.51250   0.49296   0.06676   0.00000  Uiso   1.00
C242   C     0.61181   0.55071   0.07612   0.00000  Uiso   1.00
Cu243  Cu    0.44043   0.49439   0.24436   0.00000  Uiso   1.00
Cu244  Cu    0.55957   0.50561   0.25565   0.00000  Uiso   1.00
H245   H     0.42815   0.65356   0.25197   0.00000  Uiso   1.00
H246   H     0.54942   0.57363   0.38319   0.00000  Uiso   1.00
H247   H     0.57032   0.34640   0.25322   0.00000  Uiso   1.00
H248   H     0.59498   0.63329   0.14000   0.00000  Uiso   1.00
H249   H     0.34402   0.36183   0.17514   0.00000  Uiso   1.00
H250   H     0.45297   0.34706   0.15769   0.00000  Uiso   1.00
H251   H     0.47759   0.60003   0.11165   0.00000  Uiso   1.00
H252   H     0.39567   0.53786   0.07653   0.00000  Uiso   1.00
H253   H     0.33693   0.53899   0.28950   0.00000  Uiso   1.00
H254   H     0.66311   0.46109   0.21043   0.00000  Uiso   1.00
H255   H     0.62845   0.59860   0.43284   0.00000  Uiso   1.00
H256   H     0.66563   0.59388   0.00891   0.00000  Uiso   1.00
H257   H     0.47120   0.46420   0.08407   0.00000  Uiso   1.00
H258   H     0.35279   0.44539   0.39962   0.00000  Uiso   1.00
H259   H     0.40033   0.44451   0.04343   0.00000  Uiso   1.00
H260   H     0.65891   0.41933   0.48957   0.00000  Uiso   1.00
N261   N     0.64908   0.51407   0.26416   0.00000  Uiso   1.00
N262   N     0.35092   0.48593   0.23584   0.00000  Uiso   1.00
O263   O     0.46131   0.57141   0.24633   0.00000  Uiso   1.00
O264   O     0.56191   0.58089   0.25587   0.00000  Uiso   1.00
O265   O     0.42515   0.49293   0.31840   0.00000  Uiso   1.00
O266   O     0.52575   0.50241   0.32793   0.00000  Uiso   1.00
O267   O     0.43809   0.41911   0.24414   0.00000  Uiso   1.00
O268   O     0.53869   0.42859   0.25367   0.00000  Uiso   1.00
O269   O     0.47425   0.49759   0.17207   0.00000  Uiso   1.00
O270   O     0.57485   0.50707   0.18161   0.00000  Uiso   1.00
C271   C     0.84828   0.60004   0.25186   0.00000  Uiso   1.00
C272   C     0.77816   0.49321   0.40336   0.00000  Uiso   1.00
C273   C     0.85684   0.65600   0.25276   0.00000  Uiso   1.00
C274   C     0.79940   0.49800   0.34728   0.00000  Uiso   1.00
C275   C     0.80837   0.34402   0.25206   0.00000  Uiso   1.00
C276   C     0.81774   0.39996   0.24995   0.00000  Uiso   1.00
C277   C     0.86765   0.50492   0.15292   0.00000  Uiso   1.00
C278   C     0.95631   0.56519   0.02499   0.00000  Uiso   1.00
C279   C     0.88880   0.51462   0.09755   0.00000  Uiso   1.00
C280   C     0.71932   0.46076   0.42367   0.00000  Uiso   1.00
C281   C     0.70421   0.44501   0.47442   0.00000  Uiso   1.00
C282   C     0.80747   0.49412   0.48655   0.00000  Uiso   1.00
C283   C     0.74821   0.45982   0.00511   0.00000  Uiso   1.00
C284   C     0.98929   0.58061   0.10645   0.00000  Uiso   1.00
C285   C     0.97477   0.62488   0.13498   0.00000  Uiso   1.00
C286   C     0.68812   0.66025   0.15441   0.00000  Uiso   1.00
C287   C     0.74939   0.65168   0.14515   0.00000  Uiso   1.00
C288   C     0.76347   0.60662   0.11858   0.00000  Uiso   1.00
C289   C     0.71695   0.57126   0.09908   0.00000  Uiso   1.00
C290   C     0.82027   0.51362   0.43595   0.00000  Uiso   1.00
C291   C     0.85410   0.51056   0.01655   0.00000  Uiso   1.00
C292   C     0.91067   0.54736   0.49605   0.00000  Uiso   1.00
C293   C     0.91992   0.56874   0.44785   0.00000  Uiso   1.00
C294   C     0.87477   0.55326   0.41888   0.00000  Uiso   1.00
C295   C     0.84583   0.49296   0.06676   0.00000  Uiso   1.00
C296   C     0.94514   0.55071   0.07612   0.00000  Uiso   1.00
Cu297  Cu    0.77377   0.49439   0.24436   0.00000  Uiso   1.00
Cu298  Cu    0.89290   0.50561   0.25565   0.00000  Uiso   1.00
H299   H     0.76148   0.65356   0.25197   0.00000  Uiso   1.00
H300   H     0.88275   0.57363   0.38319   0.00000  Uiso   1.00
H301   H     0.90365   0.34640   0.25322   0.00000  Uiso   1.00
H302   H     0.92831   0.63329   0.14000   0.00000  Uiso   1.00
H303   H     0.67735   0.36183   0.17514   0.00000  Uiso   1.00
H304   H     0.78630   0.34706   0.15769   0.00000  Uiso   1.00
H305   H     0.81093   0.60003   0.11165   0.00000  Uiso   1.00
H306   H     0.72900   0.53786   0.07653   0.00000  Uiso   1.00
H307   H     0.67026   0.53899   0.28950   0.00000  Uiso   1.00
H308   H     0.99644   0.46109   0.21043   0.00000  Uiso   1.00
H309   H     0.96179   0.59860   0.43284   0.00000  Uiso   1.00
H310   H     0.99896   0.59388   0.00891   0.00000  Uiso   1.00
H311   H     0.80453   0.46420   0.08407   0.00000  Uiso   1.00
H312   H     0.68613   0.44539   0.39962   0.00000  Uiso   1.00
H313   H     0.73367   0.44451   0.04343   0.00000  Uiso   1.00
H314   H     0.99225   0.41933   0.48957   0.00000  Uiso   1.00
N315   N     0.98241   0.51407   0.26416   0.00000  Uiso   1.00
N316   N     0.68426   0.48593   0.23584   0.00000  Uiso   1.00
O317   O     0.79464   0.57141   0.24633   0.00000  Uiso   1.00
O318   O     0.89524   0.58089   0.25587   0.00000  Uiso   1.00
O319   O     0.75848   0.49293   0.31840   0.00000  Uiso   1.00
O320   O     0.85908   0.50241   0.32793   0.00000  Uiso   1.00
O321   O     0.77142   0.41911   0.24414   0.00000  Uiso   1.00
O322   O     0.87203   0.42859   0.25367   0.00000  Uiso   1.00
O323   O     0.80758   0.49759   0.17207   0.00000  Uiso   1.00
O324   O     0.90819   0.50707   0.18161   0.00000  Uiso   1.00
C325   C     0.18162   0.93337   0.25186   0.00000  Uiso   1.00
C326   C     0.11150   0.82654   0.40336   0.00000  Uiso   1.00
C327   C     0.19017   0.98933   0.25276   0.00000  Uiso   1.00
C328   C     0.13273   0.83133   0.34728   0.00000  Uiso   1.00
C329   C     0.14170   0.67735   0.25206   0.00000  Uiso   1.00
C330   C     0.15107   0.73329   0.24995   0.00000  Uiso   1.00
C331   C     0.20098   0.83826   0.15292   0.00000  Uiso   1.00
C332   C     0.28964   0.89852   0.02499   0.00000  Uiso   1.00
C333   C     0.22213   0.84796   0.09755   0.00000  Uiso   1.00
C334   C     0.05265   0.79409   0.42367   0.00000  Uiso   1.00
C335   C     0.03755   0.77834   0.47442   0.00000  Uiso   1.00
C336   C     0.14081   0.82746   0.48655   0.00000  Uiso   1.00
C337   C     0.08154   0.79315   0.00511   0.00000  Uiso   1.00
C338   C     0.32263   0.91395   0.10645   0.00000  Uiso   1.00
C339   C     0.30810   0.95822   0.13498   0.00000  Uiso   1.00
C340   C     0.02145   0.99358   0.15441   0.00000  Uiso   1.00
C341   C     0.08272   0.98501   0.14515   0.00000  Uiso   1.00
C342   C     0.09681   0.93995   0.11858   0.00000  Uiso   1.00
C343   C     0.05028   0.90459   0.09908   0.00000  Uiso   1.00
C344   C     0.15360   0.84695   0.43595   0.00000  Uiso   1.00
C345   C     0.18743   0.84390   0.01655   0.00000  Uiso   1.00
C346   C     0.24400   0.88070   0.49605   0.00000  Uiso   1.00
C347   C     0.25325   0.90208   0.44785   0.00000  Uiso   1.00
C348   C     0.20811   0.88660   0.41888   0.00000  Uiso   1.00
C349   C     0.17917   0.82630   0.06676   0.00000  Uiso   1.00
C350   C     0.27847   0.88404   0.07612   0.00000  Uiso   1.00
Cu351  Cu    0.10710   0.82772   0.24436   0.00000  Uiso   1.00
Cu352  Cu    0.22623   0.83895   0.25565   0.00000  Uiso   1.00
H353   H     0.09481   0.98689   0.25197   0.00000  Uiso   1.00
H354   H     0.21609   0.90696   0.38319   0.00000  Uiso   1.00
H355   H     0.23698   0.67974   0.25322   0.00000  Uiso   1.00
H356   H     0.26165   0.96663   0.14000   0.00000  Uiso   1.00
H357   H     0.01069   0.69516   0.17514   0.00000  Uiso   1.00
H358   H     0.11964   0.68040   0.15769   0.00000  Uiso   1.00
H359   H     0.14426   0.93336   0.11165   0.00000  Uiso   1.00
H360   H     0.06233   0.87120   0.07653   0.00000  Uiso   1.00
H361   H     0.00360   0.87232   0.28950   0.00000  Uiso   1.00
H362   H     0.32977   0.79443   0.21043   0.00000  Uiso   1.00
H363   H     0.29512   0.93193   0.43284   0.00000  Uiso   1.00
H364   H     0.33230   0.92721   0.00891   0.00000  Uiso   1.00
H365   H     0.13786   0.79754   0.08407   0.00000  Uiso   1.00
H366   H     0.01946   0.77872   0.39962   0.00000  Uiso   1.00
H367   H     0.06700   0.77784   0.04343   0.00000  Uiso   1.00
H368   H     0.32558   0.75266   0.48957   0.00000  Uiso   1.00
N369   N     0.31574   0.84741   0.26416   0.00000  Uiso   1.00
N370   N     0.01759   0.81926   0.23584   0.00000  Uiso   1.00
O371   O     0.12797   0.90474   0.24633   0.00000  Uiso   1.00
O372   O     0.22858   0.91422   0.25587   0.00000  Uiso   1.00
O373   O     0.09181   0.82627   0.31840   0.00000  Uiso   1.00
O374   O     0.19242   0.83575   0.32793   0.00000  Uiso   1.00
O375   O     0.10476   0.75245   0.24414   0.00000  Uiso   1.00
O376   O     0.20536   0.76193   0.25367   0.00000  Uiso   1.00
O377   O     0.14092   0.83092   0.17207   0.00000  Uiso   1.00
O378   O     0.24152   0.84040   0.18161   0.00000  Uiso   1.00
C379   C     0.51495   0.93337   0.25186   0.00000  Uiso   1.00
C380   C     0.44483   0.82654   0.40336   0.00000  Uiso   1.00
C381   C     0.52350   0.98933   0.25276   0.00000  Uiso   1.00
C382   C     0.46607   0.83133   0.34728   0.00000  Uiso   1.00
C383   C     0.47504   0.67735   0.25206   0.00000  Uiso   1.00
C384   C     0.48440   0.73329   0.24995   0.00000  Uiso   1.00
C385   C     0.53432   0.83826   0.15292   0.00000  Uiso   1.00
C386   C     0.62298   0.89852   0.02499   0.00000  Uiso   1.00
C387   C     0.55546   0.84796   0.09755   0.00000  Uiso   1.00
C388   C     0.38599   0.79409   0.42367   0.00000  Uiso   1.00
C389   C     0.37088   0.77834   0.47442   0.00000  Uiso   1.00
C390   C     0.47414   0.82746   0.48655   0.00000  Uiso   1.00
C391   C     0.41487   0.79315   0.00511   0.00000  Uiso   1.00
C392   C     0.65596   0.91395   0.10645   0.00000  Uiso   1.00
C393   C     0.64144   0.95822   0.13498   0.00000  Uiso   1.00
C394   C     0.35478   0.99358   0.15441   0.00000  Uiso   1.00
C395   C     0.41606   0.98501   0.14515   0.00000  Uiso   1.00
C396   C     0.43014   0.93995   0.11858   0.00000  Uiso   1.00
C397   C     0.38361   0.90459   0.09908   0.00000  Uiso   1.00
C398   C     0.48694   0.84695   0.43595   0.00000  Uiso   1.00
C399   C     0.52077   0.84390   0.01655   0.00000  Uiso   1.00
C400   C     0.57733   0.88070   0.49605   0.00000  Uiso   1.00
C401   C     0.58658   0.90208   0.44785   0.00000  Uiso   1.00
C402   C     0.54144   0.88660   0.41888   0.00000  Uiso   1.00
C403   C     0.51250   0.82630   0.06676   0.00000  Uiso   1.00
C404   C     0.61181   0.88404   0.07612   0.00000  Uiso   1.00
Cu405  Cu    0.44043   0.82772   0.24436   0.00000  Uiso   1.00
Cu406  Cu    0.55957   0.83895   0.25565   0.00000  Uiso   1.00
H407   H     0.42815   0.98689   0.25197   0.00000  Uiso   1.00
H408   H     0.54942   0.90696   0.38319   0.00000  Uiso   1.00
H409   H     0.57032   0.67974   0.25322   0.00000  Uiso   1.00
H410   H     0.59498   0.96663   0.14000   0.00000  Uiso   1.00
H411   H     0.34402   0.69516   0.17514   0.00000  Uiso   1.00
H412   H     0.45297   0.68040   0.15769   0.00000  Uiso   1.00
H413   H     0.47759   0.93336   0.11165   0.00000  Uiso   1.00
H414   H     0.39567   0.87120   0.07653   0.00000  Uiso   1.00
H415   H     0.33693   0.87232   0.28950   0.00000  Uiso   1.00
H416   H     0.66311   0.79443   0.21043   0.00000  Uiso   1.00
H417   H     0.62845   0.93193   0.43284   0.00000  Uiso   1.00
H418   H     0.66563   0.92721   0.00891   0.00000  Uiso   1.00
H419   H     0.47120   0.79754   0.08407   0.00000  Uiso   1.00
H420   H     0.35279   0.77872   0.39962   0.00000  Uiso   1.00
H421   H     0.40033   0.77784   0.04343   0.00000  Uiso   1.00
H422   H     0.65891   0.75266   0.48957   0.00000  Uiso   1.00
N423   N     0.64908   0.84741   0.26416   0.00000  Uiso   1.00
N424   N     0.35092   0.81926   0.23584   0.00000  Uiso   1.00
O425   O     0.46131   0.90474   0.24633   0.00000  Uiso   1.00
O426   O     0.56191   0.91422   0.25587   0.00000  Uiso   1.00
O427   O     0.42515   0.82627   0.31840   0.00000  Uiso   1.00
O428   O     0.52575   0.83575   0.32793   0.00000  Uiso   1.00
O429   O     0.43809   0.75245   0.24414   0.00000  Uiso   1.00
O430   O     0.53869   0.76193   0.25367   0.00000  Uiso   1.00
O431   O     0.47425   0.83092   0.17207   0.00000  Uiso   1.00
O432   O     0.57485   0.84040   0.18161   0.00000  Uiso   1.00
C433   C     0.84828   0.93337   0.25186   0.00000  Uiso   1.00
C434   C     0.77816   0.82654   0.40336   0.00000  Uiso   1.00
C435   C     0.85684   0.98933   0.25276   0.00000  Uiso   1.00
C436   C     0.79940   0.83133   0.34728   0.00000  Uiso   1.00
C437   C     0.80837   0.67735   0.25206   0.00000  Uiso   1.00
C438   C     0.81774   0.73329   0.24995   0.00000  Uiso   1.00
C439   C     0.86765   0.83826   0.15292   0.00000  Uiso   1.00
C440   C     0.95631   0.89852   0.02499   0.00000  Uiso   1.00
C441   C     0.88880   0.84796   0.09755   0.00000  Uiso   1.00
C442   C     0.71932   0.79409   0.42367   0.00000  Uiso   1.00
C443   C     0.70421   0.77834   0.47442   0.00000  Uiso   1.00
C444   C     0.80747   0.82746   0.48655   0.00000  Uiso   1.00
C445   C     0.74821   0.79315   0.00511   0.00000  Uiso   1.00
C446   C     0.98929   0.91395   0.10645   0.00000  Uiso   1.00
C447   C     0.97477   0.95822   0.13498   0.00000  Uiso   1.00
C448   C     0.68812   0.99358   0.15441   0.00000  Uiso   1.00
C449   C     0.74939   0.98501   0.14515   0.00000  Uiso   1.00
C450   C     0.76347   0.93995   0.11858   0.00000  Uiso   1.00
C451   C     0.71695   0.90459   0.09908   0.00000  Uiso   1.00
C452   C     0.82027   0.84695   0.43595   0.00000  Uiso   1.00
C453   C     0.85410   0.84390   0.01655   0.00000  Uiso   1.00
C454   C     0.91067   0.88070   0.49605   0.00000  Uiso   1.00
C455   C     0.91992   0.90208   0.44785   0.00000  Uiso   1.00
C456   C     0.87477   0.88660   0.41888   0.00000  Uiso   1.00
C457   C     0.84583   0.82630   0.06676   0.00000  Uiso   1.00
C458   C     0.94514   0.88404   0.07612   0.00000  Uiso   1.00
Cu459  Cu    0.77377   0.82772   0.24436   0.00000  Uiso   1.00
Cu460  Cu    0.89290   0.83895   0.25565   0.00000  Uiso   1.00
H461   H     0.76148   0.98689   0.25197   0.00000  Uiso   1.00
H462   H     0.88275   0.90696   0.38319   0.00000  Uiso   1.00
H463   H     0.90365   0.67974   0.25322   0.00000  Uiso   1.00
H464   H     0.92831   0.96663   0.14000   0.00000  Uiso   1.00
H465   H     0.67735   0.69516   0.17514   0.00000  Uiso   1.00
H466   H     0.78630   0.68040   0.15769   0.00000  Uiso   1.00
H467   H     0.81093   0.93336   0.11165   0.00000  Uiso   1.00
H468   H     0.72900   0.87120   0.07653   0.00000  Uiso   1.00
H469   H     0.67026   0.87232   0.28950   0.00000  Uiso   1.00
H470   H     0.99644   0.79443   0.21043   0.00000  Uiso   1.00
H471   H     0.96179   0.93193   0.43284   0.00000  Uiso   1.00
H472   H     0.99896   0.92721   0.00891   0.00000  Uiso   1.00
H473   H     0.80453   0.79754   0.08407   0.00000  Uiso   1.00
H474   H     0.68613   0.77872   0.39962   0.00000  Uiso   1.00
H475   H     0.73367   0.77784   0.04343   0.00000  Uiso   1.00
H476   H     0.99225   0.75266   0.48957   0.00000  Uiso   1.00
N477   N     0.98241   0.84741   0.26416   0.00000  Uiso   1.00
N478   N     0.68426   0.81926   0.23584   0.00000  Uiso   1.00
O479   O     0.79464   0.90474   0.24633   0.00000  Uiso   1.00
O480   O     0.89524   0.91422   0.25587   0.00000  Uiso   1.00
O481   O     0.75848   0.82627   0.31840   0.00000  Uiso   1.00
O482   O     0.85908   0.83575   0.32793   0.00000  Uiso   1.00
O483   O     0.77142   0.75245   0.24414   0.00000  Uiso   1.00
O484   O     0.87203   0.76193   0.25367   0.00000  Uiso   1.00
O485   O     0.80758   0.83092   0.17207   0.00000  Uiso   1.00
O486   O     0.90819   0.84040   0.18161   0.00000  Uiso   1.00
C487   C     0.18162   0.26671   0.75186   0.00000  Uiso   1.00
C488   C     0.11150   0.15988   0.90336   0.00000  Uiso   1.00
C489   C     0.19017   0.32267   0.75276   0.00000  Uiso   1.00
C490   C     0.13273   0.16466   0.84728   0.00000  Uiso   1.00
C491   C     0.14170   0.01068   0.75206   0.00000  Uiso   1.00
C492   C     0.15107   0.06663   0.74995   0.00000  Uiso   1.00
C493   C     0.20098   0.17159   0.65292   0.00000  Uiso   1.00
C494   C     0.28964   0.23185   0.52499   0.00000  Uiso   1.00
C495   C     0.22213   0.18129   0.59755   0.00000  Uiso   1.00
C496   C     0.05265   0.12743   0.92367   0.00000  Uiso   1.00
C497   C     0.03755   0.11167   0.97442   0.00000  Uiso   1.00
C498   C     0.14081   0.16079   0.98655   0.00000  Uiso   1.00
C499   C     0.08154   0.12649   0.50511   0.00000  Uiso   1.00
C500   C     0.32263   0.24728   0.60645   0.00000  Uiso   1.00
C501   C     0.30810   0.29155   0.63498   0.00000  Uiso   1.00
C502   C     0.02145   0.32692   0.65441   0.00000  Uiso   1.00
C503   C     0.08272   0.31834   0.64515   0.00000  Uiso   1.00
C504   C     0.09681   0.27328   0.61858   0.00000  Uiso   1.00
C505   C     0.05028   0.23792   0.59908   0.00000  Uiso   1.00
C506   C     0.15360   0.18028   0.93595   0.00000  Uiso   1.00
C507   C     0.18743   0.17723   0.51655   0.00000  Uiso   1.00
C508   C     0.24400   0.21403   0.99605   0.00000  Uiso   1.00
C509   C     0.25325   0.23541   0.94785   0.00000  Uiso   1.00
C510   C     0.20811   0.21993   0.91888   0.00000  Uiso   1.00
C511   C     0.17917   0.15963   0.56676   0.00000  Uiso   1.00
C512   C     0.27847   0.21738   0.57612   0.00000  Uiso   1.00
Cu513  Cu    0.10710   0.16105   0.74436   0.00000  Uiso   1.00
Cu514  Cu    0.22623   0.17228   0.75565   0.00000  Uiso   1.00
H515   H     0.09481   0.32023   0.75197   0.00000  Uiso   1.00
H516   H     0.21609   0.24030   0.88319   0.00000  Uiso   1.00
H517   H     0.23698   0.01307   0.75322   0.00000  Uiso   1.00
H518   H     0.26165   0.29996   0.64000   0.00000  Uiso   1.00
H519   H     0.01069   0.02849   0.67514   0.00000  Uiso   1.00
H520   H     0.11964   0.01373   0.65769   0.00000  Uiso   1.00
H521   H     0.14426   0.26669   0.61165   0.00000  Uiso   1.00
H522   H     0.06233   0.20453   0.57653   0.00000  Uiso   1.00
H523   H     0.00360   0.20566   0.78950   0.00000  Uiso   1.00
H524   H     0.32977   0.12776   0.71043   0.00000  Uiso   1.00
H525   H     0.29512   0.26527   0.93284   0.00000  Uiso   1.00
H526   H     0.33230   0.26055   0.50891   0.00000  Uiso   1.00
H527   H     0.13786   0.13087   0.58407   0.00000  Uiso   1.00
H528   H     0.01946   0.11205   0.89962   0.00000  Uiso   1.00
H529   H     0.06700   0.11118   0.54343   0.00000  Uiso   1.00
H530   H     0.32558   0.08599   0.98957   0.00000  Uiso   1.00
N531   N     0.31574   0.18074   0.76416   0.00000  Uiso   1.00
N532   N     0.01759   0.15259   0.73584   0.00000  Uiso   1.00
O533   O     0.12797   0.23807   0.74633   0.00000  Uiso   1.00
O534   O     0.22858   0.24755   0.75587   0.00000  Uiso   1.00
O535   O     0.09181   0.15960   0.81840   0.00000  Uiso   1.00
O536   O     0.19242   0.16908   0.82793   0.00000  Uiso   1.00
O537   O     0.10476   0.08578   0.74414   0.00000  Uiso   1.00
O538   O     0.20536   0.09526   0.75367   0.00000  Uiso   1.00
O539   O     0.14092   0.16425   0.67207   0.00000  Uiso   1.00
O540   O     0.24152   0.17373   0.68161   0.00000  Uiso   1.00
C541   C     0.51495   0.26671   0.75186   0.00000  Uiso   1.00
C542   C     0.44483   0.15988   0.90336   0.00000  Uiso   1.00
C543   C     0.52350   0.32267   0.75276   0.00000  Uiso   1.00
C544   C     0.46607   0.16466   0.84728   0.00000  Uiso   1.00
C545   C     0.47504   0.01068   0.75206   0.00000  Uiso   1.00
C546   C     0.48440   0.06663   0.74995   0.00000  Uiso   1.00
C547   C     0.53432   0.17159   0.65292   0.00000  Uiso   1.00
C548   C     0.62298   0.23185   0.52499   0.00000  Uiso   1.00
C549   C     0.55546   0.18129   0.59755   0.00000  Uiso   1.00
C550   C     0.38599   0.12743   0.92367   0.00000  Uiso   1.00
C551   C     0.37088   0.11167   0.97442   0.00000  Uiso   1.00
C552   C     0.47414   0.16079   0.98655   0.00000  Uiso   1.00
C553   C     0.41487   0.12649   0.50511   0.00000  Uiso   1.00
C554   C     0.65596   0.24728   0.60645   0.00000  Uiso   1.00
C555   C     0.64144   0.29155   0.63498   0.00000  Uiso   1.00
C556   C     0.35478   0.32692   0.65441   0.00000  Uiso   1.00
C557   C     0.41606   0.31834   0.64515   0.00000  Uiso   1.00
C558   C     0.43014   0.27328   0.61858   0.00000  Uiso   1.00
C559   C     0.38361   0.23792   0.59908   0.00000  Uiso   1.00
C560   C     0.48694   0.18028   0.93595   0.00000  Uiso   1.00
C561   C     0.52077   0.17723   0.51655   0.00000  Uiso   1.00
C562   C     0.57733   0.21403   0.99605   0.00000  Uiso   1.00
C563   C     0.58658   0.23541   0.94785   0.00000  Uiso   1.00
C564   C     0.54144   0.21993   0.91888   0.00000  Uiso   1.00
C565   C     0.51250   0.15963   0.56676   0.00000  Uiso   1.00
C566   C     0.61181   0.21738   0.57612   0.00000  Uiso   1.00
Cu567  Cu    0.44043   0.16105   0.74436   0.00000  Uiso   1.00
Cu568  Cu    0.55957   0.17228   0.75565   0.00000  Uiso   1.00
H569   H     0.42815   0.32023   0.75197   0.00000  Uiso   1.00
H570   H     0.54942   0.24030   0.88319   0.00000  Uiso   1.00
H571   H     0.57032   0.01307   0.75322   0.00000  Uiso   1.00
H572   H     0.59498   0.29996   0.64000   0.00000  Uiso   1.00
H573   H     0.34402   0.02849   0.67514   0.00000  Uiso   1.00
H574   H     0.45297   0.01373   0.65769   0.00000  Uiso   1.00
H575   H     0.47759   0.26669   0.61165   0.00000  Uiso   1.00
H576   H     0.39567   0.20453   0.57653   0.00000  Uiso   1.00
H577   H     0.33693   0.20566   0.78950   0.00000  Uiso   1.00
H578   H     0.66311   0.12776   0.71043   0.00000  Uiso   1.00
H579   H     0.62845   0.26527   0.93284   0.00000  Uiso   1.00
H580   H     0.66563   0.26055   0.50891   0.00000  Uiso   1.00
H581   H     0.47120   0.13087   0.58407   0.00000  Uiso   1.00
H582   H     0.35279   0.11205   0.89962   0.00000  Uiso   1.00
H583   H     0.40033   0.11118   0.54343   0.00000  Uiso   1.00
H584   H     0.65891   0.08599   0.98957   0.00000  Uiso   1.00
N585   N     0.64908   0.18074   0.76416   0.00000  Uiso   1.00
N586   N     0.35092   0.15259   0.73584   0.00000  Uiso   1.00
O587   O     0.46131   0.23807   0.74633   0.00000  Uiso   1.00
O588   O     0.56191   0.24755   0.75587   0.00000  Uiso   1.00
O589   O     0.42515   0.15960   0.81840   0.00000  Uiso   1.00
O590   O     0.52575   0.16908   0.82793   0.00000  Uiso   1.00
O591   O     0.43809   0.08578   0.74414   0.00000  Uiso   1.00
O592   O     0.53869   0.09526   0.75367   0.00000  Uiso   1.00
O593   O     0.47425   0.16425   0.67207   0.00000  Uiso   1.00
O594   O     0.57485   0.17373   0.68161   0.00000  Uiso   1.00
C595   C     0.84828   0.26671   0.75186   0.00000  Uiso   1.00
C596   C     0.77816   0.15988   0.90336   0.00000  Uiso   1.00
C597   C     0.85684   0.32267   0.75276   0.00000  Uiso   1.00
C598   C     0.79940   0.16466   0.84728   0.00000  Uiso   1.00
C599   C     0.80837   0.01068   0.75206   0.00000  Uiso   1.00
C600   C     0.81774   0.06663   0.74995   0.00000  Uiso   1.00
C601   C     0.86765   0.17159   0.65292   0.00000  Uiso   1.00
C602   C     0.95631   0.23185   0.52499   0.00000  Uiso   1.00
C603   C     0.88880   0.18129   0.59755   0.00000  Uiso   1.00
C604   C     0.71932   0.12743   0.92367   0.00000  Uiso   1.00
C605   C     0.70421   0.11167   0.97442   0.00000  Uiso   1.00
C606   C     0.80747   0.16079   0.98655   0.00000  Uiso   1.00
C607   C     0.74821   0.12649   0.50511   0.00000  Uiso   1.00
C608   C     0.98929   0.24728   0.60645   0.00000  Uiso   1.00
C609   C     0.97477   0.29155   0.63498   0.00000  Uiso   1.00
C610   C     0.68812   0.32692   0.65441   0.00000  Uiso   1.00
C611   C     0.74939   0.31834   0.64515   0.00000  Uiso   1.00
C612   C     0.76347   0.27328   0.61858   0.00000  Uiso   1.00
C613   C     0.71695   0.23792   0.59908   0.00000  Uiso   1.00
C614   C     0.82027   0.18028   0.93595   0.00000  Uiso   1.00
C615   C     0.85410   0.17723   0.51655   0.00000  Uiso   1.00
C616   C     0.91067   0.21403   0.99605   0.00000  Uiso   1.00
C617   C     0.91992   0.23541   0.94785   0.00000  Uiso   1.00
C618   C     0.87477   0.21993   0.91888   0.00000  Uiso   1.00
C619   C     0.84583   0.15963   0.56676   0.00000  Uiso   1.00
C620   C     0.94514   0.21738   0.57612   0.00000  Uiso   1.00
Cu621  Cu    0.77377   0.16105   0.74436   0.00000  Uiso   1.00
Cu622  Cu    0.89290   0.17228   0.75565   0.00000  Uiso   1.00
H623   H     0.76148   0.32023   0.75197   0.00000  Uiso   1.00
H624   H     0.88275   0.24030   0.88319   0.00000  Uiso   1.00
H625   H     0.90365   0.01307   0.75322   0.00000  Uiso   1.00
H626   H     0.92831   0.29996   0.64000   0.00000  Uiso   1.00
H627   H     0.67735   0.02849   0.67514   0.00000  Uiso   1.00
H628   H     0.78630   0.01373   0.65769   0.00000  Uiso   1.00
H629   H     0.81093   0.26669   0.61165   0.00000  Uiso   1.00
H630   H     0.72900   0.20453   0.57653   0.00000  Uiso   1.00
H631   H     0.67026   0.20566   0.78950   0.00000  Uiso   1.00
H632   H     0.99644   0.12776   0.71043   0.00000  Uiso   1.00
H633   H     0.96179   0.26527   0.93284   0.00000  Uiso   1.00
H634   H     0.99896   0.26055   0.50891   0.00000  Uiso   1.00
H635   H     0.80453   0.13087   0.58407   0.00000  Uiso   1.00
H636   H     0.68613   0.11205   0.89962   0.00000  Uiso   1.00
H637   H     0.73367   0.11118   0.54343   0.00000  Uiso   1.00
H638   H     0.99225   0.08599   0.98957   0.00000  Uiso   1.00
N639   N     0.98241   0.18074   0.76416   0.00000  Uiso   1.00
N640   N     0.68426   0.15259   0.73584   0.00000  Uiso   1.00
O641   O     0.79464   0.23807   0.74633   0.00000  Uiso   1.00
O642   O     0.89524   0.24755   0.75587   0.00000  Uiso   1.00
O643   O     0.75848   0.15960   0.81840   0.00000  Uiso   1.00
O644   O     0.85908   0.16908   0.82793   0.00000  Uiso   1.00
O645   O     0.77142   0.08578   0.74414   0.00000  Uiso   1.00
O646   O     0.87203   0.09526   0.75367   0.00000  Uiso   1.00
O647   O     0.80758   0.16425   0.67207   0.00000  Uiso   1.00
O648   O     0.90819   0.17373   0.68161   0.00000  Uiso   1.00
C649   C     0.18162   0.60004   0.75186   0.00000  Uiso   1.00
C650   C     0.11150   0.49321   0.90336   0.00000  Uiso   1.00
C651   C     0.19017   0.65600   0.75276   0.00000  Uiso   1.00
C652   C     0.13273   0.49800   0.84728   0.00000  Uiso   1.00
C653   C     0.14170   0.34402   0.75206   0.00000  Uiso   1.00
C654   C     0.15107   0.39996   0.74995   0.00000  Uiso   1.00
C655   C     0.20098   0.50492   0.65292   0.00000  Uiso   1.00
C656   C     0.28964   0.56519   0.52499   0.00000  Uiso   1.00
C657   C     0.22213   0.51462   0.59755   0.00000  Uiso   1.00
C658   C     0.05265   0.46076   0.92367   0.00000  Uiso   1.00
C659   C     0.03755   0.44501   0.97442   0.00000  Uiso   1.00
C660   C     0.14081   0.49412   0.98655   0.00000  Uiso   1.00
C661   C     0.08154   0.45982   0.50511   0.00000  Uiso   1.00
C662   C     0.32263   0.58061   0.60645   0.00000  Uiso   1.00
C663   C     0.30810   0.62488   0.63498   0.00000  Uiso   1.00
C664   C     0.02145   0.66025   0.65441   0.00000  Uiso   1.00
C665   C     0.08272   0.65168   0.64515   0.00000  Uiso   1.00
C666   C     0.09681   0.60662   0.61858   0.00000  Uiso   1.00
C667   C     0.05028   0.57126   0.59908   0.00000  Uiso   1.00
C668   C     0.15360   0.51362   0.93595   0.00000  Uiso   1.00
C669   C     0.18743   0.51056   0.51655   0.00000  Uiso   1.00
C670   C     0.24400   0.54736   0.99605   0.00000  Uiso   1.00
C671   C     0.25325   0.56874   0.94785   0.00000  Uiso   1.00
C672   C     0.20811   0.55326   0.91888   0.00000  Uiso   1.00
C673   C     0.17917   0.49296   0.56676   0.00000  Uiso   1.00
C674   C     0.27847   0.55071   0.57612   0.00000  Uiso   1.00
Cu675  Cu    0.10710   0.49439   0.74436   0.00000  Uiso   1.00
Cu676  Cu    0.22623   0.50561   0.75565   0.00000  Uiso   1.00
H677   H     0.09481   0.65356   0.75197   0.00000  Uiso   1.00
H678   H     0.21609   0.57363   0.88319   0.00000  Uiso   1.00
H679   H     0.23698   0.34640   0.75322   0.00000  Uiso   1.00
H680   H     0.26165   0.63329   0.64000   0.00000  Uiso   1.00
H681   H     0.01069   0.36183   0.67514   0.00000  Uiso   1.00
H682   H     0.11964   0.34706   0.65769   0.00000  Uiso   1.00
H683   H     0.14426   0.60003   0.61165   0.00000  Uiso   1.00
H684   H     0.06233   0.53786   0.57653   0.00000  Uiso   1.00
H685   H     0.00360   0.53899   0.78950   0.00000  Uiso   1.00
H686   H     0.32977   0.46109   0.71043   0.00000  Uiso   1.00
H687   H     0.29512   0.59860   0.93284   0.00000  Uiso   1.00
H688   H     0.33230   0.59388   0.50891   0.00000  Uiso   1.00
H689   H     0.13786   0.46420   0.58407   0.00000  Uiso   1.00
H690   H     0.01946   0.44539   0.89962   0.00000  Uiso   1.00
H691   H     0.06700   0.44451   0.54343   0.00000  Uiso   1.00
H692   H     0.32558   0.41933   0.98957   0.00000  Uiso   1.00
N693   N     0.31574   0.51407   0.76416   0.00000  Uiso   1.00
N694   N     0.01759   0.48593   0.73584   0.00000  Uiso   1.00
O695   O     0.12797   0.57141   0.74633   0.00000  Uiso   1.00
O696   O     0.22858   0.58089   0.75587   0.00000  Uiso   1.00
O697   O     0.09181   0.49293   0.81840   0.00000  Uiso   1.00
O698   O     0.19242   0.50241   0.82793   0.00000  Uiso   1.00
O699   O     0.10476   0.41911   0.74414   0.00000  Uiso   1.00
O700   O     0.20536   0.42859   0.75367   0.00000  Uiso   1.00
O701   O     0.14092   0.49759   0.67207   0.00000  Uiso   1.00
O702   O     0.24152   0.50707   0.68161   0.00000  Uiso   1.00
C703   C     0.51495   0.60004   0.75186   0.00000  Uiso   1.00
C704   C     0.44483   0.49321   0.90336   0.00000  Uiso   1.00
C705   C     0.52350   0.65600   0.75276   0.00000  Uiso   1.00
C706   C     0.46607   0.49800   0.84728   0.00000  Uiso   1.00
C707   C     0.47504   0.34402   0.75206   0.00000  Uiso   1.00
C708   C     0.48440   0.39996   0.74995   0.00000  Uiso   1.00
C709   C     0.53432   0.50492   0.65292   0.00000  Uiso   1.00
C710   C     0.62298   0.56519   0.52499   0.00000  Uiso   1.00
C711   C     0.55546   0.51462   0.59755   0.00000  Uiso   1.00
C712   C     0.38599   0.46076   0.92367   0.00000  Uiso   1.00
C713   C     0.37088   0.44501   0.97442   0.00000  Uiso   1.00
C714   C     0.47414   0.49412   0.98655   0.00000  Uiso   1.00
C715   C     0.41487   0.45982   0.50511   0.00000  Uiso   1.00
C716   C     0.65596   0.58061   0.60645   0.00000  Uiso   1.00
C717   C     0.64144   0.62488   0.63498   0.00000  Uiso   1.00
C718   C     0.35478   0.66025   0.65441   0.00000  Uiso   1.00
C719   C     0.41606   0.65168   0.64515   0.00000  Uiso   1.00
C720   C     0.43014   0.60662   0.61858   0.00000  Uiso   1.00
C721   C     0.38361   0.57126   0.59908   0.00000  Uiso   1.00
C722   C     0.48694   0.51362   0.93595   0.00000  Uiso   1.00
C723   C     0.52077   0.51056   0.51655   0.00000  Uiso   1.00
C724   C     0.57733   0.54736   0.99605   0.00000  Uiso   1.00
C725   C     0.58658   0.56874   0.94785   0.00000  Uiso   1.00
C726   C     0.54144   0.55326   0.91888   0.00000  Uiso   1.00
C727   C     0.51250   0.49296   0.56676   0.00000  Uiso   1.00
C728   C     0.61181   0.55071   0.57612   0.00000  Uiso   1.00
Cu729  Cu    0.44043   0.49439   0.74436   0.00000  Uiso   1.00
Cu730  Cu    0.55957   0.50561   0.75565   0.00000  Uiso   1.00
H731   H     0.42815   0.65356   0.75197   0.00000  Uiso   1.00
H732   H     0.54942   0.57363   0.88319   0.00000  Uiso   1.00
H733   H     0.57032   0.34640   0.75322   0.00000  Uiso   1.00
H734   H     0.59498   0.63329   0.64000   0.00000  Uiso   1.00
H735   H     0.34402   0.36183   0.67514   0.00000  Uiso   1.00
H736   H     0.45297   0.34706   0.65769   0.00000  Uiso   1.00
H737   H     0.47759   0.60003   0.61165   0.00000  Uiso   1.00
H738   H     0.39567   0.53786   0.57653   0.00000  Uiso   1.00
H739   H     0.33693   0.53899   0.78950   0.00000  Uiso   1.00
H740   H     0.66311   0.46109   0.71043   0.00000  Uiso   1.00
H741   H     0.62845   0.59860   0.93284   0.00000  Uiso   1.00
H742   H     0.66563   0.59388   0.50891   0.00000  Uiso   1.00
H743   H     0.47120   0.46420   0.58407   0.00000  Uiso   1.00
H744   H     0.35279   0.44539   0.89962   0.00000  Uiso   1.00
H745   H     0.40033   0.44451   0.54343   0.00000  Uiso   1.00
H746   H     0.65891   0.41933   0.98957   0.00000  Uiso   1.00
N747   N     0.64908   0.51407   0.76416   0.00000  Uiso   1.00
N748   N     0.35092   0.48593   0.73584   0.00000  Uiso   1.00
O749   O     0.46131   0.57141   0.74633   0.00000  Uiso   1.00
O750   O     0.56191   0.58089   0.75587   0.00000  Uiso   1.00
O751   O     0.42515   0.49293   0.81840   0.00000  Uiso   1.00
O752   O     0.52575   0.50241   0.82793   0.00000  Uiso   1.00
O753   O     0.43809   0.41911   0.74414   0.00000  Uiso   1.00
O754   O     0.53869   0.42859   0.75367   0.00000  Uiso   1.00
O755   O     0.47425   0.49759   0.67207   0.00000  Uiso   1.00
O756   O     0.57485   0.50707   0.68161   0.00000  Uiso   1.00
C757   C     0.84828   0.60004   0.75186   0.00000  Uiso   1.00
C758   C     0.77816   0.49321   0.90336   0.00000  Uiso   1.00
C759   C     0.85684   0.65600   0.75276   0.00000  Uiso   1.00
C760   C     0.79940   0.49800   0.84728   0.00000  Uiso   1.00
C761   C     0.80837   0.34402   0.75206   0.00000  Uiso   1.00
C762   C     0.81774   0.39996   0.74995   0.00000  Uiso   1.00
C763   C     0.86765   0.50492   0.65292   0.00000  Uiso   1.00
C764   C     0.95631   0.56519   0.52499   0.00000  Uiso   1.00
C765   C     0.88880   0.51462   0.59755   0.00000  Uiso   1.00
C766   C     0.71932   0.46076   0.92367   0.00000  Uiso   1.00
C767   C     0.70421   0.44501   0.97442   0.00000  Uiso   1.00
C768   C     0.80747   0.49412   0.98655   0.00000  Uiso   1.00
C769   C     0.74821   0.45982   0.50511   0.00000  Uiso   1.00
C770   C     0.98929   0.58061   0.60645   0.00000  Uiso   1.00
C771   C     0.97477   0.62488   0.63498   0.00000  Uiso   1.00
C772   C     0.68812   0.66025   0.65441   0.00000  Uiso   1.00
C773   C     0.74939   0.65168   0.64515   0.00000  Uiso   1.00
C774   C     0.76347   0.60662   0.61858   0.00000  Uiso   1.00
C775   C     0.71695   0.57126   0.59908   0.00000  Uiso   1.00
C776   C     0.82027   0.51362   0.93595   0.00000  Uiso   1.00
C777   C     0.85410   0.51056   0.51655   0.00000  Uiso   1.00
C778   C     0.91067   0.54736   0.99605   0.00000  Uiso   1.00
C779   C     0.91992   0.56874   0.94785   0.00000  Uiso   1.00
C780   C     0.87477   0.55326   0.91888   0.00000  Uiso   1.00
C781   C     0.84583   0.49296   0.56676   0.00000  Uiso   1.00
C782   C     0.94514   0.55071   0.57612   0.00000  Uiso   1.00
Cu783  Cu    0.77377   0.49439   0.74436   0.00000  Uiso   1.00
Cu784  Cu    0.89290   0.50561   0.75565   0.00000  Uiso   1.00
H785   H     0.76148   0.65356   0.75197   0.00000  Uiso   1.00
H786   H     0.88275   0.57363   0.88319   0.00000  Uiso   1.00
H787   H     0.90365   0.34640   0.75322   0.00000  Uiso   1.00
H788   H     0.92831   0.63329   0.64000   0.00000  Uiso   1.00
H789   H     0.67735   0.36183   0.67514   0.00000  Uiso   1.00
H790   H     0.78630   0.34706   0.65769   0.00000  Uiso   1.00
H791   H     0.81093   0.60003   0.61165   0.00000  Uiso   1.00
H792   H     0.72900   0.53786   0.57653   0.00000  Uiso   1.00
H793   H     0.67026   0.53899   0.78950   0.00000  Uiso   1.00
H794   H     0.99644   0.46109   0.71043   0.00000  Uiso   1.00
H795   H     0.96179   0.59860   0.93284   0.00000  Uiso   1.00
H796   H     0.99896   0.59388   0.50891   0.00000  Uiso   1.00
H797   H     0.80453   0.46420   0.58407   0.00000  Uiso   1.00
H798   H     0.68613   0.44539   0.89962   0.00000  Uiso   1.00
H799   H     0.73367   0.44451   0.54343   0.00000  Uiso   1.00
H800   H     0.99225   0.41933   0.98957   0.00000  Uiso   1.00
N801   N     0.98241   0.51407   0.76416   0.00000  Uiso   1.00
N802   N     0.68426   0.48593   0.73584   0.00000  Uiso   1.00
O803   O     0.79464   0.57141   0.74633   0.00000  Uiso   1.00
O804   O     0.89524   0.58089   0.75587   0.00000  Uiso   1.00
O805   O     0.75848   0.49293   0.81840   0.00000  Uiso   1.00
O806   O     0.85908   0.50241   0.82793   0.00000  Uiso   1.00
O807   O     0.77142   0.41911   0.74414   0.00000  Uiso   1.00
O808   O     0.87203   0.42859   0.75367   0.00000  Uiso   1.00
O809   O     0.80758   0.49759   0.67207   0.00000  Uiso   1.00
O810   O     0.90819   0.50707   0.68161   0.00000  Uiso   1.00
C811   C     0.18162   0.93337   0.75186   0.00000  Uiso   1.00
C812   C     0.11150   0.82654   0.90336   0.00000  Uiso   1.00
C813   C     0.19017   0.98933   0.75276   0.00000  Uiso   1.00
C814   C     0.13273   0.83133   0.84728   0.00000  Uiso   1.00
C815   C     0.14170   0.67735   0.75206   0.00000  Uiso   1.00
C816   C     0.15107   0.73329   0.74995   0.00000  Uiso   1.00
C817   C     0.20098   0.83826   0.65292   0.00000  Uiso   1.00
C818   C     0.28964   0.89852   0.52499   0.00000  Uiso   1.00
C819   C     0.22213   0.84796   0.59755   0.00000  Uiso   1.00
C820   C     0.05265   0.79409   0.92367   0.00000  Uiso   1.00
C821   C     0.03755   0.77834   0.97442   0.00000  Uiso   1.00
C822   C     0.14081   0.82746   0.98655   0.00000  Uiso   1.00
C823   C     0.08154   0.79315   0.50511   0.00000  Uiso   1.00
C824   C     0.32263   0.91395   0.60645   0.00000  Uiso   1.00
C825   C     0.30810   0.95822   0.63498   0.00000  Uiso   1.00
C826   C     0.02145   0.99358   0.65441   0.00000  Uiso   1.00
C827   C     0.08272   0.98501   0.64515   0.00000  Uiso   1.00
C828   C     0.09681   0.93995   0.61858   0.00000  Uiso   1.00
C829   C     0.05028   0.90459   0.59908   0.00000  Uiso   1.00
C830   C     0.15360   0.84695   0.93595   0.00000  Uiso   1.00
C831   C     0.18743   0.84390   0.51655   0.00000  Uiso   1.00
C832   C     0.24400   0.88070   0.99605   0.00000  Uiso   1.00
C833   C     0.25325   0.90208   0.94785   0.00000  Uiso   1.00
C834   C     0.20811   0.88660   0.91888   0.00000  Uiso   1.00
C835   C     0.17917   0.82630   0.56676   0.00000  Uiso   1.00
C836   C     0.27847   0.88404   0.57612   0.00000  Uiso   1.00
Cu837  Cu    0.10710   0.82772   0.74436   0.00000  Uiso   1.00
Cu838  Cu    0.22623   0.83895   0.75565   0.00000  Uiso   1.00
H839   H     0.09481   0.98689   0.75197   0.00000  Uiso   1.00
H840   H     0.21609   0.90696   0.88319   0.00000  Uiso   1.00
H841   H     0.23698   0.67974   0.75322   0.00000  Uiso   1.00
H842   H     0.26165   0.96663   0.64000   0.00000  Uiso   1.00
H843   H     0.01069   0.69516   0.67514   0.00000  Uiso   1.00
H844   H     0.11964   0.68040   0.65769   0.00000  Uiso   1.00
H845   H     0.14426   0.93336   0.61165   0.00000  Uiso   1.00
H846   H     0.06233   0.87120   0.57653   0.00000  Uiso   1.00
H847   H     0.00360   0.87232   0.78950   0.00000  Uiso   1.00
H848   H     0.32977   0.79443   0.71043   0.00000  Uiso   1.00
H849   H     0.29512   0.93193   0.93284   0.00000  Uiso   1.00
H850   H     0.33230   0.92721   0.50891   0.00000  Uiso   1.00
H851   H     0.13786   0.79754   0.58407   0.00000  Uiso   1.00
H852   H     0.01946   0.77872   0.89962   0.00000  Uiso   1.00
H853   H     0.06700   0.77784   0.54343   0.00000  Uiso   1.00
H854   H     0.32558   0.75266   0.98957   0.00000  Uiso   1.00
N855   N     0.31574   0.84741   0.76416   0.00000  Uiso   1.00
N856   N     0.01759   0.81926   0.73584   0.00000  Uiso   1.00
O857   O     0.12797   0.90474   0.74633   0.00000  Uiso   1.00
O858   O     0.22858   0.91422   0.75587   0.00000  Uiso   1.00
O859   O     0.09181   0.82627   0.81840   0.00000  Uiso   1.00
O860   O     0.19242   0.83575   0.82793   0.00000  Uiso   1.00
O861   O     0.10476   0.75245   0.74414   0.00000  Uiso   1.00
O862   O     0.20536   0.76193   0.75367   0.00000  Uiso   1.00
O863   O     0.14092   0.83092   0.67207   0.00000  Uiso   1.00
O864   O     0.24152   0.84040   0.68161   0.00000  Uiso   1.00
C865   C     0.51495   0.93337   0.75186   0.00000  Uiso   1.00
C866   C     0.44483   0.82654   0.90336   0.00000  Uiso   1.00
C867   C     0.52350   0.98933   0.75276   0.00000  Uiso   1.00
C868   C     0.46607   0.83133   0.84728   0.00000  Uiso   1.00
C869   C     0.47504   0.67735   0.75206   0.00000  Uiso   1.00
C870   C     0.48440   0.73329   0.74995   0.00000  Uiso   1.00
C871   C     0.53432   0.83826   0.65292   0.00000  Uiso   1.00
C872   C     0.62298   0.89852   0.52499   0.00000  Uiso   1.00
C873   C     0.55546   0.84796   0.59755   0.00000  Uiso   1.00
C874   C     0.38599   0.79409   0.92367   0.00000  Uiso   1.00
C875   C     0.37088   0.77834   0.97442   0.00000  Uiso   1.00
C876   C     0.47414   0.82746   0.98655   0.00000  Uiso   1.00
C877   C     0.41487   0.79315   0.50511   0.00000  Uiso   1.00
C878   C     0.65596   0.91395   0.60645   0.00000  Uiso   1.00
C879   C     0.64144   0.95822   0.63498   0.00000  Uiso   1.00
C880   C     0.35478   0.99358   0.65441   0.00000  Uiso   1.00
C881   C     0.41606   0.98501   0.64515   0.00000  Uiso   1.00
C882   C     0.43014   0.93995   0.61858   0.00000  Uiso   1.00
C883   C     0.38361   0.90459   0.59908   0.00000  Uiso   1.00
C884   C     0.48694   0.84695   0.93595   0.00000  Uiso   1.00
C885   C     0.52077   0.84390   0.51655   0.00000  Uiso   1.00
C886   C     0.57733   0.88070   0.99605   0.00000  Uiso   1.00
C887   C     0.58658   0.90208   0.94785   0.00000  Uiso   1.00
C888   C     0.54144   0.88660   0.91888   0.00000  Uiso   1.00
C889   C     0.51250   0.82630   0.56676   0.00000  Uiso   1.00
C890   C     0.61181   0.88404   0.57612   0.00000  Uiso   1.00
Cu891  Cu    0.44043   0.82772   0.74436   0.00000  Uiso   1.00
Cu892  Cu    0.55957   0.83895   0.75565   0.00000  Uiso   1.00
H893   H     0.42815   0.98689   0.75197   0.00000  Uiso   1.00
H894   H     0.54942   0.90696   0.88319   0.00000  Uiso   1.00
H895   H     0.57032   0.67974   0.75322   0.00000  Uiso   1.00
H896   H     0.59498   0.96663   0.64000   0.00000  Uiso   1.00
H897   H     0.34402   0.69516   0.67514   0.00000  Uiso   1.00
H898   H     0.45297   0.68040   0.65769   0.00000  Uiso   1.00
H899   H     0.47759   0.93336   0.61165   0.00000  Uiso   1.00
H900   H     0.39567   0.87120   0.57653   0.00000  Uiso   1.00
H901   H     0.33693   0.87232   0.78950   0.00000  Uiso   1.00
H902   H     0.66311   0.79443   0.71043   0.00000  Uiso   1.00
H903   H     0.62845   0.93193   0.93284   0.00000  Uiso   1.00
H904   H     0.66563   0.92721   0.50891   0.00000  Uiso   1.00
H905   H     0.47120   0.79754   0.58407   0.00000  Uiso   1.00
H906   H     0.35279   0.77872   0.89962   0.00000  Uiso   1.00
H907   H     0.40033   0.77784   0.54343   0.00000  Uiso   1.00
H908   H     0.65891   0.75266   0.98957   0.00000  Uiso   1.00
N909   N     0.64908   0.84741   0.76416   0.00000  Uiso   1.00
N910   N     0.35092   0.81926   0.73584   0.00000  Uiso   1.00
O911   O     0.46131   0.90474   0.74633   0.00000  Uiso   1.00
O912   O     0.56191   0.91422   0.75587   0.00000  Uiso   1.00
O913   O     0.42515   0.82627   0.81840   0.00000  Uiso   1.00
O914   O     0.52575   0.83575   0.82793   0.00000  Uiso   1.00
O915   O     0.43809   0.75245   0.74414   0.00000  Uiso   1.00
O916   O     0.53869   0.76193   0.75367   0.00000  Uiso   1.00
O917   O     0.47425   0.83092   0.67207   0.00000  Uiso   1.00
O918   O     0.57485   0.84040   0.68161   0.00000  Uiso   1.00
C919   C     0.84828   0.93337   0.75186   0.00000  Uiso   1.00
C920   C     0.77816   0.82654   0.90336   0.00000  Uiso   1.00
C921   C     0.85684   0.98933   0.75276   0.00000  Uiso   1.00
C922   C     0.79940   0.83133   0.84728   0.00000  Uiso   1.00
C923   C     0.80837   0.67735   0.75206   0.00000  Uiso   1.00
C924   C     0.81774   0.73329   0.74995   0.00000  Uiso   1.00
C925   C     0.86765   0.83826   0.65292   0.00000  Uiso   1.00
C926   C     0.95631   0.89852   0.52499   0.00000  Uiso   1.00
C927   C     0.88880   0.84796   0.59755   0.00000  Uiso   1.00
C928   C     0.71932   0.79409   0.92367   0.00000  Uiso   1.00
C929   C     0.70421   0.77834   0.97442   0.00000  Uiso   1.00
C930   C     0.80747   0.82746   0.98655   0.00000  Uiso   1.00
C931   C     0.74821   0.79315   0.50511   0.00000  Uiso   1.00
C932   C     0.98929   0.91395   0.60645   0.00000  Uiso   1.00
C933   C     0.97477   0.95822   0.63498   0.00000  Uiso   1.00
C934   C     0.68812   0.99358   0.65441   0.00000  Uiso   1.00
C935   C     0.74939   0.98501   0.64515   0.00000  Uiso   1.00
C936   C     0.76347   0.93995   0.61858   0.00000  Uiso   1.00
C937   C     0.71695   0.90459   0.59908   0.00000  Uiso   1.00
C938   C     0.82027   0.84695   0.93595   0.00000  Uiso   1.00
C939   C     0.85410   0.84390   0.51655   0.00000  Uiso   1.00
C940   C     0.91067   0.88070   0.99605   0.00000  Uiso   1.00
C941   C     0.91992   0.90208   0.94785   0.00000  Uiso   1.00
C942   C     0.87477   0.88660   0.91888   0.00000  Uiso   1.00
C943   C     0.84583   0.82630   0.56676   0.00000  Uiso   1.00
C944   C     0.94514   0.88404   0.57612   0.00000  Uiso   1.00
Cu945  Cu    0.77377   0.82772   0.74436   0.00000  Uiso   1.00
Cu946  Cu    0.89290   0.83895   0.75565   0.00000  Uiso   1.00
H947   H     0.76148   0.98689   0.75197   0.00000  Uiso   1.00
H948   H     0.88275   0.90696   0.88319   0.00000  Uiso   1.00
H949   H     0.90365   0.67974   0.75322   0.00000  Uiso   1.00
H950   H     0.92831   0.96663   0.64000   0.00000  Uiso   1.00
H951   H     0.67735   0.69516   0.67514   0.00000  Uiso   1.00
H952   H     0.78630   0.68040   0.65769   0.00000  Uiso   1.00
H953   H     0.81093   0.93336   0.61165   0.00000  Uiso   1.00
H954   H     0.72900   0.87120   0.57653   0.00000  Uiso   1.00
H955   H     0.67026   0.87232   0.78950   0.00000  Uiso   1.00
H956   H     0.99644   0.79443   0.71043   0.00000  Uiso   1.00
H957   H     0.96179   0.93193   0.93284   0.00000  Uiso   1.00
H958   H     0.99896   0.92721   0.50891   0.00000  Uiso   1.00
H959   H     0.80453   0.79754   0.58407   0.00000  Uiso   1.00
H960   H     0.68613   0.77872   0.89962   0.00000  Uiso   1.00
H961   H     0.73367   0.77784   0.54343   0.00000  Uiso   1.00
H962   H     0.99225   0.75266   0.98957   0.00000  Uiso   1.00
N963   N     0.98241   0.84741   0.76416   0.00000  Uiso   1.00
N964   N     0.68426   0.81926   0.73584   0.00000  Uiso   1.00
O965   O     0.79464   0.90474   0.74633   0.00000  Uiso   1.00
O966   O     0.89524   0.91422   0.75587   0.00000  Uiso   1.00
O967   O     0.75848   0.82627   0.81840   0.00000  Uiso   1.00
O968   O     0.85908   0.83575   0.82793   0.00000  Uiso   1.00
O969   O     0.77142   0.75245   0.74414   0.00000  Uiso   1.00
O970   O     0.87203   0.76193   0.75367   0.00000  Uiso   1.00
O971   O     0.80758   0.83092   0.67207   0.00000  Uiso   1.00
O972   O     0.90819   0.84040   0.68161   0.00000  Uiso   1.00
loop_
_geom_bond_atom_site_label_1
_geom_bond_atom_site_label_2
_geom_bond_distance
_geom_bond_site_symmetry_2
_ccdc_geom_bond_type
C1     O48     1.284   .     A
C1     O47     1.292   .     A
C1     C3      1.425   .     S
C2     C4      1.475   .     S
C2     C10     1.400   .     A
C2     C20     1.419   .     A
C3     C167    1.326   .     S
C3     H193    1.088   .     S
C4     O49     1.304   .     A
C4     O50     1.295   .     A
C5     C6      1.426   .     S
C5     C327    1.326   1_545 S
C5     H353    1.088   1_545 S
C6     O51     1.285   .     A
C6     O52     1.291   .     A
C7     O53     1.295   .     A
C7     C9      1.472   .     S
C7     O54     1.302   .     A
C8     C26     1.395   .     A
C8     H40     1.086   .     S
C8     C508    1.397   1_554 S
C9     C25     1.405   .     A
C9     C26     1.412   .     A
C10    H42     1.083   .     S
C10    C11     1.389   .     A
C11    C499    1.393   .     S
C11    H152    1.083   1_455 S
C12    C20     1.422   .     A
C12    C499    1.418   .     S
C12    C507    1.430   .     S
C13    H43     1.077   .     S
C13    C498    1.418   1_554 S
C13    C497    1.393   1_554 S
C14    C26     1.475   .     S
C14    C15     1.404   .     A
C14    C73     1.403   .     S
C15    H32     1.083   .     S
C15    C70     1.398   .     S
C16    C17     1.398   .     A
C16    C123    1.398   1_455 S
C16    H195    1.082   .     S
C17    C18     1.396   .     A
C17    H196    1.079   .     S
C18    H35     1.082   .     S
C18    C19     1.397   .     A
C19    H36     1.079   .     S
C19    C122    1.403   1_455 S
C20    C24     1.410   .     A
C21    C25     1.407   .     A
C21    C498    1.430   1_554 S
C21    C508    1.418   1_554 S
C22    C23     1.391   .     A
C22    C507    1.418   .     S
C22    C494    1.397   .     S
C23    C24     1.382   .     A
C23    H39     1.084   .     S
C24    H30     1.081   .     S
C25    H41     1.077   .     S
Cu27   O53     1.914   .     S
Cu27   O49     1.938   .     S
Cu27   N46     2.020   .     S
Cu27   O47     1.953   .     S
Cu27   O51     1.948   .     S
Cu27   Cu28    2.688   .     S
Cu28   O52     1.953   .     S
Cu28   O50     1.914   .     S
Cu28   N45     2.020   .     S
Cu28   O54     1.938   .     S
Cu28   O48     1.948   .     S
H29    C167    1.088   .     S
H31    C327    1.088   1_545 S
H33    C340    1.082   1_545 S
H34    C341    1.079   1_545 S
H37    N153    1.029   1_455 S
H38    N100    1.029   .     S
H44    C65     1.083   .     S
N45    H91     1.029   .     S
N45    N100    1.286   .     S
N46    N153    1.286   1_455 S
N46    H146    1.029   1_455 S
C55    O102    1.284   .     A
C55    O101    1.292   .     A
C55    C57     1.425   .     S
C56    C58     1.475   .     S
C56    C64     1.400   .     A
C56    C74     1.419   .     A
C57    C221    1.326   .     S
C57    H247    1.088   .     S
C58    O103    1.304   .     A
C58    O104    1.295   .     A
C59    C60     1.426   .     S
C59    C381    1.326   1_545 S
C59    H407    1.088   1_545 S
C60    O105    1.285   .     A
C60    O106    1.291   .     A
C61    O107    1.295   .     A
C61    C63     1.472   .     S
C61    O108    1.302   .     A
C62    C80     1.395   .     A
C62    H94     1.086   .     S
C62    C562    1.397   1_554 S
C63    C79     1.405   .     A
C63    C80     1.412   .     A
C64    H96     1.083   .     S
C64    C65     1.389   .     A
C65    C553    1.393   .     S
C66    C74     1.422   .     A
C66    C553    1.418   .     S
C66    C561    1.430   .     S
C67    H97     1.077   .     S
C67    C552    1.418   1_554 S
C67    C551    1.393   1_554 S
C68    C80     1.475   .     S
C68    C69     1.404   .     A
C68    C127    1.403   .     S
C69    H86     1.083   .     S
C69    C124    1.398   .     S
C70    C71     1.398   .     A
C70    H249    1.082   .     S
C71    C72     1.396   .     A
C71    H250    1.079   .     S
C72    H89     1.082   .     S
C72    C73     1.397   .     A
C73    H90     1.079   .     S
C74    C78     1.410   .     A
C75    C79     1.407   .     A
C75    C552    1.430   1_554 S
C75    C562    1.418   1_554 S
C76    C77     1.391   .     A
C76    C561    1.418   .     S
C76    C548    1.397   .     S
C77    C78     1.382   .     A
C77    H93     1.084   .     S
C78    H84     1.081   .     S
C79    H95     1.077   .     S
Cu81   O107    1.914   .     S
Cu81   O103    1.938   .     S
Cu81   N100    2.020   .     S
Cu81   O101    1.953   .     S
Cu81   O105    1.948   .     S
Cu81   Cu82    2.688   .     S
Cu82   O106    1.953   .     S
Cu82   O104    1.914   .     S
Cu82   N99     2.020   .     S
Cu82   O108    1.938   .     S
Cu82   O102    1.948   .     S
H83    C221    1.088   .     S
H85    C381    1.088   1_545 S
H87    C394    1.082   1_545 S
H88    C395    1.079   1_545 S
H92    N154    1.029   .     S
H98    C119    1.083   .     S
N99    H145    1.029   .     S
N99    N154    1.286   .     S
C109   O156    1.284   .     A
C109   O155    1.292   .     A
C109   C111    1.425   .     S
C110   C112    1.475   .     S
C110   C118    1.400   .     A
C110   C128    1.419   .     A
C111   C275    1.326   .     S
C111   H301    1.088   .     S
C112   O157    1.304   .     A
C112   O158    1.295   .     A
C113   C114    1.426   .     S
C113   C435    1.326   1_545 S
C113   H461    1.088   1_545 S
C114   O159    1.285   .     A
C114   O160    1.291   .     A
C115   O161    1.295   .     A
C115   C117    1.472   .     S
C115   O162    1.302   .     A
C116   C134    1.395   .     A
C116   H148    1.086   .     S
C116   C616    1.397   1_554 S
C117   C133    1.405   .     A
C117   C134    1.412   .     A
C118   H150    1.083   .     S
C118   C119    1.389   .     A
C119   C607    1.393   .     S
C120   C128    1.422   .     A
C120   C607    1.418   .     S
C120   C615    1.430   .     S
C121   H151    1.077   .     S
C121   C606    1.418   1_554 S
C121   C605    1.393   1_554 S
C122   C134    1.475   .     S
C122   C123    1.404   .     A
C122   C19     1.403   1_655 S
C123   H140    1.083   .     S
C123   C16     1.398   1_655 S
C124   C125    1.398   .     A
C124   H303    1.082   .     S
C125   C126    1.396   .     A
C125   H304    1.079   .     S
C126   H143    1.082   .     S
C126   C127    1.397   .     A
C127   H144    1.079   .     S
C128   C132    1.410   .     A
C129   C133    1.407   .     A
C129   C606    1.430   1_554 S
C129   C616    1.418   1_554 S
C130   C131    1.391   .     A
C130   C615    1.418   .     S
C130   C602    1.397   .     S
C131   C132    1.382   .     A
C131   H147    1.084   .     S
C132   H138    1.081   .     S
C133   H149    1.077   .     S
Cu135  O161    1.914   .     S
Cu135  O157    1.938   .     S
Cu135  N154    2.020   .     S
Cu135  O155    1.953   .     S
Cu135  O159    1.948   .     S
Cu135  Cu136   2.688   .     S
Cu136  O160    1.953   .     S
Cu136  O158    1.914   .     S
Cu136  N153    2.020   .     S
Cu136  O162    1.938   .     S
Cu136  O156    1.948   .     S
H137   C275    1.088   .     S
H139   C435    1.088   1_545 S
H141   C448    1.082   1_545 S
H142   C449    1.079   1_545 S
H146   N46     1.029   1_655 S
H152   C11     1.083   1_655 S
N153   H37     1.029   1_655 S
N153   N46     1.286   1_655 S
C163   O210    1.284   .     A
C163   O209    1.292   .     A
C163   C165    1.425   .     S
C164   C166    1.475   .     S
C164   C172    1.400   .     A
C164   C182    1.419   .     A
C165   C329    1.326   .     S
C165   H355    1.088   .     S
C166   O211    1.304   .     A
C166   O212    1.295   .     A
C167   C168    1.426   .     S
C168   O213    1.285   .     A
C168   O214    1.291   .     A
C169   O215    1.295   .     A
C169   C171    1.472   .     S
C169   O216    1.302   .     A
C170   C188    1.395   .     A
C170   H202    1.086   .     S
C170   C670    1.397   1_554 S
C171   C187    1.405   .     A
C171   C188    1.412   .     A
C172   H204    1.083   .     S
C172   C173    1.389   .     A
C173   C661    1.393   .     S
C173   H314    1.083   1_455 S
C174   C182    1.422   .     A
C174   C661    1.418   .     S
C174   C669    1.430   .     S
C175   H205    1.077   .     S
C175   C660    1.418   1_554 S
C175   C659    1.393   1_554 S
C176   C188    1.475   .     S
C176   C177    1.404   .     A
C176   C235    1.403   .     S
C177   H194    1.083   .     S
C177   C232    1.398   .     S
C178   C179    1.398   .     A
C178   C285    1.398   1_455 S
C178   H357    1.082   .     S
C179   C180    1.396   .     A
C179   H358    1.079   .     S
C180   H197    1.082   .     S
C180   C181    1.397   .     A
C181   H198    1.079   .     S
C181   C284    1.403   1_455 S
C182   C186    1.410   .     A
C183   C187    1.407   .     A
C183   C660    1.430   1_554 S
C183   C670    1.418   1_554 S
C184   C185    1.391   .     A
C184   C669    1.418   .     S
C184   C656    1.397   .     S
C185   C186    1.382   .     A
C185   H201    1.084   .     S
C186   H192    1.081   .     S
C187   H203    1.077   .     S
Cu189  O215    1.914   .     S
Cu189  O211    1.938   .     S
Cu189  N208    2.020   .     S
Cu189  O209    1.953   .     S
Cu189  O213    1.948   .     S
Cu189  Cu190   2.688   .     S
Cu190  O214    1.953   .     S
Cu190  O212    1.914   .     S
Cu190  N207    2.020   .     S
Cu190  O216    1.938   .     S
Cu190  O210    1.948   .     S
H191   C329    1.088   .     S
H199   N315    1.029   1_455 S
H200   N262    1.029   .     S
H206   C227    1.083   .     S
N207   H253    1.029   .     S
N207   N262    1.286   .     S
N208   N315    1.286   1_455 S
N208   H308    1.029   1_455 S
C217   O264    1.284   .     A
C217   O263    1.292   .     A
C217   C219    1.425   .     S
C218   C220    1.475   .     S
C218   C226    1.400   .     A
C218   C236    1.419   .     A
C219   C383    1.326   .     S
C219   H409    1.088   .     S
C220   O265    1.304   .     A
C220   O266    1.295   .     A
C221   C222    1.426   .     S
C222   O267    1.285   .     A
C222   O268    1.291   .     A
C223   O269    1.295   .     A
C223   C225    1.472   .     S
C223   O270    1.302   .     A
C224   C242    1.395   .     A
C224   H256    1.086   .     S
C224   C724    1.397   1_554 S
C225   C241    1.405   .     A
C225   C242    1.412   .     A
C226   H258    1.083   .     S
C226   C227    1.389   .     A
C227   C715    1.393   .     S
C228   C236    1.422   .     A
C228   C715    1.418   .     S
C228   C723    1.430   .     S
C229   H259    1.077   .     S
C229   C714    1.418   1_554 S
C229   C713    1.393   1_554 S
C230   C242    1.475   .     S
C230   C231    1.404   .     A
C230   C289    1.403   .     S
C231   H248    1.083   .     S
C231   C286    1.398   .     S
C232   C233    1.398   .     A
C232   H411    1.082   .     S
C233   C234    1.396   .     A
C233   H412    1.079   .     S
C234   H251    1.082   .     S
C234   C235    1.397   .     A
C235   H252    1.079   .     S
C236   C240    1.410   .     A
C237   C241    1.407   .     A
C237   C714    1.430   1_554 S
C237   C724    1.418   1_554 S
C238   C239    1.391   .     A
C238   C723    1.418   .     S
C238   C710    1.397   .     S
C239   C240    1.382   .     A
C239   H255    1.084   .     S
C240   H246    1.081   .     S
C241   H257    1.077   .     S
Cu243  O269    1.914   .     S
Cu243  O265    1.938   .     S
Cu243  N262    2.020   .     S
Cu243  O263    1.953   .     S
Cu243  O267    1.948   .     S
Cu243  Cu244   2.688   .     S
Cu244  O268    1.953   .     S
Cu244  O266    1.914   .     S
Cu244  N261    2.020   .     S
Cu244  O270    1.938   .     S
Cu244  O264    1.948   .     S
H245   C383    1.088   .     S
H254   N316    1.029   .     S
H260   C281    1.083   .     S
N261   H307    1.029   .     S
N261   N316    1.286   .     S
C271   O318    1.284   .     A
C271   O317    1.292   .     A
C271   C273    1.425   .     S
C272   C274    1.475   .     S
C272   C280    1.400   .     A
C272   C290    1.419   .     A
C273   C437    1.326   .     S
C273   H463    1.088   .     S
C274   O319    1.304   .     A
C274   O320    1.295   .     A
C275   C276    1.426   .     S
C276   O321    1.285   .     A
C276   O322    1.291   .     A
C277   O323    1.295   .     A
C277   C279    1.472   .     S
C277   O324    1.302   .     A
C278   C296    1.395   .     A
C278   H310    1.086   .     S
C278   C778    1.397   1_554 S
C279   C295    1.405   .     A
C279   C296    1.412   .     A
C280   H312    1.083   .     S
C280   C281    1.389   .     A
C281   C769    1.393   .     S
C282   C290    1.422   .     A
C282   C769    1.418   .     S
C282   C777    1.430   .     S
C283   H313    1.077   .     S
C283   C768    1.418   1_554 S
C283   C767    1.393   1_554 S
C284   C296    1.475   .     S
C284   C285    1.404   .     A
C284   C181    1.403   1_655 S
C285   H302    1.083   .     S
C285   C178    1.398   1_655 S
C286   C287    1.398   .     A
C286   H465    1.082   .     S
C287   C288    1.396   .     A
C287   H466    1.079   .     S
C288   H305    1.082   .     S
C288   C289    1.397   .     A
C289   H306    1.079   .     S
C290   C294    1.410   .     A
C291   C295    1.407   .     A
C291   C768    1.430   1_554 S
C291   C778    1.418   1_554 S
C292   C293    1.391   .     A
C292   C777    1.418   .     S
C292   C764    1.397   .     S
C293   C294    1.382   .     A
C293   H309    1.084   .     S
C294   H300    1.081   .     S
C295   H311    1.077   .     S
Cu297  O323    1.914   .     S
Cu297  O319    1.938   .     S
Cu297  N316    2.020   .     S
Cu297  O317    1.953   .     S
Cu297  O321    1.948   .     S
Cu297  Cu298   2.688   .     S
Cu298  O322    1.953   .     S
Cu298  O320    1.914   .     S
Cu298  N315    2.020   .     S
Cu298  O324    1.938   .     S
Cu298  O318    1.948   .     S
H299   C437    1.088   .     S
H308   N208    1.029   1_655 S
H314   C173    1.083   1_655 S
N315   H199    1.029   1_655 S
N315   N208    1.286   1_655 S
C325   O372    1.284   .     A
C325   O371    1.292   .     A
C325   C327    1.425   .     S
C326   C328    1.475   .     S
C326   C334    1.400   .     A
C326   C344    1.419   .     A
C327   C5      1.326   1_565 S
C327   H31     1.088   1_565 S
C328   O373    1.304   .     A
C328   O374    1.295   .     A
C329   C330    1.426   .     S
C330   O375    1.285   .     A
C330   O376    1.291   .     A
C331   O377    1.295   .     A
C331   C333    1.472   .     S
C331   O378    1.302   .     A
C332   C350    1.395   .     A
C332   H364    1.086   .     S
C332   C832    1.397   1_554 S
C333   C349    1.405   .     A
C333   C350    1.412   .     A
C334   H366    1.083   .     S
C334   C335    1.389   .     A
C335   C823    1.393   .     S
C335   H476    1.083   1_455 S
C336   C344    1.422   .     A
C336   C823    1.418   .     S
C336   C831    1.430   .     S
C337   H367    1.077   .     S
C337   C822    1.418   1_554 S
C337   C821    1.393   1_554 S
C338   C350    1.475   .     S
C338   C339    1.404   .     A
C338   C397    1.403   .     S
C339   H356    1.083   .     S
C339   C394    1.398   .     S
C340   C341    1.398   .     A
C340   C447    1.398   1_455 S
C340   H33     1.082   1_565 S
C341   C342    1.396   .     A
C341   H34     1.079   1_565 S
C342   H359    1.082   .     S
C342   C343    1.397   .     A
C343   H360    1.079   .     S
C343   C446    1.403   1_455 S
C344   C348    1.410   .     A
C345   C349    1.407   .     A
C345   C822    1.430   1_554 S
C345   C832    1.418   1_554 S
C346   C347    1.391   .     A
C346   C831    1.418   .     S
C346   C818    1.397   .     S
C347   C348    1.382   .     A
C347   H363    1.084   .     S
C348   H354    1.081   .     S
C349   H365    1.077   .     S
Cu351  O377    1.914   .     S
Cu351  O373    1.938   .     S
Cu351  N370    2.020   .     S
Cu351  O371    1.953   .     S
Cu351  O375    1.948   .     S
Cu351  Cu352   2.688   .     S
Cu352  O376    1.953   .     S
Cu352  O374    1.914   .     S
Cu352  N369    2.020   .     S
Cu352  O378    1.938   .     S
Cu352  O372    1.948   .     S
H353   C5      1.088   1_565 S
H361   N477    1.029   1_455 S
H362   N424    1.029   .     S
H368   C389    1.083   .     S
N369   H415    1.029   .     S
N369   N424    1.286   .     S
N370   N477    1.286   1_455 S
N370   H470    1.029   1_455 S
C379   O426    1.284   .     A
C379   O425    1.292   .     A
C379   C381    1.425   .     S
C380   C382    1.475   .     S
C380   C388    1.400   .     A
C380   C398    1.419   .     A
C381   C59     1.326   1_565 S
C381   H85     1.088   1_565 S
C382   O427    1.304   .     A
C382   O428    1.295   .     A
C383   C384    1.426   .     S
C384   O429    1.285   .     A
C384   O430    1.291   .     A
C385   O431    1.295   .     A
C385   C387    1.472   .     S
C385   O432    1.302   .     A
C386   C404    1.395   .     A
C386   H418    1.086   .     S
C386   C886    1.397   1_554 S
C387   C403    1.405   .     A
C387   C404    1.412   .     A
C388   H420    1.083   .     S
C388   C389    1.389   .     A
C389   C877    1.393   .     S
C390   C398    1.422   .     A
C390   C877    1.418   .     S
C390   C885    1.430   .     S
C391   H421    1.077   .     S
C391   C876    1.418   1_554 S
C391   C875    1.393   1_554 S
C392   C404    1.475   .     S
C392   C393    1.404   .     A
C392   C451    1.403   .     S
C393   H410    1.083   .     S
C393   C448    1.398   .     S
C394   C395    1.398   .     A
C394   H87     1.082   1_565 S
C395   C396    1.396   .     A
C395   H88     1.079   1_565 S
C396   H413    1.082   .     S
C396   C397    1.397   .     A
C397   H414    1.079   .     S
C398   C402    1.410   .     A
C399   C403    1.407   .     A
C399   C876    1.430   1_554 S
C399   C886    1.418   1_554 S
C400   C401    1.391   .     A
C400   C885    1.418   .     S
C400   C872    1.397   .     S
C401   C402    1.382   .     A
C401   H417    1.084   .     S
C402   H408    1.081   .     S
C403   H419    1.077   .     S
Cu405  O431    1.914   .     S
Cu405  O427    1.938   .     S
Cu405  N424    2.020   .     S
Cu405  O425    1.953   .     S
Cu405  O429    1.948   .     S
Cu405  Cu406   2.688   .     S
Cu406  O430    1.953   .     S
Cu406  O428    1.914   .     S
Cu406  N423    2.020   .     S
Cu406  O432    1.938   .     S
Cu406  O426    1.948   .     S
H407   C59     1.088   1_565 S
H416   N478    1.029   .     S
H422   C443    1.083   .     S
N423   H469    1.029   .     S
N423   N478    1.286   .     S
C433   O480    1.284   .     A
C433   O479    1.292   .     A
C433   C435    1.425   .     S
C434   C436    1.475   .     S
C434   C442    1.400   .     A
C434   C452    1.419   .     A
C435   C113    1.326   1_565 S
C435   H139    1.088   1_565 S
C436   O481    1.304   .     A
C436   O482    1.295   .     A
C437   C438    1.426   .     S
C438   O483    1.285   .     A
C438   O484    1.291   .     A
C439   O485    1.295   .     A
C439   C441    1.472   .     S
C439   O486    1.302   .     A
C440   C458    1.395   .     A
C440   H472    1.086   .     S
C440   C940    1.397   1_554 S
C441   C457    1.405   .     A
C441   C458    1.412   .     A
C442   H474    1.083   .     S
C442   C443    1.389   .     A
C443   C931    1.393   .     S
C444   C452    1.422   .     A
C444   C931    1.418   .     S
C444   C939    1.430   .     S
C445   H475    1.077   .     S
C445   C930    1.418   1_554 S
C445   C929    1.393   1_554 S
C446   C458    1.475   .     S
C446   C447    1.404   .     A
C446   C343    1.403   1_655 S
C447   H464    1.083   .     S
C447   C340    1.398   1_655 S
C448   C449    1.398   .     A
C448   H141    1.082   1_565 S
C449   C450    1.396   .     A
C449   H142    1.079   1_565 S
C450   H467    1.082   .     S
C450   C451    1.397   .     A
C451   H468    1.079   .     S
C452   C456    1.410   .     A
C453   C457    1.407   .     A
C453   C930    1.430   1_554 S
C453   C940    1.418   1_554 S
C454   C455    1.391   .     A
C454   C939    1.418   .     S
C454   C926    1.397   .     S
C455   C456    1.382   .     A
C455   H471    1.084   .     S
C456   H462    1.081   .     S
C457   H473    1.077   .     S
Cu459  O485    1.914   .     S
Cu459  O481    1.938   .     S
Cu459  N478    2.020   .     S
Cu459  O479    1.953   .     S
Cu459  O483    1.948   .     S
Cu459  Cu460   2.688   .     S
Cu460  O484    1.953   .     S
Cu460  O482    1.914   .     S
Cu460  N477    2.020   .     S
Cu460  O486    1.938   .     S
Cu460  O480    1.948   .     S
H461   C113    1.088   1_565 S
H470   N370    1.029   1_655 S
H476   C335    1.083   1_655 S
N477   H361    1.029   1_655 S
N477   N370    1.286   1_655 S
C487   O534    1.284   .     A
C487   O533    1.292   .     A
C487   C489    1.425   .     S
C488   C490    1.475   .     S
C488   C496    1.400   .     A
C488   C506    1.419   .     A
C489   C653    1.326   .     S
C489   H679    1.088   .     S
C490   O535    1.304   .     A
C490   O536    1.295   .     A
C491   C492    1.426   .     S
C491   C813    1.326   1_545 S
C491   H839    1.088   1_545 S
C492   O537    1.285   .     A
C492   O538    1.291   .     A
C493   O539    1.295   .     A
C493   C495    1.472   .     S
C493   O540    1.302   .     A
C494   C512    1.395   .     A
C494   H526    1.086   .     S
C495   C511    1.405   .     A
C495   C512    1.412   .     A
C496   H528    1.083   .     S
C496   C497    1.389   .     A
C497   C13     1.393   1_556 S
C497   H638    1.083   1_455 S
C498   C506    1.422   .     A
C498   C13     1.418   1_556 S
C498   C21     1.430   1_556 S
C499   H529    1.077   .     S
C500   C512    1.475   .     S
C500   C501    1.404   .     A
C500   C559    1.403   .     S
C501   H518    1.083   .     S
C501   C556    1.398   .     S
C502   C503    1.398   .     A
C502   C609    1.398   1_455 S
C502   H681    1.082   .     S
C503   C504    1.396   .     A
C503   H682    1.079   .     S
C504   H521    1.082   .     S
C504   C505    1.397   .     A
C505   H522    1.079   .     S
C505   C608    1.403   1_455 S
C506   C510    1.410   .     A
C507   C511    1.407   .     A
C508   C509    1.391   .     A
C508   C21     1.418   1_556 S
C508   C8      1.397   1_556 S
C509   C510    1.382   .     A
C509   H525    1.084   .     S
C510   H516    1.081   .     S
C511   H527    1.077   .     S
Cu513  O539    1.914   .     S
Cu513  O535    1.938   .     S
Cu513  N532    2.020   .     S
Cu513  O533    1.953   .     S
Cu513  O537    1.948   .     S
Cu513  Cu514   2.688   .     S
Cu514  O538    1.953   .     S
Cu514  O536    1.914   .     S
Cu514  N531    2.020   .     S
Cu514  O540    1.938   .     S
Cu514  O534    1.948   .     S
H515   C653    1.088   .     S
H517   C813    1.088   1_545 S
H519   C826    1.082   1_545 S
H520   C827    1.079   1_545 S
H523   N639    1.029   1_455 S
H524   N586    1.029   .     S
H530   C551    1.083   .     S
N531   H577    1.029   .     S
N531   N586    1.286   .     S
N532   N639    1.286   1_455 S
N532   H632    1.029   1_455 S
C541   O588    1.284   .     A
C541   O587    1.292   .     A
C541   C543    1.425   .     S
C542   C544    1.475   .     S
C542   C550    1.400   .     A
C542   C560    1.419   .     A
C543   C707    1.326   .     S
C543   H733    1.088   .     S
C544   O589    1.304   .     A
C544   O590    1.295   .     A
C545   C546    1.426   .     S
C545   C867    1.326   1_545 S
C545   H893    1.088   1_545 S
C546   O591    1.285   .     A
C546   O592    1.291   .     A
C547   O593    1.295   .     A
C547   C549    1.472   .     S
C547   O594    1.302   .     A
C548   C566    1.395   .     A
C548   H580    1.086   .     S
C549   C565    1.405   .     A
C549   C566    1.412   .     A
C550   H582    1.083   .     S
C550   C551    1.389   .     A
C551   C67     1.393   1_556 S
C552   C560    1.422   .     A
C552   C67     1.418   1_556 S
C552   C75     1.430   1_556 S
C553   H583    1.077   .     S
C554   C566    1.475   .     S
C554   C555    1.404   .     A
C554   C613    1.403   .     S
C555   H572    1.083   .     S
C555   C610    1.398   .     S
C556   C557    1.398   .     A
C556   H735    1.082   .     S
C557   C558    1.396   .     A
C557   H736    1.079   .     S
C558   H575    1.082   .     S
C558   C559    1.397   .     A
C559   H576    1.079   .     S
C560   C564    1.410   .     A
C561   C565    1.407   .     A
C562   C563    1.391   .     A
C562   C75     1.418   1_556 S
C562   C62     1.397   1_556 S
C563   C564    1.382   .     A
C563   H579    1.084   .     S
C564   H570    1.081   .     S
C565   H581    1.077   .     S
Cu567  O593    1.914   .     S
Cu567  O589    1.938   .     S
Cu567  N586    2.020   .     S
Cu567  O587    1.953   .     S
Cu567  O591    1.948   .     S
Cu567  Cu568   2.688   .     S
Cu568  O592    1.953   .     S
Cu568  O590    1.914   .     S
Cu568  N585    2.020   .     S
Cu568  O594    1.938   .     S
Cu568  O588    1.948   .     S
H569   C707    1.088   .     S
H571   C867    1.088   1_545 S
H573   C880    1.082   1_545 S
H574   C881    1.079   1_545 S
H578   N640    1.029   .     S
H584   C605    1.083   .     S
N585   H631    1.029   .     S
N585   N640    1.286   .     S
C595   O642    1.284   .     A
C595   O641    1.292   .     A
C595   C597    1.425   .     S
C596   C598    1.475   .     S
C596   C604    1.400   .     A
C596   C614    1.419   .     A
C597   C761    1.326   .     S
C597   H787    1.088   .     S
C598   O643    1.304   .     A
C598   O644    1.295   .     A
C599   C600    1.426   .     S
C599   C921    1.326   1_545 S
C599   H947    1.088   1_545 S
C600   O645    1.285   .     A
C600   O646    1.291   .     A
C601   O647    1.295   .     A
C601   C603    1.472   .     S
C601   O648    1.302   .     A
C602   C620    1.395   .     A
C602   H634    1.086   .     S
C603   C619    1.405   .     A
C603   C620    1.412   .     A
C604   H636    1.083   .     S
C604   C605    1.389   .     A
C605   C121    1.393   1_556 S
C606   C614    1.422   .     A
C606   C121    1.418   1_556 S
C606   C129    1.430   1_556 S
C607   H637    1.077   .     S
C608   C620    1.475   .     S
C608   C609    1.404   .     A
C608   C505    1.403   1_655 S
C609   H626    1.083   .     S
C609   C502    1.398   1_655 S
C610   C611    1.398   .     A
C610   H789    1.082   .     S
C611   C612    1.396   .     A
C611   H790    1.079   .     S
C612   H629    1.082   .     S
C612   C613    1.397   .     A
C613   H630    1.079   .     S
C614   C618    1.410   .     A
C615   C619    1.407   .     A
C616   C617    1.391   .     A
C616   C129    1.418   1_556 S
C616   C116    1.397   1_556 S
C617   C618    1.382   .     A
C617   H633    1.084   .     S
C618   H624    1.081   .     S
C619   H635    1.077   .     S
Cu621  O647    1.914   .     S
Cu621  O643    1.938   .     S
Cu621  N640    2.020   .     S
Cu621  O641    1.953   .     S
Cu621  O645    1.948   .     S
Cu621  Cu622   2.688   .     S
Cu622  O646    1.953   .     S
Cu622  O644    1.914   .     S
Cu622  N639    2.020   .     S
Cu622  O648    1.938   .     S
Cu622  O642    1.948   .     S
H623   C761    1.088   .     S
H625   C921    1.088   1_545 S
H627   C934    1.082   1_545 S
H628   C935    1.079   1_545 S
H632   N532    1.029   1_655 S
H638   C497    1.083   1_655 S
N639   H523    1.029   1_655 S
N639   N532    1.286   1_655 S
C649   O696    1.284   .     A
C649   O695    1.292   .     A
C649   C651    1.425   .     S
C650   C652    1.475   .     S
C650   C658    1.400   .     A
C650   C668    1.419   .     A
C651   C815    1.326   .     S
C651   H841    1.088   .     S
C652   O697    1.304   .     A
C652   O698    1.295   .     A
C653   C654    1.426   .     S
C654   O699    1.285   .     A
C654   O700    1.291   .     A
C655   O701    1.295   .     A
C655   C657    1.472   .     S
C655   O702    1.302   .     A
C656   C674    1.395   .     A
C656   H688    1.086   .     S
C657   C673    1.405   .     A
C657   C674    1.412   .     A
C658   H690    1.083   .     S
C658   C659    1.389   .     A
C659   C175    1.393   1_556 S
C659   H800    1.083   1_455 S
C660   C668    1.422   .     A
C660   C175    1.418   1_556 S
C660   C183    1.430   1_556 S
C661   H691    1.077   .     S
C662   C674    1.475   .     S
C662   C663    1.404   .     A
C662   C721    1.403   .     S
C663   H680    1.083   .     S
C663   C718    1.398   .     S
C664   C665    1.398   .     A
C664   C771    1.398   1_455 S
C664   H843    1.082   .     S
C665   C666    1.396   .     A
C665   H844    1.079   .     S
C666   H683    1.082   .     S
C666   C667    1.397   .     A
C667   H684    1.079   .     S
C667   C770    1.403   1_455 S
C668   C672    1.410   .     A
C669   C673    1.407   .     A
C670   C671    1.391   .     A
C670   C183    1.418   1_556 S
C670   C170    1.397   1_556 S
C671   C672    1.382   .     A
C671   H687    1.084   .     S
C672   H678    1.081   .     S
C673   H689    1.077   .     S
Cu675  O701    1.914   .     S
Cu675  O697    1.938   .     S
Cu675  N694    2.020   .     S
Cu675  O695    1.953   .     S
Cu675  O699    1.948   .     S
Cu675  Cu676   2.688   .     S
Cu676  O700    1.953   .     S
Cu676  O698    1.914   .     S
Cu676  N693    2.020   .     S
Cu676  O702    1.938   .     S
Cu676  O696    1.948   .     S
H677   C815    1.088   .     S
H685   N801    1.029   1_455 S
H686   N748    1.029   .     S
H692   C713    1.083   .     S
N693   H739    1.029   .     S
N693   N748    1.286   .     S
N694   N801    1.286   1_455 S
N694   H794    1.029   1_455 S
C703   O750    1.284   .     A
C703   O749    1.292   .     A
C703   C705    1.425   .     S
C704   C706    1.475   .     S
C704   C712    1.400   .     A
C704   C722    1.419   .     A
C705   C869    1.326   .     S
C705   H895    1.088   .     S
C706   O751    1.304   .     A
C706   O752    1.295   .     A
C707   C708    1.426   .     S
C708   O753    1.285   .     A
C708   O754    1.291   .     A
C709   O755    1.295   .     A
C709   C711    1.472   .     S
C709   O756    1.302   .     A
C710   C728    1.395   .     A
C710   H742    1.086   .     S
C711   C727    1.405   .     A
C711   C728    1.412   .     A
C712   H744    1.083   .     S
C712   C713    1.389   .     A
C713   C229    1.393   1_556 S
C714   C722    1.422   .     A
C714   C229    1.418   1_556 S
C714   C237    1.430   1_556 S
C715   H745    1.077   .     S
C716   C728    1.475   .     S
C716   C717    1.404   .     A
C716   C775    1.403   .     S
C717   H734    1.083   .     S
C717   C772    1.398   .     S
C718   C719    1.398   .     A
C718   H897    1.082   .     S
C719   C720    1.396   .     A
C719   H898    1.079   .     S
C720   H737    1.082   .     S
C720   C721    1.397   .     A
C721   H738    1.079   .     S
C722   C726    1.410   .     A
C723   C727    1.407   .     A
C724   C725    1.391   .     A
C724   C237    1.418   1_556 S
C724   C224    1.397   1_556 S
C725   C726    1.382   .     A
C725   H741    1.084   .     S
C726   H732    1.081   .     S
C727   H743    1.077   .     S
Cu729  O755    1.914   .     S
Cu729  O751    1.938   .     S
Cu729  N748    2.020   .     S
Cu729  O749    1.953   .     S
Cu729  O753    1.948   .     S
Cu729  Cu730   2.688   .     S
Cu730  O754    1.953   .     S
Cu730  O752    1.914   .     S
Cu730  N747    2.020   .     S
Cu730  O756    1.938   .     S
Cu730  O750    1.948   .     S
H731   C869    1.088   .     S
H740   N802    1.029   .     S
H746   C767    1.083   .     S
N747   H793    1.029   .     S
N747   N802    1.286   .     S
C757   O804    1.284   .     A
C757   O803    1.292   .     A
C757   C759    1.425   .     S
C758   C760    1.475   .     S
C758   C766    1.400   .     A
C758   C776    1.419   .     A
C759   C923    1.326   .     S
C759   H949    1.088   .     S
C760   O805    1.304   .     A
C760   O806    1.295   .     A
C761   C762    1.426   .     S
C762   O807    1.285   .     A
C762   O808    1.291   .     A
C763   O809    1.295   .     A
C763   C765    1.472   .     S
C763   O810    1.302   .     A
C764   C782    1.395   .     A
C764   H796    1.086   .     S
C765   C781    1.405   .     A
C765   C782    1.412   .     A
C766   H798    1.083   .     S
C766   C767    1.389   .     A
C767   C283    1.393   1_556 S
C768   C776    1.422   .     A
C768   C283    1.418   1_556 S
C768   C291    1.430   1_556 S
C769   H799    1.077   .     S
C770   C782    1.475   .     S
C770   C771    1.404   .     A
C770   C667    1.403   1_655 S
C771   H788    1.083   .     S
C771   C664    1.398   1_655 S
C772   C773    1.398   .     A
C772   H951    1.082   .     S
C773   C774    1.396   .     A
C773   H952    1.079   .     S
C774   H791    1.082   .     S
C774   C775    1.397   .     A
C775   H792    1.079   .     S
C776   C780    1.410   .     A
C777   C781    1.407   .     A
C778   C779    1.391   .     A
C778   C291    1.418   1_556 S
C778   C278    1.397   1_556 S
C779   C780    1.382   .     A
C779   H795    1.084   .     S
C780   H786    1.081   .     S
C781   H797    1.077   .     S
Cu783  O809    1.914   .     S
Cu783  O805    1.938   .     S
Cu783  N802    2.020   .     S
Cu783  O803    1.953   .     S
Cu783  O807    1.948   .     S
Cu783  Cu784   2.688   .     S
Cu784  O808    1.953   .     S
Cu784  O806    1.914   .     S
Cu784  N801    2.020   .     S
Cu784  O810    1.938   .     S
Cu784  O804    1.948   .     S
H785   C923    1.088   .     S
H794   N694    1.029   1_655 S
H800   C659    1.083   1_655 S
N801   H685    1.029   1_655 S
N801   N694    1.286   1_655 S
C811   O858    1.284   .     A
C811   O857    1.292   .     A
C811   C813    1.425   .     S
C812   C814    1.475   .     S
C812   C820    1.400   .     A
C812   C830    1.419   .     A
C813   C491    1.326   1_565 S
C813   H517    1.088   1_565 S
C814   O859    1.304   .     A
C814   O860    1.295   .     A
C815   C816    1.426   .     S
C816   O861    1.285   .     A
C816   O862    1.291   .     A
C817   O863    1.295   .     A
C817   C819    1.472   .     S
C817   O864    1.302   .     A
C818   C836    1.395   .     A
C818   H850    1.086   .     S
C819   C835    1.405   .     A
C819   C836    1.412   .     A
C820   H852    1.083   .     S
C820   C821    1.389   .     A
C821   C337    1.393   1_556 S
C821   H962    1.083   1_455 S
C822   C830    1.422   .     A
C822   C337    1.418   1_556 S
C822   C345    1.430   1_556 S
C823   H853    1.077   .     S
C824   C836    1.475   .     S
C824   C825    1.404   .     A
C824   C883    1.403   .     S
C825   H842    1.083   .     S
C825   C880    1.398   .     S
C826   C827    1.398   .     A
C826   C933    1.398   1_455 S
C826   H519    1.082   1_565 S
C827   C828    1.396   .     A
C827   H520    1.079   1_565 S
C828   H845    1.082   .     S
C828   C829    1.397   .     A
C829   H846    1.079   .     S
C829   C932    1.403   1_455 S
C830   C834    1.410   .     A
C831   C835    1.407   .     A
C832   C833    1.391   .     A
C832   C345    1.418   1_556 S
C832   C332    1.397   1_556 S
C833   C834    1.382   .     A
C833   H849    1.084   .     S
C834   H840    1.081   .     S
C835   H851    1.077   .     S
Cu837  O863    1.914   .     S
Cu837  O859    1.938   .     S
Cu837  N856    2.020   .     S
Cu837  O857    1.953   .     S
Cu837  O861    1.948   .     S
Cu837  Cu838   2.688   .     S
Cu838  O862    1.953   .     S
Cu838  O860    1.914   .     S
Cu838  N855    2.020   .     S
Cu838  O864    1.938   .     S
Cu838  O858    1.948   .     S
H839   C491    1.088   1_565 S
H847   N963    1.029   1_455 S
H848   N910    1.029   .     S
H854   C875    1.083   .     S
N855   H901    1.029   .     S
N855   N910    1.286   .     S
N856   N963    1.286   1_455 S
N856   H956    1.029   1_455 S
C865   O912    1.284   .     A
C865   O911    1.292   .     A
C865   C867    1.425   .     S
C866   C868    1.475   .     S
C866   C874    1.400   .     A
C866   C884    1.419   .     A
C867   C545    1.326   1_565 S
C867   H571    1.088   1_565 S
C868   O913    1.304   .     A
C868   O914    1.295   .     A
C869   C870    1.426   .     S
C870   O915    1.285   .     A
C870   O916    1.291   .     A
C871   O917    1.295   .     A
C871   C873    1.472   .     S
C871   O918    1.302   .     A
C872   C890    1.395   .     A
C872   H904    1.086   .     S
C873   C889    1.405   .     A
C873   C890    1.412   .     A
C874   H906    1.083   .     S
C874   C875    1.389   .     A
C875   C391    1.393   1_556 S
C876   C884    1.422   .     A
C876   C391    1.418   1_556 S
C876   C399    1.430   1_556 S
C877   H907    1.077   .     S
C878   C890    1.475   .     S
C878   C879    1.404   .     A
C878   C937    1.403   .     S
C879   H896    1.083   .     S
C879   C934    1.398   .     S
C880   C881    1.398   .     A
C880   H573    1.082   1_565 S
C881   C882    1.396   .     A
C881   H574    1.079   1_565 S
C882   H899    1.082   .     S
C882   C883    1.397   .     A
C883   H900    1.079   .     S
C884   C888    1.410   .     A
C885   C889    1.407   .     A
C886   C887    1.391   .     A
C886   C399    1.418   1_556 S
C886   C386    1.397   1_556 S
C887   C888    1.382   .     A
C887   H903    1.084   .     S
C888   H894    1.081   .     S
C889   H905    1.077   .     S
Cu891  O917    1.914   .     S
Cu891  O913    1.938   .     S
Cu891  N910    2.020   .     S
Cu891  O911    1.953   .     S
Cu891  O915    1.948   .     S
Cu891  Cu892   2.688   .     S
Cu892  O916    1.953   .     S
Cu892  O914    1.914   .     S
Cu892  N909    2.020   .     S
Cu892  O918    1.938   .     S
Cu892  O912    1.948   .     S
H893   C545    1.088   1_565 S
H902   N964    1.029   .     S
H908   C929    1.083   .     S
N909   H955    1.029   .     S
N909   N964    1.286   .     S
C919   O966    1.284   .     A
C919   O965    1.292   .     A
C919   C921    1.425   .     S
C920   C922    1.475   .     S
C920   C928    1.400   .     A
C920   C938    1.419   .     A
C921   C599    1.326   1_565 S
C921   H625    1.088   1_565 S
C922   O967    1.304   .     A
C922   O968    1.295   .     A
C923   C924    1.426   .     S
C924   O969    1.285   .     A
C924   O970    1.291   .     A
C925   O971    1.295   .     A
C925   C927    1.472   .     S
C925   O972    1.302   .     A
C926   C944    1.395   .     A
C926   H958    1.086   .     S
C927   C943    1.405   .     A
C927   C944    1.412   .     A
C928   H960    1.083   .     S
C928   C929    1.389   .     A
C929   C445    1.393   1_556 S
C930   C938    1.422   .     A
C930   C445    1.418   1_556 S
C930   C453    1.430   1_556 S
C931   H961    1.077   .     S
C932   C944    1.475   .     S
C932   C933    1.404   .     A
C932   C829    1.403   1_655 S
C933   H950    1.083   .     S
C933   C826    1.398   1_655 S
C934   C935    1.398   .     A
C934   H627    1.082   1_565 S
C935   C936    1.396   .     A
C935   H628    1.079   1_565 S
C936   H953    1.082   .     S
C936   C937    1.397   .     A
C937   H954    1.079   .     S
C938   C942    1.410   .     A
C939   C943    1.407   .     A
C940   C941    1.391   .     A
C940   C453    1.418   1_556 S
C940   C440    1.397   1_556 S
C941   C942    1.382   .     A
C941   H957    1.084   .     S
C942   H948    1.081   .     S
C943   H959    1.077   .     S
Cu945  O971    1.914   .     S
Cu945  O967    1.938   .     S
Cu945  N964    2.020   .     S
Cu945  O965    1.953   .     S
Cu945  O969    1.948   .     S
Cu945  Cu946   2.688   .     S
Cu946  O970    1.953   .     S
Cu946  O968    1.914   .     S
Cu946  N963    2.020   .     S
Cu946  O972    1.938   .     S
Cu946  O966    1.948   .     S
H947   C599    1.088   1_565 S
H956   N856    1.029   1_655 S
H962   C821    1.083   1_655 S
N963   H847    1.029   1_655 S
N963   N856    1.286   1_655 S
