data_str_m3_o1_o18_pcu_sym.31
_audit_creation_date              2020-01-03
_audit_creation_method            'Materials Studio'
_symmetry_space_group_name_H-M    'P1'
_symmetry_Int_Tables_number       1
_symmetry_cell_setting            triclinic
loop_
_symmetry_equiv_pos_as_xyz
  x,y,z
_cell_length_a                    29.5995
_cell_length_b                    32.1531
_cell_length_c                    31.1188
_cell_angle_alpha                 90.4183
_cell_angle_beta                  66.3297
_cell_angle_gamma                 89.7040
loop_
_atom_site_label
_atom_site_type_symbol
_atom_site_fract_x
_atom_site_fract_y
_atom_site_fract_z
_atom_site_U_iso_or_equiv
_atom_site_adp_type
_atom_site_occupancy
Br1    Br    0.30913   0.20793   0.10870   0.00000  Uiso   1.00
Br2    Br    0.02420   0.12540   0.39130   0.00000  Uiso   1.00
Br3    Br    0.31181   0.10610   0.17525   0.00000  Uiso   1.00
Br4    Br    0.02152   0.22723   0.32475   0.00000  Uiso   1.00
C5     C     0.16657   0.24669   0.25009   0.00000  Uiso   1.00
C6     C     0.12925   0.31216   0.24247   0.00000  Uiso   1.00
C7     C     0.16682   0.04248   0.24985   0.00000  Uiso   1.00
C8     C     0.16652   0.29085   0.25015   0.00000  Uiso   1.00
C9     C     0.32279   0.14180   0.21939   0.00000  Uiso   1.00
C10    C     0.01054   0.19153   0.28061   0.00000  Uiso   1.00
C11    C     0.03718   0.14187   0.21956   0.00000  Uiso   1.00
C12    C     0.29615   0.19146   0.28044   0.00000  Uiso   1.00
C13    C     0.13540   0.16624   0.33827   0.00000  Uiso   1.00
C14    C     0.19793   0.16709   0.16173   0.00000  Uiso   1.00
C15    C     0.11498   0.16398   0.38955   0.00000  Uiso   1.00
C16    C     0.16676   0.08665   0.24991   0.00000  Uiso   1.00
C17    C     0.21836   0.16935   0.11045   0.00000  Uiso   1.00
C18    C     0.05684   0.13939   0.46454   0.00000  Uiso   1.00
C19    C     0.27650   0.19395   0.03546   0.00000  Uiso   1.00
C20    C     0.06935   0.14557   0.41682   0.00000  Uiso   1.00
C21    C     0.26398   0.18776   0.08318   0.00000  Uiso   1.00
C22    C     0.14607   0.17677   0.41083   0.00000  Uiso   1.00
C23    C     0.18727   0.15657   0.08917   0.00000  Uiso   1.00
C24    C     0.13686   0.16626   0.45705   0.00000  Uiso   1.00
C25    C     0.19648   0.16707   0.04295   0.00000  Uiso   1.00
C26    C     0.09055   0.14862   0.48450   0.00000  Uiso   1.00
C27    C     0.11240   0.14674   0.05104   0.00000  Uiso   1.00
C28    C     0.24278   0.18471   0.01550   0.00000  Uiso   1.00
C29    C     0.17278   0.17190   0.47618   0.00000  Uiso   1.00
C30    C     0.16055   0.16143   0.02382   0.00000  Uiso   1.00
C31    C     0.22093   0.18659   0.44896   0.00000  Uiso   1.00
C32    C     0.07855   0.13984   0.03139   0.00000  Uiso   1.00
C33    C     0.25478   0.19349   0.46861   0.00000  Uiso   1.00
C34    C     0.20392   0.31191   0.25772   0.00000  Uiso   1.00
C35    C     0.12941   0.02142   0.24228   0.00000  Uiso   1.00
C36    C     0.20409   0.02118   0.25753   0.00000  Uiso   1.00
H37    H     0.02167   0.12543   0.48558   0.00000  Uiso   1.00
H38    H     0.29065   0.20591   0.44686   0.00000  Uiso   1.00
H39    H     0.15496   0.13945   0.11035   0.00000  Uiso   1.00
H40    H     0.17837   0.19388   0.38965   0.00000  Uiso   1.00
H41    H     0.23281   0.29562   0.26398   0.00000  Uiso   1.00
H42    H     0.10052   0.03772   0.23602   0.00000  Uiso   1.00
H43    H     0.31166   0.20791   0.01442   0.00000  Uiso   1.00
H44    H     0.09912   0.14027   0.08792   0.00000  Uiso   1.00
H45    H     0.23421   0.19307   0.41208   0.00000  Uiso   1.00
H46    H     0.23305   0.03728   0.26367   0.00000  Uiso   1.00
H47    H     0.10028   0.29606   0.23633   0.00000  Uiso   1.00
H48    H     0.06588   0.12205   0.19528   0.00000  Uiso   1.00
H49    H     0.26745   0.21129   0.30472   0.00000  Uiso   1.00
H50    H     0.04268   0.12742   0.05314   0.00000  Uiso   1.00
N51    N     0.04759   0.16668   0.25001   0.00000  Uiso   1.00
N52    N     0.28574   0.16666   0.24999   0.00000  Uiso   1.00
O53    O     0.12846   0.22775   0.25000   0.00000  Uiso   1.00
O54    O     0.20488   0.10558   0.24999   0.00000  Uiso   1.00
O55    O     0.20490   0.22774   0.25000   0.00000  Uiso   1.00
O56    O     0.12843   0.10559   0.25000   0.00000  Uiso   1.00
O57    O     0.10661   0.16667   0.31612   0.00000  Uiso   1.00
O58    O     0.22672   0.16666   0.18388   0.00000  Uiso   1.00
O59    O     0.18305   0.16666   0.31612   0.00000  Uiso   1.00
O60    O     0.15028   0.16667   0.18388   0.00000  Uiso   1.00
Zn61   Zn    0.11562   0.16667   0.25000   0.00000  Uiso   1.00
Zn62   Zn    0.21771   0.16666   0.25000   0.00000  Uiso   1.00
Br63   Br    0.64246   0.20793   0.10870   0.00000  Uiso   1.00
Br64   Br    0.35754   0.12540   0.39130   0.00000  Uiso   1.00
Br65   Br    0.64515   0.10610   0.17525   0.00000  Uiso   1.00
Br66   Br    0.35485   0.22723   0.32475   0.00000  Uiso   1.00
C67    C     0.49990   0.24669   0.25009   0.00000  Uiso   1.00
C68    C     0.46258   0.31216   0.24247   0.00000  Uiso   1.00
C69    C     0.50015   0.04248   0.24985   0.00000  Uiso   1.00
C70    C     0.49985   0.29085   0.25015   0.00000  Uiso   1.00
C71    C     0.65613   0.14180   0.21939   0.00000  Uiso   1.00
C72    C     0.34387   0.19153   0.28061   0.00000  Uiso   1.00
C73    C     0.37052   0.14187   0.21956   0.00000  Uiso   1.00
C74    C     0.62948   0.19146   0.28044   0.00000  Uiso   1.00
C75    C     0.46874   0.16624   0.33827   0.00000  Uiso   1.00
C76    C     0.53126   0.16709   0.16173   0.00000  Uiso   1.00
C77    C     0.44831   0.16398   0.38955   0.00000  Uiso   1.00
C78    C     0.50009   0.08665   0.24991   0.00000  Uiso   1.00
C79    C     0.55169   0.16935   0.11045   0.00000  Uiso   1.00
C80    C     0.39017   0.13939   0.46454   0.00000  Uiso   1.00
C81    C     0.60983   0.19395   0.03546   0.00000  Uiso   1.00
C82    C     0.40269   0.14557   0.41682   0.00000  Uiso   1.00
C83    C     0.59731   0.18776   0.08318   0.00000  Uiso   1.00
C84    C     0.47940   0.17677   0.41083   0.00000  Uiso   1.00
C85    C     0.52060   0.15657   0.08917   0.00000  Uiso   1.00
C86    C     0.47019   0.16626   0.45705   0.00000  Uiso   1.00
C87    C     0.52981   0.16707   0.04295   0.00000  Uiso   1.00
C88    C     0.42389   0.14862   0.48450   0.00000  Uiso   1.00
C89    C     0.44574   0.14674   0.05104   0.00000  Uiso   1.00
C90    C     0.57611   0.18471   0.01550   0.00000  Uiso   1.00
C91    C     0.50611   0.17190   0.47618   0.00000  Uiso   1.00
C92    C     0.49388   0.16143   0.02382   0.00000  Uiso   1.00
C93    C     0.55426   0.18659   0.44896   0.00000  Uiso   1.00
C94    C     0.41189   0.13984   0.03139   0.00000  Uiso   1.00
C95    C     0.58811   0.19349   0.46861   0.00000  Uiso   1.00
C96    C     0.53725   0.31191   0.25772   0.00000  Uiso   1.00
C97    C     0.46275   0.02142   0.24228   0.00000  Uiso   1.00
C98    C     0.53742   0.02118   0.25753   0.00000  Uiso   1.00
H99    H     0.35500   0.12543   0.48558   0.00000  Uiso   1.00
H100   H     0.62398   0.20591   0.44686   0.00000  Uiso   1.00
H101   H     0.48830   0.13945   0.11035   0.00000  Uiso   1.00
H102   H     0.51170   0.19388   0.38965   0.00000  Uiso   1.00
H103   H     0.56615   0.29562   0.26398   0.00000  Uiso   1.00
H104   H     0.43385   0.03772   0.23602   0.00000  Uiso   1.00
H105   H     0.64500   0.20791   0.01442   0.00000  Uiso   1.00
H106   H     0.43246   0.14027   0.08792   0.00000  Uiso   1.00
H107   H     0.56754   0.19307   0.41208   0.00000  Uiso   1.00
H108   H     0.56639   0.03728   0.26367   0.00000  Uiso   1.00
H109   H     0.43361   0.29606   0.23633   0.00000  Uiso   1.00
H110   H     0.39921   0.12205   0.19528   0.00000  Uiso   1.00
H111   H     0.60078   0.21129   0.30472   0.00000  Uiso   1.00
H112   H     0.37602   0.12742   0.05314   0.00000  Uiso   1.00
N113   N     0.38093   0.16668   0.25001   0.00000  Uiso   1.00
N114   N     0.61907   0.16666   0.24999   0.00000  Uiso   1.00
O115   O     0.46179   0.22775   0.25000   0.00000  Uiso   1.00
O116   O     0.53821   0.10558   0.24999   0.00000  Uiso   1.00
O117   O     0.53823   0.22774   0.25000   0.00000  Uiso   1.00
O118   O     0.46177   0.10559   0.25000   0.00000  Uiso   1.00
O119   O     0.43994   0.16667   0.31612   0.00000  Uiso   1.00
O120   O     0.56006   0.16666   0.18388   0.00000  Uiso   1.00
O121   O     0.51639   0.16666   0.31612   0.00000  Uiso   1.00
O122   O     0.48361   0.16667   0.18388   0.00000  Uiso   1.00
Zn123  Zn    0.44896   0.16667   0.25000   0.00000  Uiso   1.00
Zn124  Zn    0.55104   0.16666   0.25000   0.00000  Uiso   1.00
Br125  Br    0.97580   0.20793   0.10870   0.00000  Uiso   1.00
Br126  Br    0.69087   0.12540   0.39130   0.00000  Uiso   1.00
Br127  Br    0.97848   0.10610   0.17525   0.00000  Uiso   1.00
Br128  Br    0.68819   0.22723   0.32475   0.00000  Uiso   1.00
C129   C     0.83324   0.24669   0.25009   0.00000  Uiso   1.00
C130   C     0.79591   0.31216   0.24247   0.00000  Uiso   1.00
C131   C     0.83348   0.04248   0.24985   0.00000  Uiso   1.00
C132   C     0.83318   0.29085   0.25015   0.00000  Uiso   1.00
C133   C     0.98946   0.14180   0.21939   0.00000  Uiso   1.00
C134   C     0.67721   0.19153   0.28061   0.00000  Uiso   1.00
C135   C     0.70385   0.14187   0.21956   0.00000  Uiso   1.00
C136   C     0.96282   0.19146   0.28044   0.00000  Uiso   1.00
C137   C     0.80207   0.16624   0.33827   0.00000  Uiso   1.00
C138   C     0.86460   0.16709   0.16173   0.00000  Uiso   1.00
C139   C     0.78164   0.16398   0.38955   0.00000  Uiso   1.00
C140   C     0.83343   0.08665   0.24991   0.00000  Uiso   1.00
C141   C     0.88502   0.16935   0.11045   0.00000  Uiso   1.00
C142   C     0.72350   0.13939   0.46454   0.00000  Uiso   1.00
C143   C     0.94316   0.19395   0.03546   0.00000  Uiso   1.00
C144   C     0.73602   0.14557   0.41682   0.00000  Uiso   1.00
C145   C     0.93065   0.18776   0.08318   0.00000  Uiso   1.00
C146   C     0.81273   0.17677   0.41083   0.00000  Uiso   1.00
C147   C     0.85393   0.15657   0.08917   0.00000  Uiso   1.00
C148   C     0.80352   0.16626   0.45705   0.00000  Uiso   1.00
C149   C     0.86314   0.16707   0.04295   0.00000  Uiso   1.00
C150   C     0.75722   0.14862   0.48450   0.00000  Uiso   1.00
C151   C     0.77907   0.14674   0.05104   0.00000  Uiso   1.00
C152   C     0.90945   0.18471   0.01550   0.00000  Uiso   1.00
C153   C     0.83945   0.17190   0.47618   0.00000  Uiso   1.00
C154   C     0.82722   0.16143   0.02382   0.00000  Uiso   1.00
C155   C     0.88760   0.18659   0.44896   0.00000  Uiso   1.00
C156   C     0.74522   0.13984   0.03139   0.00000  Uiso   1.00
C157   C     0.92145   0.19349   0.46861   0.00000  Uiso   1.00
C158   C     0.87059   0.31191   0.25772   0.00000  Uiso   1.00
C159   C     0.79608   0.02142   0.24228   0.00000  Uiso   1.00
C160   C     0.87075   0.02118   0.25753   0.00000  Uiso   1.00
H161   H     0.68834   0.12543   0.48558   0.00000  Uiso   1.00
H162   H     0.95732   0.20591   0.44686   0.00000  Uiso   1.00
H163   H     0.82163   0.13945   0.11035   0.00000  Uiso   1.00
H164   H     0.84504   0.19388   0.38965   0.00000  Uiso   1.00
H165   H     0.89948   0.29562   0.26398   0.00000  Uiso   1.00
H166   H     0.76719   0.03772   0.23602   0.00000  Uiso   1.00
H167   H     0.97833   0.20791   0.01442   0.00000  Uiso   1.00
H168   H     0.76579   0.14027   0.08792   0.00000  Uiso   1.00
H169   H     0.90088   0.19307   0.41208   0.00000  Uiso   1.00
H170   H     0.89972   0.03728   0.26367   0.00000  Uiso   1.00
H171   H     0.76695   0.29606   0.23633   0.00000  Uiso   1.00
H172   H     0.73255   0.12205   0.19528   0.00000  Uiso   1.00
H173   H     0.93412   0.21129   0.30472   0.00000  Uiso   1.00
H174   H     0.70935   0.12742   0.05314   0.00000  Uiso   1.00
N175   N     0.71426   0.16668   0.25001   0.00000  Uiso   1.00
N176   N     0.95241   0.16666   0.24999   0.00000  Uiso   1.00
O177   O     0.79512   0.22775   0.25000   0.00000  Uiso   1.00
O178   O     0.87154   0.10558   0.24999   0.00000  Uiso   1.00
O179   O     0.87157   0.22774   0.25000   0.00000  Uiso   1.00
O180   O     0.79510   0.10559   0.25000   0.00000  Uiso   1.00
O181   O     0.77328   0.16667   0.31612   0.00000  Uiso   1.00
O182   O     0.89339   0.16666   0.18388   0.00000  Uiso   1.00
O183   O     0.84972   0.16666   0.31612   0.00000  Uiso   1.00
O184   O     0.81695   0.16667   0.18388   0.00000  Uiso   1.00
Zn185  Zn    0.78229   0.16667   0.25000   0.00000  Uiso   1.00
Zn186  Zn    0.88438   0.16666   0.25000   0.00000  Uiso   1.00
Br187  Br    0.30913   0.54126   0.10870   0.00000  Uiso   1.00
Br188  Br    0.02420   0.45874   0.39130   0.00000  Uiso   1.00
Br189  Br    0.31181   0.43943   0.17525   0.00000  Uiso   1.00
Br190  Br    0.02152   0.56057   0.32475   0.00000  Uiso   1.00
C191   C     0.16657   0.58002   0.25009   0.00000  Uiso   1.00
C192   C     0.12925   0.64549   0.24247   0.00000  Uiso   1.00
C193   C     0.16682   0.37582   0.24985   0.00000  Uiso   1.00
C194   C     0.16652   0.62418   0.25015   0.00000  Uiso   1.00
C195   C     0.32279   0.47513   0.21939   0.00000  Uiso   1.00
C196   C     0.01054   0.52487   0.28061   0.00000  Uiso   1.00
C197   C     0.03718   0.47520   0.21956   0.00000  Uiso   1.00
C198   C     0.29615   0.52480   0.28044   0.00000  Uiso   1.00
C199   C     0.13540   0.49957   0.33827   0.00000  Uiso   1.00
C200   C     0.19793   0.50043   0.16173   0.00000  Uiso   1.00
C201   C     0.11498   0.49732   0.38955   0.00000  Uiso   1.00
C202   C     0.16676   0.41998   0.24991   0.00000  Uiso   1.00
C203   C     0.21836   0.50268   0.11045   0.00000  Uiso   1.00
C204   C     0.05684   0.47272   0.46454   0.00000  Uiso   1.00
C205   C     0.27650   0.52728   0.03546   0.00000  Uiso   1.00
C206   C     0.06935   0.47890   0.41682   0.00000  Uiso   1.00
C207   C     0.26398   0.52110   0.08318   0.00000  Uiso   1.00
C208   C     0.14607   0.51010   0.41083   0.00000  Uiso   1.00
C209   C     0.18727   0.48990   0.08917   0.00000  Uiso   1.00
C210   C     0.13686   0.49959   0.45705   0.00000  Uiso   1.00
C211   C     0.19648   0.50041   0.04295   0.00000  Uiso   1.00
C212   C     0.09055   0.48196   0.48450   0.00000  Uiso   1.00
C213   C     0.11240   0.48008   0.05104   0.00000  Uiso   1.00
C214   C     0.24278   0.51804   0.01550   0.00000  Uiso   1.00
C215   C     0.17278   0.50524   0.47618   0.00000  Uiso   1.00
C216   C     0.16055   0.49476   0.02382   0.00000  Uiso   1.00
C217   C     0.22093   0.51992   0.44896   0.00000  Uiso   1.00
C218   C     0.07855   0.47318   0.03139   0.00000  Uiso   1.00
C219   C     0.25478   0.52682   0.46861   0.00000  Uiso   1.00
C220   C     0.20392   0.64524   0.25772   0.00000  Uiso   1.00
C221   C     0.12941   0.35476   0.24228   0.00000  Uiso   1.00
C222   C     0.20409   0.35451   0.25753   0.00000  Uiso   1.00
H223   H     0.02167   0.45876   0.48558   0.00000  Uiso   1.00
H224   H     0.29065   0.53925   0.44686   0.00000  Uiso   1.00
H225   H     0.15496   0.47278   0.11035   0.00000  Uiso   1.00
H226   H     0.17837   0.52722   0.38965   0.00000  Uiso   1.00
H227   H     0.23281   0.62895   0.26398   0.00000  Uiso   1.00
H228   H     0.10052   0.37105   0.23602   0.00000  Uiso   1.00
H229   H     0.31166   0.54124   0.01442   0.00000  Uiso   1.00
H230   H     0.09912   0.47360   0.08792   0.00000  Uiso   1.00
H231   H     0.23421   0.52640   0.41208   0.00000  Uiso   1.00
H232   H     0.23305   0.37061   0.26367   0.00000  Uiso   1.00
H233   H     0.10028   0.62939   0.23633   0.00000  Uiso   1.00
H234   H     0.06588   0.45538   0.19528   0.00000  Uiso   1.00
H235   H     0.26745   0.54462   0.30472   0.00000  Uiso   1.00
H236   H     0.04268   0.46075   0.05314   0.00000  Uiso   1.00
N237   N     0.04759   0.50001   0.25001   0.00000  Uiso   1.00
N238   N     0.28574   0.49999   0.24999   0.00000  Uiso   1.00
O239   O     0.12846   0.56108   0.25000   0.00000  Uiso   1.00
O240   O     0.20488   0.43892   0.24999   0.00000  Uiso   1.00
O241   O     0.20490   0.56107   0.25000   0.00000  Uiso   1.00
O242   O     0.12843   0.43893   0.25000   0.00000  Uiso   1.00
O243   O     0.10661   0.50001   0.31612   0.00000  Uiso   1.00
O244   O     0.22672   0.49999   0.18388   0.00000  Uiso   1.00
O245   O     0.18305   0.50000   0.31612   0.00000  Uiso   1.00
O246   O     0.15028   0.50000   0.18388   0.00000  Uiso   1.00
Zn247  Zn    0.11562   0.50001   0.25000   0.00000  Uiso   1.00
Zn248  Zn    0.21771   0.49999   0.25000   0.00000  Uiso   1.00
Br249  Br    0.64246   0.54126   0.10870   0.00000  Uiso   1.00
Br250  Br    0.35754   0.45874   0.39130   0.00000  Uiso   1.00
Br251  Br    0.64515   0.43943   0.17525   0.00000  Uiso   1.00
Br252  Br    0.35485   0.56057   0.32475   0.00000  Uiso   1.00
C253   C     0.49990   0.58002   0.25009   0.00000  Uiso   1.00
C254   C     0.46258   0.64549   0.24247   0.00000  Uiso   1.00
C255   C     0.50015   0.37582   0.24985   0.00000  Uiso   1.00
C256   C     0.49985   0.62418   0.25015   0.00000  Uiso   1.00
C257   C     0.65613   0.47513   0.21939   0.00000  Uiso   1.00
C258   C     0.34387   0.52487   0.28061   0.00000  Uiso   1.00
C259   C     0.37052   0.47520   0.21956   0.00000  Uiso   1.00
C260   C     0.62948   0.52480   0.28044   0.00000  Uiso   1.00
C261   C     0.46874   0.49957   0.33827   0.00000  Uiso   1.00
C262   C     0.53126   0.50043   0.16173   0.00000  Uiso   1.00
C263   C     0.44831   0.49732   0.38955   0.00000  Uiso   1.00
C264   C     0.50009   0.41998   0.24991   0.00000  Uiso   1.00
C265   C     0.55169   0.50268   0.11045   0.00000  Uiso   1.00
C266   C     0.39017   0.47272   0.46454   0.00000  Uiso   1.00
C267   C     0.60983   0.52728   0.03546   0.00000  Uiso   1.00
C268   C     0.40269   0.47890   0.41682   0.00000  Uiso   1.00
C269   C     0.59731   0.52110   0.08318   0.00000  Uiso   1.00
C270   C     0.47940   0.51010   0.41083   0.00000  Uiso   1.00
C271   C     0.52060   0.48990   0.08917   0.00000  Uiso   1.00
C272   C     0.47019   0.49959   0.45705   0.00000  Uiso   1.00
C273   C     0.52981   0.50041   0.04295   0.00000  Uiso   1.00
C274   C     0.42389   0.48196   0.48450   0.00000  Uiso   1.00
C275   C     0.44574   0.48008   0.05104   0.00000  Uiso   1.00
C276   C     0.57611   0.51804   0.01550   0.00000  Uiso   1.00
C277   C     0.50611   0.50524   0.47618   0.00000  Uiso   1.00
C278   C     0.49388   0.49476   0.02382   0.00000  Uiso   1.00
C279   C     0.55426   0.51992   0.44896   0.00000  Uiso   1.00
C280   C     0.41189   0.47318   0.03139   0.00000  Uiso   1.00
C281   C     0.58811   0.52682   0.46861   0.00000  Uiso   1.00
C282   C     0.53725   0.64524   0.25772   0.00000  Uiso   1.00
C283   C     0.46275   0.35476   0.24228   0.00000  Uiso   1.00
C284   C     0.53742   0.35451   0.25753   0.00000  Uiso   1.00
H285   H     0.35500   0.45876   0.48558   0.00000  Uiso   1.00
H286   H     0.62398   0.53925   0.44686   0.00000  Uiso   1.00
H287   H     0.48830   0.47278   0.11035   0.00000  Uiso   1.00
H288   H     0.51170   0.52722   0.38965   0.00000  Uiso   1.00
H289   H     0.56615   0.62895   0.26398   0.00000  Uiso   1.00
H290   H     0.43385   0.37105   0.23602   0.00000  Uiso   1.00
H291   H     0.64500   0.54124   0.01442   0.00000  Uiso   1.00
H292   H     0.43246   0.47360   0.08792   0.00000  Uiso   1.00
H293   H     0.56754   0.52640   0.41208   0.00000  Uiso   1.00
H294   H     0.56639   0.37061   0.26367   0.00000  Uiso   1.00
H295   H     0.43361   0.62939   0.23633   0.00000  Uiso   1.00
H296   H     0.39921   0.45538   0.19528   0.00000  Uiso   1.00
H297   H     0.60078   0.54462   0.30472   0.00000  Uiso   1.00
H298   H     0.37602   0.46075   0.05314   0.00000  Uiso   1.00
N299   N     0.38093   0.50001   0.25001   0.00000  Uiso   1.00
N300   N     0.61907   0.49999   0.24999   0.00000  Uiso   1.00
O301   O     0.46179   0.56108   0.25000   0.00000  Uiso   1.00
O302   O     0.53821   0.43892   0.24999   0.00000  Uiso   1.00
O303   O     0.53823   0.56107   0.25000   0.00000  Uiso   1.00
O304   O     0.46177   0.43893   0.25000   0.00000  Uiso   1.00
O305   O     0.43994   0.50001   0.31612   0.00000  Uiso   1.00
O306   O     0.56006   0.49999   0.18388   0.00000  Uiso   1.00
O307   O     0.51639   0.50000   0.31612   0.00000  Uiso   1.00
O308   O     0.48361   0.50000   0.18388   0.00000  Uiso   1.00
Zn309  Zn    0.44896   0.50001   0.25000   0.00000  Uiso   1.00
Zn310  Zn    0.55104   0.49999   0.25000   0.00000  Uiso   1.00
Br311  Br    0.97580   0.54126   0.10870   0.00000  Uiso   1.00
Br312  Br    0.69087   0.45874   0.39130   0.00000  Uiso   1.00
Br313  Br    0.97848   0.43943   0.17525   0.00000  Uiso   1.00
Br314  Br    0.68819   0.56057   0.32475   0.00000  Uiso   1.00
C315   C     0.83324   0.58002   0.25009   0.00000  Uiso   1.00
C316   C     0.79591   0.64549   0.24247   0.00000  Uiso   1.00
C317   C     0.83348   0.37582   0.24985   0.00000  Uiso   1.00
C318   C     0.83318   0.62418   0.25015   0.00000  Uiso   1.00
C319   C     0.98946   0.47513   0.21939   0.00000  Uiso   1.00
C320   C     0.67721   0.52487   0.28061   0.00000  Uiso   1.00
C321   C     0.70385   0.47520   0.21956   0.00000  Uiso   1.00
C322   C     0.96282   0.52480   0.28044   0.00000  Uiso   1.00
C323   C     0.80207   0.49957   0.33827   0.00000  Uiso   1.00
C324   C     0.86460   0.50043   0.16173   0.00000  Uiso   1.00
C325   C     0.78164   0.49732   0.38955   0.00000  Uiso   1.00
C326   C     0.83343   0.41998   0.24991   0.00000  Uiso   1.00
C327   C     0.88502   0.50268   0.11045   0.00000  Uiso   1.00
C328   C     0.72350   0.47272   0.46454   0.00000  Uiso   1.00
C329   C     0.94316   0.52728   0.03546   0.00000  Uiso   1.00
C330   C     0.73602   0.47890   0.41682   0.00000  Uiso   1.00
C331   C     0.93065   0.52110   0.08318   0.00000  Uiso   1.00
C332   C     0.81273   0.51010   0.41083   0.00000  Uiso   1.00
C333   C     0.85393   0.48990   0.08917   0.00000  Uiso   1.00
C334   C     0.80352   0.49959   0.45705   0.00000  Uiso   1.00
C335   C     0.86314   0.50041   0.04295   0.00000  Uiso   1.00
C336   C     0.75722   0.48196   0.48450   0.00000  Uiso   1.00
C337   C     0.77907   0.48008   0.05104   0.00000  Uiso   1.00
C338   C     0.90945   0.51804   0.01550   0.00000  Uiso   1.00
C339   C     0.83945   0.50524   0.47618   0.00000  Uiso   1.00
C340   C     0.82722   0.49476   0.02382   0.00000  Uiso   1.00
C341   C     0.88760   0.51992   0.44896   0.00000  Uiso   1.00
C342   C     0.74522   0.47318   0.03139   0.00000  Uiso   1.00
C343   C     0.92145   0.52682   0.46861   0.00000  Uiso   1.00
C344   C     0.87059   0.64524   0.25772   0.00000  Uiso   1.00
C345   C     0.79608   0.35476   0.24228   0.00000  Uiso   1.00
C346   C     0.87075   0.35451   0.25753   0.00000  Uiso   1.00
H347   H     0.68834   0.45876   0.48558   0.00000  Uiso   1.00
H348   H     0.95732   0.53925   0.44686   0.00000  Uiso   1.00
H349   H     0.82163   0.47278   0.11035   0.00000  Uiso   1.00
H350   H     0.84504   0.52722   0.38965   0.00000  Uiso   1.00
H351   H     0.89948   0.62895   0.26398   0.00000  Uiso   1.00
H352   H     0.76719   0.37105   0.23602   0.00000  Uiso   1.00
H353   H     0.97833   0.54124   0.01442   0.00000  Uiso   1.00
H354   H     0.76579   0.47360   0.08792   0.00000  Uiso   1.00
H355   H     0.90088   0.52640   0.41208   0.00000  Uiso   1.00
H356   H     0.89972   0.37061   0.26367   0.00000  Uiso   1.00
H357   H     0.76695   0.62939   0.23633   0.00000  Uiso   1.00
H358   H     0.73255   0.45538   0.19528   0.00000  Uiso   1.00
H359   H     0.93412   0.54462   0.30472   0.00000  Uiso   1.00
H360   H     0.70935   0.46075   0.05314   0.00000  Uiso   1.00
N361   N     0.71426   0.50001   0.25001   0.00000  Uiso   1.00
N362   N     0.95241   0.49999   0.24999   0.00000  Uiso   1.00
O363   O     0.79512   0.56108   0.25000   0.00000  Uiso   1.00
O364   O     0.87154   0.43892   0.24999   0.00000  Uiso   1.00
O365   O     0.87157   0.56107   0.25000   0.00000  Uiso   1.00
O366   O     0.79510   0.43893   0.25000   0.00000  Uiso   1.00
O367   O     0.77328   0.50001   0.31612   0.00000  Uiso   1.00
O368   O     0.89339   0.49999   0.18388   0.00000  Uiso   1.00
O369   O     0.84972   0.50000   0.31612   0.00000  Uiso   1.00
O370   O     0.81695   0.50000   0.18388   0.00000  Uiso   1.00
Zn371  Zn    0.78229   0.50001   0.25000   0.00000  Uiso   1.00
Zn372  Zn    0.88438   0.49999   0.25000   0.00000  Uiso   1.00
Br373  Br    0.30913   0.87460   0.10870   0.00000  Uiso   1.00
Br374  Br    0.02420   0.79207   0.39130   0.00000  Uiso   1.00
Br375  Br    0.31181   0.77277   0.17525   0.00000  Uiso   1.00
Br376  Br    0.02152   0.89390   0.32475   0.00000  Uiso   1.00
C377   C     0.16657   0.91335   0.25009   0.00000  Uiso   1.00
C378   C     0.12925   0.97882   0.24247   0.00000  Uiso   1.00
C379   C     0.16682   0.70915   0.24985   0.00000  Uiso   1.00
C380   C     0.16652   0.95752   0.25015   0.00000  Uiso   1.00
C381   C     0.32279   0.80847   0.21939   0.00000  Uiso   1.00
C382   C     0.01054   0.85820   0.28061   0.00000  Uiso   1.00
C383   C     0.03718   0.80854   0.21956   0.00000  Uiso   1.00
C384   C     0.29615   0.85813   0.28044   0.00000  Uiso   1.00
C385   C     0.13540   0.83291   0.33827   0.00000  Uiso   1.00
C386   C     0.19793   0.83376   0.16173   0.00000  Uiso   1.00
C387   C     0.11498   0.83065   0.38955   0.00000  Uiso   1.00
C388   C     0.16676   0.75331   0.24991   0.00000  Uiso   1.00
C389   C     0.21836   0.83602   0.11045   0.00000  Uiso   1.00
C390   C     0.05684   0.80605   0.46454   0.00000  Uiso   1.00
C391   C     0.27650   0.86061   0.03546   0.00000  Uiso   1.00
C392   C     0.06935   0.81224   0.41682   0.00000  Uiso   1.00
C393   C     0.26398   0.85443   0.08318   0.00000  Uiso   1.00
C394   C     0.14607   0.84343   0.41083   0.00000  Uiso   1.00
C395   C     0.18727   0.82323   0.08917   0.00000  Uiso   1.00
C396   C     0.13686   0.83293   0.45705   0.00000  Uiso   1.00
C397   C     0.19648   0.83374   0.04295   0.00000  Uiso   1.00
C398   C     0.09055   0.81529   0.48450   0.00000  Uiso   1.00
C399   C     0.11240   0.81341   0.05104   0.00000  Uiso   1.00
C400   C     0.24278   0.85138   0.01550   0.00000  Uiso   1.00
C401   C     0.17278   0.83857   0.47618   0.00000  Uiso   1.00
C402   C     0.16055   0.82810   0.02382   0.00000  Uiso   1.00
C403   C     0.22093   0.85326   0.44896   0.00000  Uiso   1.00
C404   C     0.07855   0.80651   0.03139   0.00000  Uiso   1.00
C405   C     0.25478   0.86016   0.46861   0.00000  Uiso   1.00
C406   C     0.20392   0.97858   0.25772   0.00000  Uiso   1.00
C407   C     0.12941   0.68809   0.24228   0.00000  Uiso   1.00
C408   C     0.20409   0.68784   0.25753   0.00000  Uiso   1.00
H409   H     0.02167   0.79209   0.48558   0.00000  Uiso   1.00
H410   H     0.29065   0.87258   0.44686   0.00000  Uiso   1.00
H411   H     0.15496   0.80612   0.11035   0.00000  Uiso   1.00
H412   H     0.17837   0.86055   0.38965   0.00000  Uiso   1.00
H413   H     0.23281   0.96228   0.26398   0.00000  Uiso   1.00
H414   H     0.10052   0.70438   0.23602   0.00000  Uiso   1.00
H415   H     0.31166   0.87457   0.01442   0.00000  Uiso   1.00
H416   H     0.09912   0.80693   0.08792   0.00000  Uiso   1.00
H417   H     0.23421   0.85973   0.41208   0.00000  Uiso   1.00
H418   H     0.23305   0.70394   0.26367   0.00000  Uiso   1.00
H419   H     0.10028   0.96272   0.23633   0.00000  Uiso   1.00
H420   H     0.06588   0.78871   0.19528   0.00000  Uiso   1.00
H421   H     0.26745   0.87795   0.30472   0.00000  Uiso   1.00
H422   H     0.04268   0.79409   0.05314   0.00000  Uiso   1.00
N423   N     0.04759   0.83334   0.25001   0.00000  Uiso   1.00
N424   N     0.28574   0.83332   0.24999   0.00000  Uiso   1.00
O425   O     0.12846   0.89442   0.25000   0.00000  Uiso   1.00
O426   O     0.20488   0.77225   0.24999   0.00000  Uiso   1.00
O427   O     0.20490   0.89441   0.25000   0.00000  Uiso   1.00
O428   O     0.12843   0.77226   0.25000   0.00000  Uiso   1.00
O429   O     0.10661   0.83334   0.31612   0.00000  Uiso   1.00
O430   O     0.22672   0.83333   0.18388   0.00000  Uiso   1.00
O431   O     0.18305   0.83333   0.31612   0.00000  Uiso   1.00
O432   O     0.15028   0.83334   0.18388   0.00000  Uiso   1.00
Zn433  Zn    0.11562   0.83334   0.25000   0.00000  Uiso   1.00
Zn434  Zn    0.21771   0.83333   0.25000   0.00000  Uiso   1.00
Br435  Br    0.64246   0.87460   0.10870   0.00000  Uiso   1.00
Br436  Br    0.35754   0.79207   0.39130   0.00000  Uiso   1.00
Br437  Br    0.64515   0.77277   0.17525   0.00000  Uiso   1.00
Br438  Br    0.35485   0.89390   0.32475   0.00000  Uiso   1.00
C439   C     0.49990   0.91335   0.25009   0.00000  Uiso   1.00
C440   C     0.46258   0.97882   0.24247   0.00000  Uiso   1.00
C441   C     0.50015   0.70915   0.24985   0.00000  Uiso   1.00
C442   C     0.49985   0.95752   0.25015   0.00000  Uiso   1.00
C443   C     0.65613   0.80847   0.21939   0.00000  Uiso   1.00
C444   C     0.34387   0.85820   0.28061   0.00000  Uiso   1.00
C445   C     0.37052   0.80854   0.21956   0.00000  Uiso   1.00
C446   C     0.62948   0.85813   0.28044   0.00000  Uiso   1.00
C447   C     0.46874   0.83291   0.33827   0.00000  Uiso   1.00
C448   C     0.53126   0.83376   0.16173   0.00000  Uiso   1.00
C449   C     0.44831   0.83065   0.38955   0.00000  Uiso   1.00
C450   C     0.50009   0.75331   0.24991   0.00000  Uiso   1.00
C451   C     0.55169   0.83602   0.11045   0.00000  Uiso   1.00
C452   C     0.39017   0.80605   0.46454   0.00000  Uiso   1.00
C453   C     0.60983   0.86061   0.03546   0.00000  Uiso   1.00
C454   C     0.40269   0.81224   0.41682   0.00000  Uiso   1.00
C455   C     0.59731   0.85443   0.08318   0.00000  Uiso   1.00
C456   C     0.47940   0.84343   0.41083   0.00000  Uiso   1.00
C457   C     0.52060   0.82323   0.08917   0.00000  Uiso   1.00
C458   C     0.47019   0.83293   0.45705   0.00000  Uiso   1.00
C459   C     0.52981   0.83374   0.04295   0.00000  Uiso   1.00
C460   C     0.42389   0.81529   0.48450   0.00000  Uiso   1.00
C461   C     0.44574   0.81341   0.05104   0.00000  Uiso   1.00
C462   C     0.57611   0.85138   0.01550   0.00000  Uiso   1.00
C463   C     0.50611   0.83857   0.47618   0.00000  Uiso   1.00
C464   C     0.49388   0.82810   0.02382   0.00000  Uiso   1.00
C465   C     0.55426   0.85326   0.44896   0.00000  Uiso   1.00
C466   C     0.41189   0.80651   0.03139   0.00000  Uiso   1.00
C467   C     0.58811   0.86016   0.46861   0.00000  Uiso   1.00
C468   C     0.53725   0.97858   0.25772   0.00000  Uiso   1.00
C469   C     0.46275   0.68809   0.24228   0.00000  Uiso   1.00
C470   C     0.53742   0.68784   0.25753   0.00000  Uiso   1.00
H471   H     0.35500   0.79209   0.48558   0.00000  Uiso   1.00
H472   H     0.62398   0.87258   0.44686   0.00000  Uiso   1.00
H473   H     0.48830   0.80612   0.11035   0.00000  Uiso   1.00
H474   H     0.51170   0.86055   0.38965   0.00000  Uiso   1.00
H475   H     0.56615   0.96228   0.26398   0.00000  Uiso   1.00
H476   H     0.43385   0.70438   0.23602   0.00000  Uiso   1.00
H477   H     0.64500   0.87457   0.01442   0.00000  Uiso   1.00
H478   H     0.43246   0.80693   0.08792   0.00000  Uiso   1.00
H479   H     0.56754   0.85973   0.41208   0.00000  Uiso   1.00
H480   H     0.56639   0.70394   0.26367   0.00000  Uiso   1.00
H481   H     0.43361   0.96272   0.23633   0.00000  Uiso   1.00
H482   H     0.39921   0.78871   0.19528   0.00000  Uiso   1.00
H483   H     0.60078   0.87795   0.30472   0.00000  Uiso   1.00
H484   H     0.37602   0.79409   0.05314   0.00000  Uiso   1.00
N485   N     0.38093   0.83334   0.25001   0.00000  Uiso   1.00
N486   N     0.61907   0.83332   0.24999   0.00000  Uiso   1.00
O487   O     0.46179   0.89442   0.25000   0.00000  Uiso   1.00
O488   O     0.53821   0.77225   0.24999   0.00000  Uiso   1.00
O489   O     0.53823   0.89441   0.25000   0.00000  Uiso   1.00
O490   O     0.46177   0.77226   0.25000   0.00000  Uiso   1.00
O491   O     0.43994   0.83334   0.31612   0.00000  Uiso   1.00
O492   O     0.56006   0.83333   0.18388   0.00000  Uiso   1.00
O493   O     0.51639   0.83333   0.31612   0.00000  Uiso   1.00
O494   O     0.48361   0.83334   0.18388   0.00000  Uiso   1.00
Zn495  Zn    0.44896   0.83334   0.25000   0.00000  Uiso   1.00
Zn496  Zn    0.55104   0.83333   0.25000   0.00000  Uiso   1.00
Br497  Br    0.97580   0.87460   0.10870   0.00000  Uiso   1.00
Br498  Br    0.69087   0.79207   0.39130   0.00000  Uiso   1.00
Br499  Br    0.97848   0.77277   0.17525   0.00000  Uiso   1.00
Br500  Br    0.68819   0.89390   0.32475   0.00000  Uiso   1.00
C501   C     0.83324   0.91335   0.25009   0.00000  Uiso   1.00
C502   C     0.79591   0.97882   0.24247   0.00000  Uiso   1.00
C503   C     0.83348   0.70915   0.24985   0.00000  Uiso   1.00
C504   C     0.83318   0.95752   0.25015   0.00000  Uiso   1.00
C505   C     0.98946   0.80847   0.21939   0.00000  Uiso   1.00
C506   C     0.67721   0.85820   0.28061   0.00000  Uiso   1.00
C507   C     0.70385   0.80854   0.21956   0.00000  Uiso   1.00
C508   C     0.96282   0.85813   0.28044   0.00000  Uiso   1.00
C509   C     0.80207   0.83291   0.33827   0.00000  Uiso   1.00
C510   C     0.86460   0.83376   0.16173   0.00000  Uiso   1.00
C511   C     0.78164   0.83065   0.38955   0.00000  Uiso   1.00
C512   C     0.83343   0.75331   0.24991   0.00000  Uiso   1.00
C513   C     0.88502   0.83602   0.11045   0.00000  Uiso   1.00
C514   C     0.72350   0.80605   0.46454   0.00000  Uiso   1.00
C515   C     0.94316   0.86061   0.03546   0.00000  Uiso   1.00
C516   C     0.73602   0.81224   0.41682   0.00000  Uiso   1.00
C517   C     0.93065   0.85443   0.08318   0.00000  Uiso   1.00
C518   C     0.81273   0.84343   0.41083   0.00000  Uiso   1.00
C519   C     0.85393   0.82323   0.08917   0.00000  Uiso   1.00
C520   C     0.80352   0.83293   0.45705   0.00000  Uiso   1.00
C521   C     0.86314   0.83374   0.04295   0.00000  Uiso   1.00
C522   C     0.75722   0.81529   0.48450   0.00000  Uiso   1.00
C523   C     0.77907   0.81341   0.05104   0.00000  Uiso   1.00
C524   C     0.90945   0.85138   0.01550   0.00000  Uiso   1.00
C525   C     0.83945   0.83857   0.47618   0.00000  Uiso   1.00
C526   C     0.82722   0.82810   0.02382   0.00000  Uiso   1.00
C527   C     0.88760   0.85326   0.44896   0.00000  Uiso   1.00
C528   C     0.74522   0.80651   0.03139   0.00000  Uiso   1.00
C529   C     0.92145   0.86016   0.46861   0.00000  Uiso   1.00
C530   C     0.87059   0.97858   0.25772   0.00000  Uiso   1.00
C531   C     0.79608   0.68809   0.24228   0.00000  Uiso   1.00
C532   C     0.87075   0.68784   0.25753   0.00000  Uiso   1.00
H533   H     0.68834   0.79209   0.48558   0.00000  Uiso   1.00
H534   H     0.95732   0.87258   0.44686   0.00000  Uiso   1.00
H535   H     0.82163   0.80612   0.11035   0.00000  Uiso   1.00
H536   H     0.84504   0.86055   0.38965   0.00000  Uiso   1.00
H537   H     0.89948   0.96228   0.26398   0.00000  Uiso   1.00
H538   H     0.76719   0.70438   0.23602   0.00000  Uiso   1.00
H539   H     0.97833   0.87457   0.01442   0.00000  Uiso   1.00
H540   H     0.76579   0.80693   0.08792   0.00000  Uiso   1.00
H541   H     0.90088   0.85973   0.41208   0.00000  Uiso   1.00
H542   H     0.89972   0.70394   0.26367   0.00000  Uiso   1.00
H543   H     0.76695   0.96272   0.23633   0.00000  Uiso   1.00
H544   H     0.73255   0.78871   0.19528   0.00000  Uiso   1.00
H545   H     0.93412   0.87795   0.30472   0.00000  Uiso   1.00
H546   H     0.70935   0.79409   0.05314   0.00000  Uiso   1.00
N547   N     0.71426   0.83334   0.25001   0.00000  Uiso   1.00
N548   N     0.95241   0.83332   0.24999   0.00000  Uiso   1.00
O549   O     0.79512   0.89442   0.25000   0.00000  Uiso   1.00
O550   O     0.87154   0.77225   0.24999   0.00000  Uiso   1.00
O551   O     0.87157   0.89441   0.25000   0.00000  Uiso   1.00
O552   O     0.79510   0.77226   0.25000   0.00000  Uiso   1.00
O553   O     0.77328   0.83334   0.31612   0.00000  Uiso   1.00
O554   O     0.89339   0.83333   0.18388   0.00000  Uiso   1.00
O555   O     0.84972   0.83333   0.31612   0.00000  Uiso   1.00
O556   O     0.81695   0.83334   0.18388   0.00000  Uiso   1.00
Zn557  Zn    0.78229   0.83334   0.25000   0.00000  Uiso   1.00
Zn558  Zn    0.88438   0.83333   0.25000   0.00000  Uiso   1.00
Br559  Br    0.30913   0.20793   0.60870   0.00000  Uiso   1.00
Br560  Br    0.02420   0.12540   0.89130   0.00000  Uiso   1.00
Br561  Br    0.31181   0.10610   0.67525   0.00000  Uiso   1.00
Br562  Br    0.02152   0.22723   0.82475   0.00000  Uiso   1.00
C563   C     0.16657   0.24669   0.75009   0.00000  Uiso   1.00
C564   C     0.12925   0.31216   0.74247   0.00000  Uiso   1.00
C565   C     0.16682   0.04248   0.74985   0.00000  Uiso   1.00
C566   C     0.16652   0.29085   0.75015   0.00000  Uiso   1.00
C567   C     0.32279   0.14180   0.71939   0.00000  Uiso   1.00
C568   C     0.01054   0.19153   0.78061   0.00000  Uiso   1.00
C569   C     0.03718   0.14187   0.71956   0.00000  Uiso   1.00
C570   C     0.29615   0.19146   0.78044   0.00000  Uiso   1.00
C571   C     0.13540   0.16624   0.83827   0.00000  Uiso   1.00
C572   C     0.19793   0.16709   0.66173   0.00000  Uiso   1.00
C573   C     0.11498   0.16398   0.88955   0.00000  Uiso   1.00
C574   C     0.16676   0.08665   0.74991   0.00000  Uiso   1.00
C575   C     0.21836   0.16935   0.61045   0.00000  Uiso   1.00
C576   C     0.05684   0.13939   0.96454   0.00000  Uiso   1.00
C577   C     0.27650   0.19395   0.53546   0.00000  Uiso   1.00
C578   C     0.06935   0.14557   0.91682   0.00000  Uiso   1.00
C579   C     0.26398   0.18776   0.58318   0.00000  Uiso   1.00
C580   C     0.14607   0.17677   0.91083   0.00000  Uiso   1.00
C581   C     0.18727   0.15657   0.58917   0.00000  Uiso   1.00
C582   C     0.13686   0.16626   0.95705   0.00000  Uiso   1.00
C583   C     0.19648   0.16707   0.54295   0.00000  Uiso   1.00
C584   C     0.09055   0.14862   0.98450   0.00000  Uiso   1.00
C585   C     0.11240   0.14674   0.55104   0.00000  Uiso   1.00
C586   C     0.24278   0.18471   0.51550   0.00000  Uiso   1.00
C587   C     0.17278   0.17190   0.97618   0.00000  Uiso   1.00
C588   C     0.16055   0.16143   0.52382   0.00000  Uiso   1.00
C589   C     0.22093   0.18659   0.94896   0.00000  Uiso   1.00
C590   C     0.07855   0.13984   0.53139   0.00000  Uiso   1.00
C591   C     0.25478   0.19349   0.96861   0.00000  Uiso   1.00
C592   C     0.20392   0.31191   0.75772   0.00000  Uiso   1.00
C593   C     0.12941   0.02142   0.74228   0.00000  Uiso   1.00
C594   C     0.20409   0.02118   0.75753   0.00000  Uiso   1.00
H595   H     0.02167   0.12543   0.98558   0.00000  Uiso   1.00
H596   H     0.29065   0.20591   0.94686   0.00000  Uiso   1.00
H597   H     0.15496   0.13945   0.61035   0.00000  Uiso   1.00
H598   H     0.17837   0.19388   0.88965   0.00000  Uiso   1.00
H599   H     0.23281   0.29562   0.76398   0.00000  Uiso   1.00
H600   H     0.10052   0.03772   0.73602   0.00000  Uiso   1.00
H601   H     0.31166   0.20791   0.51442   0.00000  Uiso   1.00
H602   H     0.09912   0.14027   0.58792   0.00000  Uiso   1.00
H603   H     0.23421   0.19307   0.91208   0.00000  Uiso   1.00
H604   H     0.23305   0.03728   0.76367   0.00000  Uiso   1.00
H605   H     0.10028   0.29606   0.73633   0.00000  Uiso   1.00
H606   H     0.06588   0.12205   0.69528   0.00000  Uiso   1.00
H607   H     0.26745   0.21129   0.80472   0.00000  Uiso   1.00
H608   H     0.04268   0.12742   0.55314   0.00000  Uiso   1.00
N609   N     0.04759   0.16668   0.75001   0.00000  Uiso   1.00
N610   N     0.28574   0.16666   0.74999   0.00000  Uiso   1.00
O611   O     0.12846   0.22775   0.75000   0.00000  Uiso   1.00
O612   O     0.20488   0.10558   0.74999   0.00000  Uiso   1.00
O613   O     0.20490   0.22774   0.75000   0.00000  Uiso   1.00
O614   O     0.12843   0.10559   0.75000   0.00000  Uiso   1.00
O615   O     0.10661   0.16667   0.81612   0.00000  Uiso   1.00
O616   O     0.22672   0.16666   0.68388   0.00000  Uiso   1.00
O617   O     0.18305   0.16666   0.81612   0.00000  Uiso   1.00
O618   O     0.15028   0.16667   0.68388   0.00000  Uiso   1.00
Zn619  Zn    0.11562   0.16667   0.75000   0.00000  Uiso   1.00
Zn620  Zn    0.21771   0.16666   0.75000   0.00000  Uiso   1.00
Br621  Br    0.64246   0.20793   0.60870   0.00000  Uiso   1.00
Br622  Br    0.35754   0.12540   0.89130   0.00000  Uiso   1.00
Br623  Br    0.64515   0.10610   0.67525   0.00000  Uiso   1.00
Br624  Br    0.35485   0.22723   0.82475   0.00000  Uiso   1.00
C625   C     0.49990   0.24669   0.75009   0.00000  Uiso   1.00
C626   C     0.46258   0.31216   0.74247   0.00000  Uiso   1.00
C627   C     0.50015   0.04248   0.74985   0.00000  Uiso   1.00
C628   C     0.49985   0.29085   0.75015   0.00000  Uiso   1.00
C629   C     0.65613   0.14180   0.71939   0.00000  Uiso   1.00
C630   C     0.34387   0.19153   0.78061   0.00000  Uiso   1.00
C631   C     0.37052   0.14187   0.71956   0.00000  Uiso   1.00
C632   C     0.62948   0.19146   0.78044   0.00000  Uiso   1.00
C633   C     0.46874   0.16624   0.83827   0.00000  Uiso   1.00
C634   C     0.53126   0.16709   0.66173   0.00000  Uiso   1.00
C635   C     0.44831   0.16398   0.88955   0.00000  Uiso   1.00
C636   C     0.50009   0.08665   0.74991   0.00000  Uiso   1.00
C637   C     0.55169   0.16935   0.61045   0.00000  Uiso   1.00
C638   C     0.39017   0.13939   0.96454   0.00000  Uiso   1.00
C639   C     0.60983   0.19395   0.53546   0.00000  Uiso   1.00
C640   C     0.40269   0.14557   0.91682   0.00000  Uiso   1.00
C641   C     0.59731   0.18776   0.58318   0.00000  Uiso   1.00
C642   C     0.47940   0.17677   0.91083   0.00000  Uiso   1.00
C643   C     0.52060   0.15657   0.58917   0.00000  Uiso   1.00
C644   C     0.47019   0.16626   0.95705   0.00000  Uiso   1.00
C645   C     0.52981   0.16707   0.54295   0.00000  Uiso   1.00
C646   C     0.42389   0.14862   0.98450   0.00000  Uiso   1.00
C647   C     0.44574   0.14674   0.55104   0.00000  Uiso   1.00
C648   C     0.57611   0.18471   0.51550   0.00000  Uiso   1.00
C649   C     0.50611   0.17190   0.97618   0.00000  Uiso   1.00
C650   C     0.49388   0.16143   0.52382   0.00000  Uiso   1.00
C651   C     0.55426   0.18659   0.94896   0.00000  Uiso   1.00
C652   C     0.41189   0.13984   0.53139   0.00000  Uiso   1.00
C653   C     0.58811   0.19349   0.96861   0.00000  Uiso   1.00
C654   C     0.53725   0.31191   0.75772   0.00000  Uiso   1.00
C655   C     0.46275   0.02142   0.74228   0.00000  Uiso   1.00
C656   C     0.53742   0.02118   0.75753   0.00000  Uiso   1.00
H657   H     0.35500   0.12543   0.98558   0.00000  Uiso   1.00
H658   H     0.62398   0.20591   0.94686   0.00000  Uiso   1.00
H659   H     0.48830   0.13945   0.61035   0.00000  Uiso   1.00
H660   H     0.51170   0.19388   0.88965   0.00000  Uiso   1.00
H661   H     0.56615   0.29562   0.76398   0.00000  Uiso   1.00
H662   H     0.43385   0.03772   0.73602   0.00000  Uiso   1.00
H663   H     0.64500   0.20791   0.51442   0.00000  Uiso   1.00
H664   H     0.43246   0.14027   0.58792   0.00000  Uiso   1.00
H665   H     0.56754   0.19307   0.91208   0.00000  Uiso   1.00
H666   H     0.56639   0.03728   0.76367   0.00000  Uiso   1.00
H667   H     0.43361   0.29606   0.73633   0.00000  Uiso   1.00
H668   H     0.39921   0.12205   0.69528   0.00000  Uiso   1.00
H669   H     0.60078   0.21129   0.80472   0.00000  Uiso   1.00
H670   H     0.37602   0.12742   0.55314   0.00000  Uiso   1.00
N671   N     0.38093   0.16668   0.75001   0.00000  Uiso   1.00
N672   N     0.61907   0.16666   0.74999   0.00000  Uiso   1.00
O673   O     0.46179   0.22775   0.75000   0.00000  Uiso   1.00
O674   O     0.53821   0.10558   0.74999   0.00000  Uiso   1.00
O675   O     0.53823   0.22774   0.75000   0.00000  Uiso   1.00
O676   O     0.46177   0.10559   0.75000   0.00000  Uiso   1.00
O677   O     0.43994   0.16667   0.81612   0.00000  Uiso   1.00
O678   O     0.56006   0.16666   0.68388   0.00000  Uiso   1.00
O679   O     0.51639   0.16666   0.81612   0.00000  Uiso   1.00
O680   O     0.48361   0.16667   0.68388   0.00000  Uiso   1.00
Zn681  Zn    0.44896   0.16667   0.75000   0.00000  Uiso   1.00
Zn682  Zn    0.55104   0.16666   0.75000   0.00000  Uiso   1.00
Br683  Br    0.97580   0.20793   0.60870   0.00000  Uiso   1.00
Br684  Br    0.69087   0.12540   0.89130   0.00000  Uiso   1.00
Br685  Br    0.97848   0.10610   0.67525   0.00000  Uiso   1.00
Br686  Br    0.68819   0.22723   0.82475   0.00000  Uiso   1.00
C687   C     0.83324   0.24669   0.75009   0.00000  Uiso   1.00
C688   C     0.79591   0.31216   0.74247   0.00000  Uiso   1.00
C689   C     0.83348   0.04248   0.74985   0.00000  Uiso   1.00
C690   C     0.83318   0.29085   0.75015   0.00000  Uiso   1.00
C691   C     0.98946   0.14180   0.71939   0.00000  Uiso   1.00
C692   C     0.67721   0.19153   0.78061   0.00000  Uiso   1.00
C693   C     0.70385   0.14187   0.71956   0.00000  Uiso   1.00
C694   C     0.96282   0.19146   0.78044   0.00000  Uiso   1.00
C695   C     0.80207   0.16624   0.83827   0.00000  Uiso   1.00
C696   C     0.86460   0.16709   0.66173   0.00000  Uiso   1.00
C697   C     0.78164   0.16398   0.88955   0.00000  Uiso   1.00
C698   C     0.83343   0.08665   0.74991   0.00000  Uiso   1.00
C699   C     0.88502   0.16935   0.61045   0.00000  Uiso   1.00
C700   C     0.72350   0.13939   0.96454   0.00000  Uiso   1.00
C701   C     0.94316   0.19395   0.53546   0.00000  Uiso   1.00
C702   C     0.73602   0.14557   0.91682   0.00000  Uiso   1.00
C703   C     0.93065   0.18776   0.58318   0.00000  Uiso   1.00
C704   C     0.81273   0.17677   0.91083   0.00000  Uiso   1.00
C705   C     0.85393   0.15657   0.58917   0.00000  Uiso   1.00
C706   C     0.80352   0.16626   0.95705   0.00000  Uiso   1.00
C707   C     0.86314   0.16707   0.54295   0.00000  Uiso   1.00
C708   C     0.75722   0.14862   0.98450   0.00000  Uiso   1.00
C709   C     0.77907   0.14674   0.55104   0.00000  Uiso   1.00
C710   C     0.90945   0.18471   0.51550   0.00000  Uiso   1.00
C711   C     0.83945   0.17190   0.97618   0.00000  Uiso   1.00
C712   C     0.82722   0.16143   0.52382   0.00000  Uiso   1.00
C713   C     0.88760   0.18659   0.94896   0.00000  Uiso   1.00
C714   C     0.74522   0.13984   0.53139   0.00000  Uiso   1.00
C715   C     0.92145   0.19349   0.96861   0.00000  Uiso   1.00
C716   C     0.87059   0.31191   0.75772   0.00000  Uiso   1.00
C717   C     0.79608   0.02142   0.74228   0.00000  Uiso   1.00
C718   C     0.87075   0.02118   0.75753   0.00000  Uiso   1.00
H719   H     0.68834   0.12543   0.98558   0.00000  Uiso   1.00
H720   H     0.95732   0.20591   0.94686   0.00000  Uiso   1.00
H721   H     0.82163   0.13945   0.61035   0.00000  Uiso   1.00
H722   H     0.84504   0.19388   0.88965   0.00000  Uiso   1.00
H723   H     0.89948   0.29562   0.76398   0.00000  Uiso   1.00
H724   H     0.76719   0.03772   0.73602   0.00000  Uiso   1.00
H725   H     0.97833   0.20791   0.51442   0.00000  Uiso   1.00
H726   H     0.76579   0.14027   0.58792   0.00000  Uiso   1.00
H727   H     0.90088   0.19307   0.91208   0.00000  Uiso   1.00
H728   H     0.89972   0.03728   0.76367   0.00000  Uiso   1.00
H729   H     0.76695   0.29606   0.73633   0.00000  Uiso   1.00
H730   H     0.73255   0.12205   0.69528   0.00000  Uiso   1.00
H731   H     0.93412   0.21129   0.80472   0.00000  Uiso   1.00
H732   H     0.70935   0.12742   0.55314   0.00000  Uiso   1.00
N733   N     0.71426   0.16668   0.75001   0.00000  Uiso   1.00
N734   N     0.95241   0.16666   0.74999   0.00000  Uiso   1.00
O735   O     0.79512   0.22775   0.75000   0.00000  Uiso   1.00
O736   O     0.87154   0.10558   0.74999   0.00000  Uiso   1.00
O737   O     0.87157   0.22774   0.75000   0.00000  Uiso   1.00
O738   O     0.79510   0.10559   0.75000   0.00000  Uiso   1.00
O739   O     0.77328   0.16667   0.81612   0.00000  Uiso   1.00
O740   O     0.89339   0.16666   0.68388   0.00000  Uiso   1.00
O741   O     0.84972   0.16666   0.81612   0.00000  Uiso   1.00
O742   O     0.81695   0.16667   0.68388   0.00000  Uiso   1.00
Zn743  Zn    0.78229   0.16667   0.75000   0.00000  Uiso   1.00
Zn744  Zn    0.88438   0.16666   0.75000   0.00000  Uiso   1.00
Br745  Br    0.30913   0.54126   0.60870   0.00000  Uiso   1.00
Br746  Br    0.02420   0.45874   0.89130   0.00000  Uiso   1.00
Br747  Br    0.31181   0.43943   0.67525   0.00000  Uiso   1.00
Br748  Br    0.02152   0.56057   0.82475   0.00000  Uiso   1.00
C749   C     0.16657   0.58002   0.75009   0.00000  Uiso   1.00
C750   C     0.12925   0.64549   0.74247   0.00000  Uiso   1.00
C751   C     0.16682   0.37582   0.74985   0.00000  Uiso   1.00
C752   C     0.16652   0.62418   0.75015   0.00000  Uiso   1.00
C753   C     0.32279   0.47513   0.71939   0.00000  Uiso   1.00
C754   C     0.01054   0.52487   0.78061   0.00000  Uiso   1.00
C755   C     0.03718   0.47520   0.71956   0.00000  Uiso   1.00
C756   C     0.29615   0.52480   0.78044   0.00000  Uiso   1.00
C757   C     0.13540   0.49957   0.83827   0.00000  Uiso   1.00
C758   C     0.19793   0.50043   0.66173   0.00000  Uiso   1.00
C759   C     0.11498   0.49732   0.88955   0.00000  Uiso   1.00
C760   C     0.16676   0.41998   0.74991   0.00000  Uiso   1.00
C761   C     0.21836   0.50268   0.61045   0.00000  Uiso   1.00
C762   C     0.05684   0.47272   0.96454   0.00000  Uiso   1.00
C763   C     0.27650   0.52728   0.53546   0.00000  Uiso   1.00
C764   C     0.06935   0.47890   0.91682   0.00000  Uiso   1.00
C765   C     0.26398   0.52110   0.58318   0.00000  Uiso   1.00
C766   C     0.14607   0.51010   0.91083   0.00000  Uiso   1.00
C767   C     0.18727   0.48990   0.58917   0.00000  Uiso   1.00
C768   C     0.13686   0.49959   0.95705   0.00000  Uiso   1.00
C769   C     0.19648   0.50041   0.54295   0.00000  Uiso   1.00
C770   C     0.09055   0.48196   0.98450   0.00000  Uiso   1.00
C771   C     0.11240   0.48008   0.55104   0.00000  Uiso   1.00
C772   C     0.24278   0.51804   0.51550   0.00000  Uiso   1.00
C773   C     0.17278   0.50524   0.97618   0.00000  Uiso   1.00
C774   C     0.16055   0.49476   0.52382   0.00000  Uiso   1.00
C775   C     0.22093   0.51992   0.94896   0.00000  Uiso   1.00
C776   C     0.07855   0.47318   0.53139   0.00000  Uiso   1.00
C777   C     0.25478   0.52682   0.96861   0.00000  Uiso   1.00
C778   C     0.20392   0.64524   0.75772   0.00000  Uiso   1.00
C779   C     0.12941   0.35476   0.74228   0.00000  Uiso   1.00
C780   C     0.20409   0.35451   0.75753   0.00000  Uiso   1.00
H781   H     0.02167   0.45876   0.98558   0.00000  Uiso   1.00
H782   H     0.29065   0.53925   0.94686   0.00000  Uiso   1.00
H783   H     0.15496   0.47278   0.61035   0.00000  Uiso   1.00
H784   H     0.17837   0.52722   0.88965   0.00000  Uiso   1.00
H785   H     0.23281   0.62895   0.76398   0.00000  Uiso   1.00
H786   H     0.10052   0.37105   0.73602   0.00000  Uiso   1.00
H787   H     0.31166   0.54124   0.51442   0.00000  Uiso   1.00
H788   H     0.09912   0.47360   0.58792   0.00000  Uiso   1.00
H789   H     0.23421   0.52640   0.91208   0.00000  Uiso   1.00
H790   H     0.23305   0.37061   0.76367   0.00000  Uiso   1.00
H791   H     0.10028   0.62939   0.73633   0.00000  Uiso   1.00
H792   H     0.06588   0.45538   0.69528   0.00000  Uiso   1.00
H793   H     0.26745   0.54462   0.80472   0.00000  Uiso   1.00
H794   H     0.04268   0.46075   0.55314   0.00000  Uiso   1.00
N795   N     0.04759   0.50001   0.75001   0.00000  Uiso   1.00
N796   N     0.28574   0.49999   0.74999   0.00000  Uiso   1.00
O797   O     0.12846   0.56108   0.75000   0.00000  Uiso   1.00
O798   O     0.20488   0.43892   0.74999   0.00000  Uiso   1.00
O799   O     0.20490   0.56107   0.75000   0.00000  Uiso   1.00
O800   O     0.12843   0.43893   0.75000   0.00000  Uiso   1.00
O801   O     0.10661   0.50001   0.81612   0.00000  Uiso   1.00
O802   O     0.22672   0.49999   0.68388   0.00000  Uiso   1.00
O803   O     0.18305   0.50000   0.81612   0.00000  Uiso   1.00
O804   O     0.15028   0.50000   0.68388   0.00000  Uiso   1.00
Zn805  Zn    0.11562   0.50001   0.75000   0.00000  Uiso   1.00
Zn806  Zn    0.21771   0.49999   0.75000   0.00000  Uiso   1.00
Br807  Br    0.64246   0.54126   0.60870   0.00000  Uiso   1.00
Br808  Br    0.35754   0.45874   0.89130   0.00000  Uiso   1.00
Br809  Br    0.64515   0.43943   0.67525   0.00000  Uiso   1.00
Br810  Br    0.35485   0.56057   0.82475   0.00000  Uiso   1.00
C811   C     0.49990   0.58002   0.75009   0.00000  Uiso   1.00
C812   C     0.46258   0.64549   0.74247   0.00000  Uiso   1.00
C813   C     0.50015   0.37582   0.74985   0.00000  Uiso   1.00
C814   C     0.49985   0.62418   0.75015   0.00000  Uiso   1.00
C815   C     0.65613   0.47513   0.71939   0.00000  Uiso   1.00
C816   C     0.34387   0.52487   0.78061   0.00000  Uiso   1.00
C817   C     0.37052   0.47520   0.71956   0.00000  Uiso   1.00
C818   C     0.62948   0.52480   0.78044   0.00000  Uiso   1.00
C819   C     0.46874   0.49957   0.83827   0.00000  Uiso   1.00
C820   C     0.53126   0.50043   0.66173   0.00000  Uiso   1.00
C821   C     0.44831   0.49732   0.88955   0.00000  Uiso   1.00
C822   C     0.50009   0.41998   0.74991   0.00000  Uiso   1.00
C823   C     0.55169   0.50268   0.61045   0.00000  Uiso   1.00
C824   C     0.39017   0.47272   0.96454   0.00000  Uiso   1.00
C825   C     0.60983   0.52728   0.53546   0.00000  Uiso   1.00
C826   C     0.40269   0.47890   0.91682   0.00000  Uiso   1.00
C827   C     0.59731   0.52110   0.58318   0.00000  Uiso   1.00
C828   C     0.47940   0.51010   0.91083   0.00000  Uiso   1.00
C829   C     0.52060   0.48990   0.58917   0.00000  Uiso   1.00
C830   C     0.47019   0.49959   0.95705   0.00000  Uiso   1.00
C831   C     0.52981   0.50041   0.54295   0.00000  Uiso   1.00
C832   C     0.42389   0.48196   0.98450   0.00000  Uiso   1.00
C833   C     0.44574   0.48008   0.55104   0.00000  Uiso   1.00
C834   C     0.57611   0.51804   0.51550   0.00000  Uiso   1.00
C835   C     0.50611   0.50524   0.97618   0.00000  Uiso   1.00
C836   C     0.49388   0.49476   0.52382   0.00000  Uiso   1.00
C837   C     0.55426   0.51992   0.94896   0.00000  Uiso   1.00
C838   C     0.41189   0.47318   0.53139   0.00000  Uiso   1.00
C839   C     0.58811   0.52682   0.96861   0.00000  Uiso   1.00
C840   C     0.53725   0.64524   0.75772   0.00000  Uiso   1.00
C841   C     0.46275   0.35476   0.74228   0.00000  Uiso   1.00
C842   C     0.53742   0.35451   0.75753   0.00000  Uiso   1.00
H843   H     0.35500   0.45876   0.98558   0.00000  Uiso   1.00
H844   H     0.62398   0.53925   0.94686   0.00000  Uiso   1.00
H845   H     0.48830   0.47278   0.61035   0.00000  Uiso   1.00
H846   H     0.51170   0.52722   0.88965   0.00000  Uiso   1.00
H847   H     0.56615   0.62895   0.76398   0.00000  Uiso   1.00
H848   H     0.43385   0.37105   0.73602   0.00000  Uiso   1.00
H849   H     0.64500   0.54124   0.51442   0.00000  Uiso   1.00
H850   H     0.43246   0.47360   0.58792   0.00000  Uiso   1.00
H851   H     0.56754   0.52640   0.91208   0.00000  Uiso   1.00
H852   H     0.56639   0.37061   0.76367   0.00000  Uiso   1.00
H853   H     0.43361   0.62939   0.73633   0.00000  Uiso   1.00
H854   H     0.39921   0.45538   0.69528   0.00000  Uiso   1.00
H855   H     0.60078   0.54462   0.80472   0.00000  Uiso   1.00
H856   H     0.37602   0.46075   0.55314   0.00000  Uiso   1.00
N857   N     0.38093   0.50001   0.75001   0.00000  Uiso   1.00
N858   N     0.61907   0.49999   0.74999   0.00000  Uiso   1.00
O859   O     0.46179   0.56108   0.75000   0.00000  Uiso   1.00
O860   O     0.53821   0.43892   0.74999   0.00000  Uiso   1.00
O861   O     0.53823   0.56107   0.75000   0.00000  Uiso   1.00
O862   O     0.46177   0.43893   0.75000   0.00000  Uiso   1.00
O863   O     0.43994   0.50001   0.81612   0.00000  Uiso   1.00
O864   O     0.56006   0.49999   0.68388   0.00000  Uiso   1.00
O865   O     0.51639   0.50000   0.81612   0.00000  Uiso   1.00
O866   O     0.48361   0.50000   0.68388   0.00000  Uiso   1.00
Zn867  Zn    0.44896   0.50001   0.75000   0.00000  Uiso   1.00
Zn868  Zn    0.55104   0.49999   0.75000   0.00000  Uiso   1.00
Br869  Br    0.97580   0.54126   0.60870   0.00000  Uiso   1.00
Br870  Br    0.69087   0.45874   0.89130   0.00000  Uiso   1.00
Br871  Br    0.97848   0.43943   0.67525   0.00000  Uiso   1.00
Br872  Br    0.68819   0.56057   0.82475   0.00000  Uiso   1.00
C873   C     0.83324   0.58002   0.75009   0.00000  Uiso   1.00
C874   C     0.79591   0.64549   0.74247   0.00000  Uiso   1.00
C875   C     0.83348   0.37582   0.74985   0.00000  Uiso   1.00
C876   C     0.83318   0.62418   0.75015   0.00000  Uiso   1.00
C877   C     0.98946   0.47513   0.71939   0.00000  Uiso   1.00
C878   C     0.67721   0.52487   0.78061   0.00000  Uiso   1.00
C879   C     0.70385   0.47520   0.71956   0.00000  Uiso   1.00
C880   C     0.96282   0.52480   0.78044   0.00000  Uiso   1.00
C881   C     0.80207   0.49957   0.83827   0.00000  Uiso   1.00
C882   C     0.86460   0.50043   0.66173   0.00000  Uiso   1.00
C883   C     0.78164   0.49732   0.88955   0.00000  Uiso   1.00
C884   C     0.83343   0.41998   0.74991   0.00000  Uiso   1.00
C885   C     0.88502   0.50268   0.61045   0.00000  Uiso   1.00
C886   C     0.72350   0.47272   0.96454   0.00000  Uiso   1.00
C887   C     0.94316   0.52728   0.53546   0.00000  Uiso   1.00
C888   C     0.73602   0.47890   0.91682   0.00000  Uiso   1.00
C889   C     0.93065   0.52110   0.58318   0.00000  Uiso   1.00
C890   C     0.81273   0.51010   0.91083   0.00000  Uiso   1.00
C891   C     0.85393   0.48990   0.58917   0.00000  Uiso   1.00
C892   C     0.80352   0.49959   0.95705   0.00000  Uiso   1.00
C893   C     0.86314   0.50041   0.54295   0.00000  Uiso   1.00
C894   C     0.75722   0.48196   0.98450   0.00000  Uiso   1.00
C895   C     0.77907   0.48008   0.55104   0.00000  Uiso   1.00
C896   C     0.90945   0.51804   0.51550   0.00000  Uiso   1.00
C897   C     0.83945   0.50524   0.97618   0.00000  Uiso   1.00
C898   C     0.82722   0.49476   0.52382   0.00000  Uiso   1.00
C899   C     0.88760   0.51992   0.94896   0.00000  Uiso   1.00
C900   C     0.74522   0.47318   0.53139   0.00000  Uiso   1.00
C901   C     0.92145   0.52682   0.96861   0.00000  Uiso   1.00
C902   C     0.87059   0.64524   0.75772   0.00000  Uiso   1.00
C903   C     0.79608   0.35476   0.74228   0.00000  Uiso   1.00
C904   C     0.87075   0.35451   0.75753   0.00000  Uiso   1.00
H905   H     0.68834   0.45876   0.98558   0.00000  Uiso   1.00
H906   H     0.95732   0.53925   0.94686   0.00000  Uiso   1.00
H907   H     0.82163   0.47278   0.61035   0.00000  Uiso   1.00
H908   H     0.84504   0.52722   0.88965   0.00000  Uiso   1.00
H909   H     0.89948   0.62895   0.76398   0.00000  Uiso   1.00
H910   H     0.76719   0.37105   0.73602   0.00000  Uiso   1.00
H911   H     0.97833   0.54124   0.51442   0.00000  Uiso   1.00
H912   H     0.76579   0.47360   0.58792   0.00000  Uiso   1.00
H913   H     0.90088   0.52640   0.91208   0.00000  Uiso   1.00
H914   H     0.89972   0.37061   0.76367   0.00000  Uiso   1.00
H915   H     0.76695   0.62939   0.73633   0.00000  Uiso   1.00
H916   H     0.73255   0.45538   0.69528   0.00000  Uiso   1.00
H917   H     0.93412   0.54462   0.80472   0.00000  Uiso   1.00
H918   H     0.70935   0.46075   0.55314   0.00000  Uiso   1.00
N919   N     0.71426   0.50001   0.75001   0.00000  Uiso   1.00
N920   N     0.95241   0.49999   0.74999   0.00000  Uiso   1.00
O921   O     0.79512   0.56108   0.75000   0.00000  Uiso   1.00
O922   O     0.87154   0.43892   0.74999   0.00000  Uiso   1.00
O923   O     0.87157   0.56107   0.75000   0.00000  Uiso   1.00
O924   O     0.79510   0.43893   0.75000   0.00000  Uiso   1.00
O925   O     0.77328   0.50001   0.81612   0.00000  Uiso   1.00
O926   O     0.89339   0.49999   0.68388   0.00000  Uiso   1.00
O927   O     0.84972   0.50000   0.81612   0.00000  Uiso   1.00
O928   O     0.81695   0.50000   0.68388   0.00000  Uiso   1.00
Zn929  Zn    0.78229   0.50001   0.75000   0.00000  Uiso   1.00
Zn930  Zn    0.88438   0.49999   0.75000   0.00000  Uiso   1.00
Br931  Br    0.30913   0.87460   0.60870   0.00000  Uiso   1.00
Br932  Br    0.02420   0.79207   0.89130   0.00000  Uiso   1.00
Br933  Br    0.31181   0.77277   0.67525   0.00000  Uiso   1.00
Br934  Br    0.02152   0.89390   0.82475   0.00000  Uiso   1.00
C935   C     0.16657   0.91335   0.75009   0.00000  Uiso   1.00
C936   C     0.12925   0.97882   0.74247   0.00000  Uiso   1.00
C937   C     0.16682   0.70915   0.74985   0.00000  Uiso   1.00
C938   C     0.16652   0.95752   0.75015   0.00000  Uiso   1.00
C939   C     0.32279   0.80847   0.71939   0.00000  Uiso   1.00
C940   C     0.01054   0.85820   0.78061   0.00000  Uiso   1.00
C941   C     0.03718   0.80854   0.71956   0.00000  Uiso   1.00
C942   C     0.29615   0.85813   0.78044   0.00000  Uiso   1.00
C943   C     0.13540   0.83291   0.83827   0.00000  Uiso   1.00
C944   C     0.19793   0.83376   0.66173   0.00000  Uiso   1.00
C945   C     0.11498   0.83065   0.88955   0.00000  Uiso   1.00
C946   C     0.16676   0.75331   0.74991   0.00000  Uiso   1.00
C947   C     0.21836   0.83602   0.61045   0.00000  Uiso   1.00
C948   C     0.05684   0.80605   0.96454   0.00000  Uiso   1.00
C949   C     0.27650   0.86061   0.53546   0.00000  Uiso   1.00
C950   C     0.06935   0.81224   0.91682   0.00000  Uiso   1.00
C951   C     0.26398   0.85443   0.58318   0.00000  Uiso   1.00
C952   C     0.14607   0.84343   0.91083   0.00000  Uiso   1.00
C953   C     0.18727   0.82323   0.58917   0.00000  Uiso   1.00
C954   C     0.13686   0.83293   0.95705   0.00000  Uiso   1.00
C955   C     0.19648   0.83374   0.54295   0.00000  Uiso   1.00
C956   C     0.09055   0.81529   0.98450   0.00000  Uiso   1.00
C957   C     0.11240   0.81341   0.55104   0.00000  Uiso   1.00
C958   C     0.24278   0.85138   0.51550   0.00000  Uiso   1.00
C959   C     0.17278   0.83857   0.97618   0.00000  Uiso   1.00
C960   C     0.16055   0.82810   0.52382   0.00000  Uiso   1.00
C961   C     0.22093   0.85326   0.94896   0.00000  Uiso   1.00
C962   C     0.07855   0.80651   0.53139   0.00000  Uiso   1.00
C963   C     0.25478   0.86016   0.96861   0.00000  Uiso   1.00
C964   C     0.20392   0.97858   0.75772   0.00000  Uiso   1.00
C965   C     0.12941   0.68809   0.74228   0.00000  Uiso   1.00
C966   C     0.20409   0.68784   0.75753   0.00000  Uiso   1.00
H967   H     0.02167   0.79209   0.98558   0.00000  Uiso   1.00
H968   H     0.29065   0.87258   0.94686   0.00000  Uiso   1.00
H969   H     0.15496   0.80612   0.61035   0.00000  Uiso   1.00
H970   H     0.17837   0.86055   0.88965   0.00000  Uiso   1.00
H971   H     0.23281   0.96228   0.76398   0.00000  Uiso   1.00
H972   H     0.10052   0.70438   0.73602   0.00000  Uiso   1.00
H973   H     0.31166   0.87457   0.51442   0.00000  Uiso   1.00
H974   H     0.09912   0.80693   0.58792   0.00000  Uiso   1.00
H975   H     0.23421   0.85973   0.91208   0.00000  Uiso   1.00
H976   H     0.23305   0.70394   0.76367   0.00000  Uiso   1.00
H977   H     0.10028   0.96272   0.73633   0.00000  Uiso   1.00
H978   H     0.06588   0.78871   0.69528   0.00000  Uiso   1.00
H979   H     0.26745   0.87795   0.80472   0.00000  Uiso   1.00
H980   H     0.04268   0.79409   0.55314   0.00000  Uiso   1.00
N981   N     0.04759   0.83334   0.75001   0.00000  Uiso   1.00
N982   N     0.28574   0.83332   0.74999   0.00000  Uiso   1.00
O983   O     0.12846   0.89442   0.75000   0.00000  Uiso   1.00
O984   O     0.20488   0.77225   0.74999   0.00000  Uiso   1.00
O985   O     0.20490   0.89441   0.75000   0.00000  Uiso   1.00
O986   O     0.12843   0.77226   0.75000   0.00000  Uiso   1.00
O987   O     0.10661   0.83334   0.81612   0.00000  Uiso   1.00
O988   O     0.22672   0.83333   0.68388   0.00000  Uiso   1.00
O989   O     0.18305   0.83333   0.81612   0.00000  Uiso   1.00
O990   O     0.15028   0.83334   0.68388   0.00000  Uiso   1.00
Zn991  Zn    0.11562   0.83334   0.75000   0.00000  Uiso   1.00
Zn992  Zn    0.21771   0.83333   0.75000   0.00000  Uiso   1.00
Br993  Br    0.64246   0.87460   0.60870   0.00000  Uiso   1.00
Br994  Br    0.35754   0.79207   0.89130   0.00000  Uiso   1.00
Br995  Br    0.64515   0.77277   0.67525   0.00000  Uiso   1.00
Br996  Br    0.35485   0.89390   0.82475   0.00000  Uiso   1.00
C997   C     0.49990   0.91335   0.75009   0.00000  Uiso   1.00
C998   C     0.46258   0.97882   0.74247   0.00000  Uiso   1.00
C999   C     0.50015   0.70915   0.74985   0.00000  Uiso   1.00
C1000  C     0.49985   0.95752   0.75015   0.00000  Uiso   1.00
C1001  C     0.65613   0.80847   0.71939   0.00000  Uiso   1.00
C1002  C     0.34387   0.85820   0.78061   0.00000  Uiso   1.00
C1003  C     0.37052   0.80854   0.71956   0.00000  Uiso   1.00
C1004  C     0.62948   0.85813   0.78044   0.00000  Uiso   1.00
C1005  C     0.46874   0.83291   0.83827   0.00000  Uiso   1.00
C1006  C     0.53126   0.83376   0.66173   0.00000  Uiso   1.00
C1007  C     0.44831   0.83065   0.88955   0.00000  Uiso   1.00
C1008  C     0.50009   0.75331   0.74991   0.00000  Uiso   1.00
C1009  C     0.55169   0.83602   0.61045   0.00000  Uiso   1.00
C1010  C     0.39017   0.80605   0.96454   0.00000  Uiso   1.00
C1011  C     0.60983   0.86061   0.53546   0.00000  Uiso   1.00
C1012  C     0.40269   0.81224   0.91682   0.00000  Uiso   1.00
C1013  C     0.59731   0.85443   0.58318   0.00000  Uiso   1.00
C1014  C     0.47940   0.84343   0.91083   0.00000  Uiso   1.00
C1015  C     0.52060   0.82323   0.58917   0.00000  Uiso   1.00
C1016  C     0.47019   0.83293   0.95705   0.00000  Uiso   1.00
C1017  C     0.52981   0.83374   0.54295   0.00000  Uiso   1.00
C1018  C     0.42389   0.81529   0.98450   0.00000  Uiso   1.00
C1019  C     0.44574   0.81341   0.55104   0.00000  Uiso   1.00
C1020  C     0.57611   0.85138   0.51550   0.00000  Uiso   1.00
C1021  C     0.50611   0.83857   0.97618   0.00000  Uiso   1.00
C1022  C     0.49388   0.82810   0.52382   0.00000  Uiso   1.00
C1023  C     0.55426   0.85326   0.94896   0.00000  Uiso   1.00
C1024  C     0.41189   0.80651   0.53139   0.00000  Uiso   1.00
C1025  C     0.58811   0.86016   0.96861   0.00000  Uiso   1.00
C1026  C     0.53725   0.97858   0.75772   0.00000  Uiso   1.00
C1027  C     0.46275   0.68809   0.74228   0.00000  Uiso   1.00
C1028  C     0.53742   0.68784   0.75753   0.00000  Uiso   1.00
H1029  H     0.35500   0.79209   0.98558   0.00000  Uiso   1.00
H1030  H     0.62398   0.87258   0.94686   0.00000  Uiso   1.00
H1031  H     0.48830   0.80612   0.61035   0.00000  Uiso   1.00
H1032  H     0.51170   0.86055   0.88965   0.00000  Uiso   1.00
H1033  H     0.56615   0.96228   0.76398   0.00000  Uiso   1.00
H1034  H     0.43385   0.70438   0.73602   0.00000  Uiso   1.00
H1035  H     0.64500   0.87457   0.51442   0.00000  Uiso   1.00
H1036  H     0.43246   0.80693   0.58792   0.00000  Uiso   1.00
H1037  H     0.56754   0.85973   0.91208   0.00000  Uiso   1.00
H1038  H     0.56639   0.70394   0.76367   0.00000  Uiso   1.00
H1039  H     0.43361   0.96272   0.73633   0.00000  Uiso   1.00
H1040  H     0.39921   0.78871   0.69528   0.00000  Uiso   1.00
H1041  H     0.60078   0.87795   0.80472   0.00000  Uiso   1.00
H1042  H     0.37602   0.79409   0.55314   0.00000  Uiso   1.00
N1043  N     0.38093   0.83334   0.75001   0.00000  Uiso   1.00
N1044  N     0.61907   0.83332   0.74999   0.00000  Uiso   1.00
O1045  O     0.46179   0.89442   0.75000   0.00000  Uiso   1.00
O1046  O     0.53821   0.77225   0.74999   0.00000  Uiso   1.00
O1047  O     0.53823   0.89441   0.75000   0.00000  Uiso   1.00
O1048  O     0.46177   0.77226   0.75000   0.00000  Uiso   1.00
O1049  O     0.43994   0.83334   0.81612   0.00000  Uiso   1.00
O1050  O     0.56006   0.83333   0.68388   0.00000  Uiso   1.00
O1051  O     0.51639   0.83333   0.81612   0.00000  Uiso   1.00
O1052  O     0.48361   0.83334   0.68388   0.00000  Uiso   1.00
Zn1053 Zn    0.44896   0.83334   0.75000   0.00000  Uiso   1.00
Zn1054 Zn    0.55104   0.83333   0.75000   0.00000  Uiso   1.00
Br1055 Br    0.97580   0.87460   0.60870   0.00000  Uiso   1.00
Br1056 Br    0.69087   0.79207   0.89130   0.00000  Uiso   1.00
Br1057 Br    0.97848   0.77277   0.67525   0.00000  Uiso   1.00
Br1058 Br    0.68819   0.89390   0.82475   0.00000  Uiso   1.00
C1059  C     0.83324   0.91335   0.75009   0.00000  Uiso   1.00
C1060  C     0.79591   0.97882   0.74247   0.00000  Uiso   1.00
C1061  C     0.83348   0.70915   0.74985   0.00000  Uiso   1.00
C1062  C     0.83318   0.95752   0.75015   0.00000  Uiso   1.00
C1063  C     0.98946   0.80847   0.71939   0.00000  Uiso   1.00
C1064  C     0.67721   0.85820   0.78061   0.00000  Uiso   1.00
C1065  C     0.70385   0.80854   0.71956   0.00000  Uiso   1.00
C1066  C     0.96282   0.85813   0.78044   0.00000  Uiso   1.00
C1067  C     0.80207   0.83291   0.83827   0.00000  Uiso   1.00
C1068  C     0.86460   0.83376   0.66173   0.00000  Uiso   1.00
C1069  C     0.78164   0.83065   0.88955   0.00000  Uiso   1.00
C1070  C     0.83343   0.75331   0.74991   0.00000  Uiso   1.00
C1071  C     0.88502   0.83602   0.61045   0.00000  Uiso   1.00
C1072  C     0.72350   0.80605   0.96454   0.00000  Uiso   1.00
C1073  C     0.94316   0.86061   0.53546   0.00000  Uiso   1.00
C1074  C     0.73602   0.81224   0.91682   0.00000  Uiso   1.00
C1075  C     0.93065   0.85443   0.58318   0.00000  Uiso   1.00
C1076  C     0.81273   0.84343   0.91083   0.00000  Uiso   1.00
C1077  C     0.85393   0.82323   0.58917   0.00000  Uiso   1.00
C1078  C     0.80352   0.83293   0.95705   0.00000  Uiso   1.00
C1079  C     0.86314   0.83374   0.54295   0.00000  Uiso   1.00
C1080  C     0.75722   0.81529   0.98450   0.00000  Uiso   1.00
C1081  C     0.77907   0.81341   0.55104   0.00000  Uiso   1.00
C1082  C     0.90945   0.85138   0.51550   0.00000  Uiso   1.00
C1083  C     0.83945   0.83857   0.97618   0.00000  Uiso   1.00
C1084  C     0.82722   0.82810   0.52382   0.00000  Uiso   1.00
C1085  C     0.88760   0.85326   0.94896   0.00000  Uiso   1.00
C1086  C     0.74522   0.80651   0.53139   0.00000  Uiso   1.00
C1087  C     0.92145   0.86016   0.96861   0.00000  Uiso   1.00
C1088  C     0.87059   0.97858   0.75772   0.00000  Uiso   1.00
C1089  C     0.79608   0.68809   0.74228   0.00000  Uiso   1.00
C1090  C     0.87075   0.68784   0.75753   0.00000  Uiso   1.00
H1091  H     0.68834   0.79209   0.98558   0.00000  Uiso   1.00
H1092  H     0.95732   0.87258   0.94686   0.00000  Uiso   1.00
H1093  H     0.82163   0.80612   0.61035   0.00000  Uiso   1.00
H1094  H     0.84504   0.86055   0.88965   0.00000  Uiso   1.00
H1095  H     0.89948   0.96228   0.76398   0.00000  Uiso   1.00
H1096  H     0.76719   0.70438   0.73602   0.00000  Uiso   1.00
H1097  H     0.97833   0.87457   0.51442   0.00000  Uiso   1.00
H1098  H     0.76579   0.80693   0.58792   0.00000  Uiso   1.00
H1099  H     0.90088   0.85973   0.91208   0.00000  Uiso   1.00
H1100  H     0.89972   0.70394   0.76367   0.00000  Uiso   1.00
H1101  H     0.76695   0.96272   0.73633   0.00000  Uiso   1.00
H1102  H     0.73255   0.78871   0.69528   0.00000  Uiso   1.00
H1103  H     0.93412   0.87795   0.80472   0.00000  Uiso   1.00
H1104  H     0.70935   0.79409   0.55314   0.00000  Uiso   1.00
N1105  N     0.71426   0.83334   0.75001   0.00000  Uiso   1.00
N1106  N     0.95241   0.83332   0.74999   0.00000  Uiso   1.00
O1107  O     0.79512   0.89442   0.75000   0.00000  Uiso   1.00
O1108  O     0.87154   0.77225   0.74999   0.00000  Uiso   1.00
O1109  O     0.87157   0.89441   0.75000   0.00000  Uiso   1.00
O1110  O     0.79510   0.77226   0.75000   0.00000  Uiso   1.00
O1111  O     0.77328   0.83334   0.81612   0.00000  Uiso   1.00
O1112  O     0.89339   0.83333   0.68388   0.00000  Uiso   1.00
O1113  O     0.84972   0.83333   0.81612   0.00000  Uiso   1.00
O1114  O     0.81695   0.83334   0.68388   0.00000  Uiso   1.00
Zn1115 Zn    0.78229   0.83334   0.75000   0.00000  Uiso   1.00
Zn1116 Zn    0.88438   0.83333   0.75000   0.00000  Uiso   1.00
loop_
_geom_bond_atom_site_label_1
_geom_bond_atom_site_label_2
_geom_bond_distance
_geom_bond_site_symmetry_2
_ccdc_geom_bond_type
Br1    C21     1.921   .     S
Br2    C20     1.921   .     S
Br3    C9      1.910   .     S
Br4    C10     1.910   .     S
C5     C8      1.420   .     S
C5     O53     1.286   .     A
C5     O55     1.284   .     A
C6     C8      1.396   .     A
C6     H47     1.084   .     S
C6     C221    1.370   .     S
C7     C36     1.396   .     A
C7     C16     1.420   .     S
C7     C35     1.398   .     A
C8     C34     1.398   .     A
C9     N52     1.375   .     A
C9     C73     1.415   .     S
C10    N51     1.375   .     A
C10    C136    1.415   1_455 S
C11    H48     1.082   .     S
C11    N51     1.362   .     A
C11    C133    1.415   1_455 S
C12    H49     1.082   .     S
C12    N52     1.362   .     A
C12    C72     1.415   .     S
C13    O59     1.298   .     A
C13    C15     1.465   .     S
C13    O57     1.294   .     A
C14    O60     1.298   .     A
C14    C17     1.465   .     S
C14    O58     1.294   .     A
C15    C20     1.411   .     A
C15    C22     1.394   .     A
C16    O56     1.284   .     A
C16    O54     1.286   .     A
C17    C23     1.394   .     A
C17    C21     1.411   .     A
C18    C26     1.403   .     A
C18    H37     1.084   .     S
C18    C20     1.395   .     A
C19    C21     1.395   .     A
C19    H43     1.084   .     S
C19    C28     1.403   .     A
C22    H40     1.075   .     S
C22    C24     1.396   .     A
C23    H39     1.075   .     S
C23    C25     1.396   .     A
C24    C29     1.424   .     A
C24    C26     1.416   .     A
C25    C30     1.424   .     A
C25    C28     1.416   .     A
C26    C590    1.388   .     S
C27    C30     1.420   .     A
C27    C32     1.385   .     A
C27    H44     1.076   .     S
C28    C591    1.388   1_554 S
C29    C31     1.420   .     A
C29    C588    1.421   .     S
C30    C587    1.421   1_554 S
C31    C33     1.385   .     A
C31    H45     1.076   .     S
C32    H50     1.085   .     S
C32    C584    1.388   1_554 S
C33    H38     1.085   .     S
C33    C586    1.388   .     S
C34    H41     1.084   .     S
C34    C222    1.370   .     S
C35    H42     1.084   .     S
C35    C378    1.370   1_545 S
C36    H46     1.084   .     S
C36    C406    1.370   1_545 S
N51    Zn61    2.014   .     S
N52    Zn62    2.014   .     S
O53    Zn61    2.002   .     S
O54    Zn62    2.002   .     S
O55    Zn62    1.998   .     S
O56    Zn61    1.998   .     S
O57    Zn61    1.966   .     S
O58    Zn62    1.966   .     S
O59    Zn62    1.895   .     S
O60    Zn61    1.895   .     S
Br63   C83     1.921   .     S
Br64   C82     1.921   .     S
Br65   C71     1.910   .     S
Br66   C72     1.910   .     S
C67    C70     1.420   .     S
C67    O115    1.286   .     A
C67    O117    1.284   .     A
C68    C70     1.396   .     A
C68    H109    1.084   .     S
C68    C283    1.370   .     S
C69    C98     1.396   .     A
C69    C78     1.420   .     S
C69    C97     1.398   .     A
C70    C96     1.398   .     A
C71    N114    1.375   .     A
C71    C135    1.415   .     S
C72    N113    1.375   .     A
C73    H110    1.082   .     S
C73    N113    1.362   .     A
C74    H111    1.082   .     S
C74    N114    1.362   .     A
C74    C134    1.415   .     S
C75    O121    1.298   .     A
C75    C77     1.465   .     S
C75    O119    1.294   .     A
C76    O122    1.298   .     A
C76    C79     1.465   .     S
C76    O120    1.294   .     A
C77    C82     1.411   .     A
C77    C84     1.394   .     A
C78    O118    1.284   .     A
C78    O116    1.286   .     A
C79    C85     1.394   .     A
C79    C83     1.411   .     A
C80    C88     1.403   .     A
C80    H99     1.084   .     S
C80    C82     1.395   .     A
C81    C83     1.395   .     A
C81    H105    1.084   .     S
C81    C90     1.403   .     A
C84    H102    1.075   .     S
C84    C86     1.396   .     A
C85    H101    1.075   .     S
C85    C87     1.396   .     A
C86    C91     1.424   .     A
C86    C88     1.416   .     A
C87    C92     1.424   .     A
C87    C90     1.416   .     A
C88    C652    1.388   .     S
C89    C92     1.420   .     A
C89    C94     1.385   .     A
C89    H106    1.076   .     S
C90    C653    1.388   1_554 S
C91    C93     1.420   .     A
C91    C650    1.421   .     S
C92    C649    1.421   1_554 S
C93    C95     1.385   .     A
C93    H107    1.076   .     S
C94    H112    1.085   .     S
C94    C646    1.388   1_554 S
C95    H100    1.085   .     S
C95    C648    1.388   .     S
C96    H103    1.084   .     S
C96    C284    1.370   .     S
C97    H104    1.084   .     S
C97    C440    1.370   1_545 S
C98    H108    1.084   .     S
C98    C468    1.370   1_545 S
N113   Zn123   2.014   .     S
N114   Zn124   2.014   .     S
O115   Zn123   2.002   .     S
O116   Zn124   2.002   .     S
O117   Zn124   1.998   .     S
O118   Zn123   1.998   .     S
O119   Zn123   1.966   .     S
O120   Zn124   1.966   .     S
O121   Zn124   1.895   .     S
O122   Zn123   1.895   .     S
Br125  C145    1.921   .     S
Br126  C144    1.921   .     S
Br127  C133    1.910   .     S
Br128  C134    1.910   .     S
C129   C132    1.420   .     S
C129   O177    1.286   .     A
C129   O179    1.284   .     A
C130   C132    1.396   .     A
C130   H171    1.084   .     S
C130   C345    1.370   .     S
C131   C160    1.396   .     A
C131   C140    1.420   .     S
C131   C159    1.398   .     A
C132   C158    1.398   .     A
C133   N176    1.375   .     A
C133   C11     1.415   1_655 S
C134   N175    1.375   .     A
C135   H172    1.082   .     S
C135   N175    1.362   .     A
C136   H173    1.082   .     S
C136   N176    1.362   .     A
C136   C10     1.415   1_655 S
C137   O183    1.298   .     A
C137   C139    1.465   .     S
C137   O181    1.294   .     A
C138   O184    1.298   .     A
C138   C141    1.465   .     S
C138   O182    1.294   .     A
C139   C144    1.411   .     A
C139   C146    1.394   .     A
C140   O180    1.284   .     A
C140   O178    1.286   .     A
C141   C147    1.394   .     A
C141   C145    1.411   .     A
C142   C150    1.403   .     A
C142   H161    1.084   .     S
C142   C144    1.395   .     A
C143   C145    1.395   .     A
C143   H167    1.084   .     S
C143   C152    1.403   .     A
C146   H164    1.075   .     S
C146   C148    1.396   .     A
C147   H163    1.075   .     S
C147   C149    1.396   .     A
C148   C153    1.424   .     A
C148   C150    1.416   .     A
C149   C154    1.424   .     A
C149   C152    1.416   .     A
C150   C714    1.388   .     S
C151   C154    1.420   .     A
C151   C156    1.385   .     A
C151   H168    1.076   .     S
C152   C715    1.388   1_554 S
C153   C155    1.420   .     A
C153   C712    1.421   .     S
C154   C711    1.421   1_554 S
C155   C157    1.385   .     A
C155   H169    1.076   .     S
C156   H174    1.085   .     S
C156   C708    1.388   1_554 S
C157   H162    1.085   .     S
C157   C710    1.388   .     S
C158   H165    1.084   .     S
C158   C346    1.370   .     S
C159   H166    1.084   .     S
C159   C502    1.370   1_545 S
C160   H170    1.084   .     S
C160   C530    1.370   1_545 S
N175   Zn185   2.014   .     S
N176   Zn186   2.014   .     S
O177   Zn185   2.002   .     S
O178   Zn186   2.002   .     S
O179   Zn186   1.998   .     S
O180   Zn185   1.998   .     S
O181   Zn185   1.966   .     S
O182   Zn186   1.966   .     S
O183   Zn186   1.895   .     S
O184   Zn185   1.895   .     S
Br187  C207    1.921   .     S
Br188  C206    1.921   .     S
Br189  C195    1.910   .     S
Br190  C196    1.910   .     S
C191   C194    1.420   .     S
C191   O239    1.286   .     A
C191   O241    1.284   .     A
C192   C194    1.396   .     A
C192   H233    1.084   .     S
C192   C407    1.370   .     S
C193   C222    1.396   .     A
C193   C202    1.420   .     S
C193   C221    1.398   .     A
C194   C220    1.398   .     A
C195   N238    1.375   .     A
C195   C259    1.415   .     S
C196   N237    1.375   .     A
C196   C322    1.415   1_455 S
C197   H234    1.082   .     S
C197   N237    1.362   .     A
C197   C319    1.415   1_455 S
C198   H235    1.082   .     S
C198   N238    1.362   .     A
C198   C258    1.415   .     S
C199   O245    1.298   .     A
C199   C201    1.465   .     S
C199   O243    1.294   .     A
C200   O246    1.298   .     A
C200   C203    1.465   .     S
C200   O244    1.294   .     A
C201   C206    1.411   .     A
C201   C208    1.394   .     A
C202   O242    1.284   .     A
C202   O240    1.286   .     A
C203   C209    1.394   .     A
C203   C207    1.411   .     A
C204   C212    1.403   .     A
C204   H223    1.084   .     S
C204   C206    1.395   .     A
C205   C207    1.395   .     A
C205   H229    1.084   .     S
C205   C214    1.403   .     A
C208   H226    1.075   .     S
C208   C210    1.396   .     A
C209   H225    1.075   .     S
C209   C211    1.396   .     A
C210   C215    1.424   .     A
C210   C212    1.416   .     A
C211   C216    1.424   .     A
C211   C214    1.416   .     A
C212   C776    1.388   .     S
C213   C216    1.420   .     A
C213   C218    1.385   .     A
C213   H230    1.076   .     S
C214   C777    1.388   1_554 S
C215   C217    1.420   .     A
C215   C774    1.421   .     S
C216   C773    1.421   1_554 S
C217   C219    1.385   .     A
C217   H231    1.076   .     S
C218   H236    1.085   .     S
C218   C770    1.388   1_554 S
C219   H224    1.085   .     S
C219   C772    1.388   .     S
C220   H227    1.084   .     S
C220   C408    1.370   .     S
C221   H228    1.084   .     S
C222   H232    1.084   .     S
N237   Zn247   2.014   .     S
N238   Zn248   2.014   .     S
O239   Zn247   2.002   .     S
O240   Zn248   2.002   .     S
O241   Zn248   1.998   .     S
O242   Zn247   1.998   .     S
O243   Zn247   1.966   .     S
O244   Zn248   1.966   .     S
O245   Zn248   1.895   .     S
O246   Zn247   1.895   .     S
Br249  C269    1.921   .     S
Br250  C268    1.921   .     S
Br251  C257    1.910   .     S
Br252  C258    1.910   .     S
C253   C256    1.420   .     S
C253   O301    1.286   .     A
C253   O303    1.284   .     A
C254   C256    1.396   .     A
C254   H295    1.084   .     S
C254   C469    1.370   .     S
C255   C284    1.396   .     A
C255   C264    1.420   .     S
C255   C283    1.398   .     A
C256   C282    1.398   .     A
C257   N300    1.375   .     A
C257   C321    1.415   .     S
C258   N299    1.375   .     A
C259   H296    1.082   .     S
C259   N299    1.362   .     A
C260   H297    1.082   .     S
C260   N300    1.362   .     A
C260   C320    1.415   .     S
C261   O307    1.298   .     A
C261   C263    1.465   .     S
C261   O305    1.294   .     A
C262   O308    1.298   .     A
C262   C265    1.465   .     S
C262   O306    1.294   .     A
C263   C268    1.411   .     A
C263   C270    1.394   .     A
C264   O304    1.284   .     A
C264   O302    1.286   .     A
C265   C271    1.394   .     A
C265   C269    1.411   .     A
C266   C274    1.403   .     A
C266   H285    1.084   .     S
C266   C268    1.395   .     A
C267   C269    1.395   .     A
C267   H291    1.084   .     S
C267   C276    1.403   .     A
C270   H288    1.075   .     S
C270   C272    1.396   .     A
C271   H287    1.075   .     S
C271   C273    1.396   .     A
C272   C277    1.424   .     A
C272   C274    1.416   .     A
C273   C278    1.424   .     A
C273   C276    1.416   .     A
C274   C838    1.388   .     S
C275   C278    1.420   .     A
C275   C280    1.385   .     A
C275   H292    1.076   .     S
C276   C839    1.388   1_554 S
C277   C279    1.420   .     A
C277   C836    1.421   .     S
C278   C835    1.421   1_554 S
C279   C281    1.385   .     A
C279   H293    1.076   .     S
C280   H298    1.085   .     S
C280   C832    1.388   1_554 S
C281   H286    1.085   .     S
C281   C834    1.388   .     S
C282   H289    1.084   .     S
C282   C470    1.370   .     S
C283   H290    1.084   .     S
C284   H294    1.084   .     S
N299   Zn309   2.014   .     S
N300   Zn310   2.014   .     S
O301   Zn309   2.002   .     S
O302   Zn310   2.002   .     S
O303   Zn310   1.998   .     S
O304   Zn309   1.998   .     S
O305   Zn309   1.966   .     S
O306   Zn310   1.966   .     S
O307   Zn310   1.895   .     S
O308   Zn309   1.895   .     S
Br311  C331    1.921   .     S
Br312  C330    1.921   .     S
Br313  C319    1.910   .     S
Br314  C320    1.910   .     S
C315   C318    1.420   .     S
C315   O363    1.286   .     A
C315   O365    1.284   .     A
C316   C318    1.396   .     A
C316   H357    1.084   .     S
C316   C531    1.370   .     S
C317   C346    1.396   .     A
C317   C326    1.420   .     S
C317   C345    1.398   .     A
C318   C344    1.398   .     A
C319   N362    1.375   .     A
C319   C197    1.415   1_655 S
C320   N361    1.375   .     A
C321   H358    1.082   .     S
C321   N361    1.362   .     A
C322   H359    1.082   .     S
C322   N362    1.362   .     A
C322   C196    1.415   1_655 S
C323   O369    1.298   .     A
C323   C325    1.465   .     S
C323   O367    1.294   .     A
C324   O370    1.298   .     A
C324   C327    1.465   .     S
C324   O368    1.294   .     A
C325   C330    1.411   .     A
C325   C332    1.394   .     A
C326   O366    1.284   .     A
C326   O364    1.286   .     A
C327   C333    1.394   .     A
C327   C331    1.411   .     A
C328   C336    1.403   .     A
C328   H347    1.084   .     S
C328   C330    1.395   .     A
C329   C331    1.395   .     A
C329   H353    1.084   .     S
C329   C338    1.403   .     A
C332   H350    1.075   .     S
C332   C334    1.396   .     A
C333   H349    1.075   .     S
C333   C335    1.396   .     A
C334   C339    1.424   .     A
C334   C336    1.416   .     A
C335   C340    1.424   .     A
C335   C338    1.416   .     A
C336   C900    1.388   .     S
C337   C340    1.420   .     A
C337   C342    1.385   .     A
C337   H354    1.076   .     S
C338   C901    1.388   1_554 S
C339   C341    1.420   .     A
C339   C898    1.421   .     S
C340   C897    1.421   1_554 S
C341   C343    1.385   .     A
C341   H355    1.076   .     S
C342   H360    1.085   .     S
C342   C894    1.388   1_554 S
C343   H348    1.085   .     S
C343   C896    1.388   .     S
C344   H351    1.084   .     S
C344   C532    1.370   .     S
C345   H352    1.084   .     S
C346   H356    1.084   .     S
N361   Zn371   2.014   .     S
N362   Zn372   2.014   .     S
O363   Zn371   2.002   .     S
O364   Zn372   2.002   .     S
O365   Zn372   1.998   .     S
O366   Zn371   1.998   .     S
O367   Zn371   1.966   .     S
O368   Zn372   1.966   .     S
O369   Zn372   1.895   .     S
O370   Zn371   1.895   .     S
Br373  C393    1.921   .     S
Br374  C392    1.921   .     S
Br375  C381    1.910   .     S
Br376  C382    1.910   .     S
C377   C380    1.420   .     S
C377   O425    1.286   .     A
C377   O427    1.284   .     A
C378   C380    1.396   .     A
C378   H419    1.084   .     S
C378   C35     1.370   1_565 S
C379   C408    1.396   .     A
C379   C388    1.420   .     S
C379   C407    1.398   .     A
C380   C406    1.398   .     A
C381   N424    1.375   .     A
C381   C445    1.415   .     S
C382   N423    1.375   .     A
C382   C508    1.415   1_455 S
C383   H420    1.082   .     S
C383   N423    1.362   .     A
C383   C505    1.415   1_455 S
C384   H421    1.082   .     S
C384   N424    1.362   .     A
C384   C444    1.415   .     S
C385   O431    1.298   .     A
C385   C387    1.465   .     S
C385   O429    1.294   .     A
C386   O432    1.298   .     A
C386   C389    1.465   .     S
C386   O430    1.294   .     A
C387   C392    1.411   .     A
C387   C394    1.394   .     A
C388   O428    1.284   .     A
C388   O426    1.286   .     A
C389   C395    1.394   .     A
C389   C393    1.411   .     A
C390   C398    1.403   .     A
C390   H409    1.084   .     S
C390   C392    1.395   .     A
C391   C393    1.395   .     A
C391   H415    1.084   .     S
C391   C400    1.403   .     A
C394   H412    1.075   .     S
C394   C396    1.396   .     A
C395   H411    1.075   .     S
C395   C397    1.396   .     A
C396   C401    1.424   .     A
C396   C398    1.416   .     A
C397   C402    1.424   .     A
C397   C400    1.416   .     A
C398   C962    1.388   .     S
C399   C402    1.420   .     A
C399   C404    1.385   .     A
C399   H416    1.076   .     S
C400   C963    1.388   1_554 S
C401   C403    1.420   .     A
C401   C960    1.421   .     S
C402   C959    1.421   1_554 S
C403   C405    1.385   .     A
C403   H417    1.076   .     S
C404   H422    1.085   .     S
C404   C956    1.388   1_554 S
C405   H410    1.085   .     S
C405   C958    1.388   .     S
C406   H413    1.084   .     S
C406   C36     1.370   1_565 S
C407   H414    1.084   .     S
C408   H418    1.084   .     S
N423   Zn433   2.014   .     S
N424   Zn434   2.014   .     S
O425   Zn433   2.002   .     S
O426   Zn434   2.002   .     S
O427   Zn434   1.998   .     S
O428   Zn433   1.998   .     S
O429   Zn433   1.966   .     S
O430   Zn434   1.966   .     S
O431   Zn434   1.895   .     S
O432   Zn433   1.895   .     S
Br435  C455    1.921   .     S
Br436  C454    1.921   .     S
Br437  C443    1.910   .     S
Br438  C444    1.910   .     S
C439   C442    1.420   .     S
C439   O487    1.286   .     A
C439   O489    1.284   .     A
C440   C442    1.396   .     A
C440   H481    1.084   .     S
C440   C97     1.370   1_565 S
C441   C470    1.396   .     A
C441   C450    1.420   .     S
C441   C469    1.398   .     A
C442   C468    1.398   .     A
C443   N486    1.375   .     A
C443   C507    1.415   .     S
C444   N485    1.375   .     A
C445   H482    1.082   .     S
C445   N485    1.362   .     A
C446   H483    1.082   .     S
C446   N486    1.362   .     A
C446   C506    1.415   .     S
C447   O493    1.298   .     A
C447   C449    1.465   .     S
C447   O491    1.294   .     A
C448   O494    1.298   .     A
C448   C451    1.465   .     S
C448   O492    1.294   .     A
C449   C454    1.411   .     A
C449   C456    1.394   .     A
C450   O490    1.284   .     A
C450   O488    1.286   .     A
C451   C457    1.394   .     A
C451   C455    1.411   .     A
C452   C460    1.403   .     A
C452   H471    1.084   .     S
C452   C454    1.395   .     A
C453   C455    1.395   .     A
C453   H477    1.084   .     S
C453   C462    1.403   .     A
C456   H474    1.075   .     S
C456   C458    1.396   .     A
C457   H473    1.075   .     S
C457   C459    1.396   .     A
C458   C463    1.424   .     A
C458   C460    1.416   .     A
C459   C464    1.424   .     A
C459   C462    1.416   .     A
C460   C1024   1.388   .     S
C461   C464    1.420   .     A
C461   C466    1.385   .     A
C461   H478    1.076   .     S
C462   C1025   1.388   1_554 S
C463   C465    1.420   .     A
C463   C1022   1.421   .     S
C464   C1021   1.421   1_554 S
C465   C467    1.385   .     A
C465   H479    1.076   .     S
C466   H484    1.085   .     S
C466   C1018   1.388   1_554 S
C467   H472    1.085   .     S
C467   C1020   1.388   .     S
C468   H475    1.084   .     S
C468   C98     1.370   1_565 S
C469   H476    1.084   .     S
C470   H480    1.084   .     S
N485   Zn495   2.014   .     S
N486   Zn496   2.014   .     S
O487   Zn495   2.002   .     S
O488   Zn496   2.002   .     S
O489   Zn496   1.998   .     S
O490   Zn495   1.998   .     S
O491   Zn495   1.966   .     S
O492   Zn496   1.966   .     S
O493   Zn496   1.895   .     S
O494   Zn495   1.895   .     S
Br497  C517    1.921   .     S
Br498  C516    1.921   .     S
Br499  C505    1.910   .     S
Br500  C506    1.910   .     S
C501   C504    1.420   .     S
C501   O549    1.286   .     A
C501   O551    1.284   .     A
C502   C504    1.396   .     A
C502   H543    1.084   .     S
C502   C159    1.370   1_565 S
C503   C532    1.396   .     A
C503   C512    1.420   .     S
C503   C531    1.398   .     A
C504   C530    1.398   .     A
C505   N548    1.375   .     A
C505   C383    1.415   1_655 S
C506   N547    1.375   .     A
C507   H544    1.082   .     S
C507   N547    1.362   .     A
C508   H545    1.082   .     S
C508   N548    1.362   .     A
C508   C382    1.415   1_655 S
C509   O555    1.298   .     A
C509   C511    1.465   .     S
C509   O553    1.294   .     A
C510   O556    1.298   .     A
C510   C513    1.465   .     S
C510   O554    1.294   .     A
C511   C516    1.411   .     A
C511   C518    1.394   .     A
C512   O552    1.284   .     A
C512   O550    1.286   .     A
C513   C519    1.394   .     A
C513   C517    1.411   .     A
C514   C522    1.403   .     A
C514   H533    1.084   .     S
C514   C516    1.395   .     A
C515   C517    1.395   .     A
C515   H539    1.084   .     S
C515   C524    1.403   .     A
C518   H536    1.075   .     S
C518   C520    1.396   .     A
C519   H535    1.075   .     S
C519   C521    1.396   .     A
C520   C525    1.424   .     A
C520   C522    1.416   .     A
C521   C526    1.424   .     A
C521   C524    1.416   .     A
C522   C1086   1.388   .     S
C523   C526    1.420   .     A
C523   C528    1.385   .     A
C523   H540    1.076   .     S
C524   C1087   1.388   1_554 S
C525   C527    1.420   .     A
C525   C1084   1.421   .     S
C526   C1083   1.421   1_554 S
C527   C529    1.385   .     A
C527   H541    1.076   .     S
C528   H546    1.085   .     S
C528   C1080   1.388   1_554 S
C529   H534    1.085   .     S
C529   C1082   1.388   .     S
C530   H537    1.084   .     S
C530   C160    1.370   1_565 S
C531   H538    1.084   .     S
C532   H542    1.084   .     S
N547   Zn557   2.014   .     S
N548   Zn558   2.014   .     S
O549   Zn557   2.002   .     S
O550   Zn558   2.002   .     S
O551   Zn558   1.998   .     S
O552   Zn557   1.998   .     S
O553   Zn557   1.966   .     S
O554   Zn558   1.966   .     S
O555   Zn558   1.895   .     S
O556   Zn557   1.895   .     S
Br559  C579    1.921   .     S
Br560  C578    1.921   .     S
Br561  C567    1.910   .     S
Br562  C568    1.910   .     S
C563   C566    1.420   .     S
C563   O611    1.286   .     A
C563   O613    1.284   .     A
C564   C566    1.396   .     A
C564   H605    1.084   .     S
C564   C779    1.370   .     S
C565   C594    1.396   .     A
C565   C574    1.420   .     S
C565   C593    1.398   .     A
C566   C592    1.398   .     A
C567   N610    1.375   .     A
C567   C631    1.415   .     S
C568   N609    1.375   .     A
C568   C694    1.415   1_455 S
C569   H606    1.082   .     S
C569   N609    1.362   .     A
C569   C691    1.415   1_455 S
C570   H607    1.082   .     S
C570   N610    1.362   .     A
C570   C630    1.415   .     S
C571   O617    1.298   .     A
C571   C573    1.465   .     S
C571   O615    1.294   .     A
C572   O618    1.298   .     A
C572   C575    1.465   .     S
C572   O616    1.294   .     A
C573   C578    1.411   .     A
C573   C580    1.394   .     A
C574   O614    1.284   .     A
C574   O612    1.286   .     A
C575   C581    1.394   .     A
C575   C579    1.411   .     A
C576   C584    1.403   .     A
C576   H595    1.084   .     S
C576   C578    1.395   .     A
C577   C579    1.395   .     A
C577   H601    1.084   .     S
C577   C586    1.403   .     A
C580   H598    1.075   .     S
C580   C582    1.396   .     A
C581   H597    1.075   .     S
C581   C583    1.396   .     A
C582   C587    1.424   .     A
C582   C584    1.416   .     A
C583   C588    1.424   .     A
C583   C586    1.416   .     A
C584   C32     1.388   1_556 S
C585   C588    1.420   .     A
C585   C590    1.385   .     A
C585   H602    1.076   .     S
C587   C589    1.420   .     A
C587   C30     1.421   1_556 S
C589   C591    1.385   .     A
C589   H603    1.076   .     S
C590   H608    1.085   .     S
C591   H596    1.085   .     S
C591   C28     1.388   1_556 S
C592   H599    1.084   .     S
C592   C780    1.370   .     S
C593   H600    1.084   .     S
C593   C936    1.370   1_545 S
C594   H604    1.084   .     S
C594   C964    1.370   1_545 S
N609   Zn619   2.014   .     S
N610   Zn620   2.014   .     S
O611   Zn619   2.002   .     S
O612   Zn620   2.002   .     S
O613   Zn620   1.998   .     S
O614   Zn619   1.998   .     S
O615   Zn619   1.966   .     S
O616   Zn620   1.966   .     S
O617   Zn620   1.895   .     S
O618   Zn619   1.895   .     S
Br621  C641    1.921   .     S
Br622  C640    1.921   .     S
Br623  C629    1.910   .     S
Br624  C630    1.910   .     S
C625   C628    1.420   .     S
C625   O673    1.286   .     A
C625   O675    1.284   .     A
C626   C628    1.396   .     A
C626   H667    1.084   .     S
C626   C841    1.370   .     S
C627   C656    1.396   .     A
C627   C636    1.420   .     S
C627   C655    1.398   .     A
C628   C654    1.398   .     A
C629   N672    1.375   .     A
C629   C693    1.415   .     S
C630   N671    1.375   .     A
C631   H668    1.082   .     S
C631   N671    1.362   .     A
C632   H669    1.082   .     S
C632   N672    1.362   .     A
C632   C692    1.415   .     S
C633   O679    1.298   .     A
C633   C635    1.465   .     S
C633   O677    1.294   .     A
C634   O680    1.298   .     A
C634   C637    1.465   .     S
C634   O678    1.294   .     A
C635   C640    1.411   .     A
C635   C642    1.394   .     A
C636   O676    1.284   .     A
C636   O674    1.286   .     A
C637   C643    1.394   .     A
C637   C641    1.411   .     A
C638   C646    1.403   .     A
C638   H657    1.084   .     S
C638   C640    1.395   .     A
C639   C641    1.395   .     A
C639   H663    1.084   .     S
C639   C648    1.403   .     A
C642   H660    1.075   .     S
C642   C644    1.396   .     A
C643   H659    1.075   .     S
C643   C645    1.396   .     A
C644   C649    1.424   .     A
C644   C646    1.416   .     A
C645   C650    1.424   .     A
C645   C648    1.416   .     A
C646   C94     1.388   1_556 S
C647   C650    1.420   .     A
C647   C652    1.385   .     A
C647   H664    1.076   .     S
C649   C651    1.420   .     A
C649   C92     1.421   1_556 S
C651   C653    1.385   .     A
C651   H665    1.076   .     S
C652   H670    1.085   .     S
C653   H658    1.085   .     S
C653   C90     1.388   1_556 S
C654   H661    1.084   .     S
C654   C842    1.370   .     S
C655   H662    1.084   .     S
C655   C998    1.370   1_545 S
C656   H666    1.084   .     S
C656   C1026   1.370   1_545 S
N671   Zn681   2.014   .     S
N672   Zn682   2.014   .     S
O673   Zn681   2.002   .     S
O674   Zn682   2.002   .     S
O675   Zn682   1.998   .     S
O676   Zn681   1.998   .     S
O677   Zn681   1.966   .     S
O678   Zn682   1.966   .     S
O679   Zn682   1.895   .     S
O680   Zn681   1.895   .     S
Br683  C703    1.921   .     S
Br684  C702    1.921   .     S
Br685  C691    1.910   .     S
Br686  C692    1.910   .     S
C687   C690    1.420   .     S
C687   O735    1.286   .     A
C687   O737    1.284   .     A
C688   C690    1.396   .     A
C688   H729    1.084   .     S
C688   C903    1.370   .     S
C689   C718    1.396   .     A
C689   C698    1.420   .     S
C689   C717    1.398   .     A
C690   C716    1.398   .     A
C691   N734    1.375   .     A
C691   C569    1.415   1_655 S
C692   N733    1.375   .     A
C693   H730    1.082   .     S
C693   N733    1.362   .     A
C694   H731    1.082   .     S
C694   N734    1.362   .     A
C694   C568    1.415   1_655 S
C695   O741    1.298   .     A
C695   C697    1.465   .     S
C695   O739    1.294   .     A
C696   O742    1.298   .     A
C696   C699    1.465   .     S
C696   O740    1.294   .     A
C697   C702    1.411   .     A
C697   C704    1.394   .     A
C698   O738    1.284   .     A
C698   O736    1.286   .     A
C699   C705    1.394   .     A
C699   C703    1.411   .     A
C700   C708    1.403   .     A
C700   H719    1.084   .     S
C700   C702    1.395   .     A
C701   C703    1.395   .     A
C701   H725    1.084   .     S
C701   C710    1.403   .     A
C704   H722    1.075   .     S
C704   C706    1.396   .     A
C705   H721    1.075   .     S
C705   C707    1.396   .     A
C706   C711    1.424   .     A
C706   C708    1.416   .     A
C707   C712    1.424   .     A
C707   C710    1.416   .     A
C708   C156    1.388   1_556 S
C709   C712    1.420   .     A
C709   C714    1.385   .     A
C709   H726    1.076   .     S
C711   C713    1.420   .     A
C711   C154    1.421   1_556 S
C713   C715    1.385   .     A
C713   H727    1.076   .     S
C714   H732    1.085   .     S
C715   H720    1.085   .     S
C715   C152    1.388   1_556 S
C716   H723    1.084   .     S
C716   C904    1.370   .     S
C717   H724    1.084   .     S
C717   C1060   1.370   1_545 S
C718   H728    1.084   .     S
C718   C1088   1.370   1_545 S
N733   Zn743   2.014   .     S
N734   Zn744   2.014   .     S
O735   Zn743   2.002   .     S
O736   Zn744   2.002   .     S
O737   Zn744   1.998   .     S
O738   Zn743   1.998   .     S
O739   Zn743   1.966   .     S
O740   Zn744   1.966   .     S
O741   Zn744   1.895   .     S
O742   Zn743   1.895   .     S
Br745  C765    1.921   .     S
Br746  C764    1.921   .     S
Br747  C753    1.910   .     S
Br748  C754    1.910   .     S
C749   C752    1.420   .     S
C749   O797    1.286   .     A
C749   O799    1.284   .     A
C750   C752    1.396   .     A
C750   H791    1.084   .     S
C750   C965    1.370   .     S
C751   C780    1.396   .     A
C751   C760    1.420   .     S
C751   C779    1.398   .     A
C752   C778    1.398   .     A
C753   N796    1.375   .     A
C753   C817    1.415   .     S
C754   N795    1.375   .     A
C754   C880    1.415   1_455 S
C755   H792    1.082   .     S
C755   N795    1.362   .     A
C755   C877    1.415   1_455 S
C756   H793    1.082   .     S
C756   N796    1.362   .     A
C756   C816    1.415   .     S
C757   O803    1.298   .     A
C757   C759    1.465   .     S
C757   O801    1.294   .     A
C758   O804    1.298   .     A
C758   C761    1.465   .     S
C758   O802    1.294   .     A
C759   C764    1.411   .     A
C759   C766    1.394   .     A
C760   O800    1.284   .     A
C760   O798    1.286   .     A
C761   C767    1.394   .     A
C761   C765    1.411   .     A
C762   C770    1.403   .     A
C762   H781    1.084   .     S
C762   C764    1.395   .     A
C763   C765    1.395   .     A
C763   H787    1.084   .     S
C763   C772    1.403   .     A
C766   H784    1.075   .     S
C766   C768    1.396   .     A
C767   H783    1.075   .     S
C767   C769    1.396   .     A
C768   C773    1.424   .     A
C768   C770    1.416   .     A
C769   C774    1.424   .     A
C769   C772    1.416   .     A
C770   C218    1.388   1_556 S
C771   C774    1.420   .     A
C771   C776    1.385   .     A
C771   H788    1.076   .     S
C773   C775    1.420   .     A
C773   C216    1.421   1_556 S
C775   C777    1.385   .     A
C775   H789    1.076   .     S
C776   H794    1.085   .     S
C777   H782    1.085   .     S
C777   C214    1.388   1_556 S
C778   H785    1.084   .     S
C778   C966    1.370   .     S
C779   H786    1.084   .     S
C780   H790    1.084   .     S
N795   Zn805   2.014   .     S
N796   Zn806   2.014   .     S
O797   Zn805   2.002   .     S
O798   Zn806   2.002   .     S
O799   Zn806   1.998   .     S
O800   Zn805   1.998   .     S
O801   Zn805   1.966   .     S
O802   Zn806   1.966   .     S
O803   Zn806   1.895   .     S
O804   Zn805   1.895   .     S
Br807  C827    1.921   .     S
Br808  C826    1.921   .     S
Br809  C815    1.910   .     S
Br810  C816    1.910   .     S
C811   C814    1.420   .     S
C811   O859    1.286   .     A
C811   O861    1.284   .     A
C812   C814    1.396   .     A
C812   H853    1.084   .     S
C812   C1027   1.370   .     S
C813   C842    1.396   .     A
C813   C822    1.420   .     S
C813   C841    1.398   .     A
C814   C840    1.398   .     A
C815   N858    1.375   .     A
C815   C879    1.415   .     S
C816   N857    1.375   .     A
C817   H854    1.082   .     S
C817   N857    1.362   .     A
C818   H855    1.082   .     S
C818   N858    1.362   .     A
C818   C878    1.415   .     S
C819   O865    1.298   .     A
C819   C821    1.465   .     S
C819   O863    1.294   .     A
C820   O866    1.298   .     A
C820   C823    1.465   .     S
C820   O864    1.294   .     A
C821   C826    1.411   .     A
C821   C828    1.394   .     A
C822   O862    1.284   .     A
C822   O860    1.286   .     A
C823   C829    1.394   .     A
C823   C827    1.411   .     A
C824   C832    1.403   .     A
C824   H843    1.084   .     S
C824   C826    1.395   .     A
C825   C827    1.395   .     A
C825   H849    1.084   .     S
C825   C834    1.403   .     A
C828   H846    1.075   .     S
C828   C830    1.396   .     A
C829   H845    1.075   .     S
C829   C831    1.396   .     A
C830   C835    1.424   .     A
C830   C832    1.416   .     A
C831   C836    1.424   .     A
C831   C834    1.416   .     A
C832   C280    1.388   1_556 S
C833   C836    1.420   .     A
C833   C838    1.385   .     A
C833   H850    1.076   .     S
C835   C837    1.420   .     A
C835   C278    1.421   1_556 S
C837   C839    1.385   .     A
C837   H851    1.076   .     S
C838   H856    1.085   .     S
C839   H844    1.085   .     S
C839   C276    1.388   1_556 S
C840   H847    1.084   .     S
C840   C1028   1.370   .     S
C841   H848    1.084   .     S
C842   H852    1.084   .     S
N857   Zn867   2.014   .     S
N858   Zn868   2.014   .     S
O859   Zn867   2.002   .     S
O860   Zn868   2.002   .     S
O861   Zn868   1.998   .     S
O862   Zn867   1.998   .     S
O863   Zn867   1.966   .     S
O864   Zn868   1.966   .     S
O865   Zn868   1.895   .     S
O866   Zn867   1.895   .     S
Br869  C889    1.921   .     S
Br870  C888    1.921   .     S
Br871  C877    1.910   .     S
Br872  C878    1.910   .     S
C873   C876    1.420   .     S
C873   O921    1.286   .     A
C873   O923    1.284   .     A
C874   C876    1.396   .     A
C874   H915    1.084   .     S
C874   C1089   1.370   .     S
C875   C904    1.396   .     A
C875   C884    1.420   .     S
C875   C903    1.398   .     A
C876   C902    1.398   .     A
C877   N920    1.375   .     A
C877   C755    1.415   1_655 S
C878   N919    1.375   .     A
C879   H916    1.082   .     S
C879   N919    1.362   .     A
C880   H917    1.082   .     S
C880   N920    1.362   .     A
C880   C754    1.415   1_655 S
C881   O927    1.298   .     A
C881   C883    1.465   .     S
C881   O925    1.294   .     A
C882   O928    1.298   .     A
C882   C885    1.465   .     S
C882   O926    1.294   .     A
C883   C888    1.411   .     A
C883   C890    1.394   .     A
C884   O924    1.284   .     A
C884   O922    1.286   .     A
C885   C891    1.394   .     A
C885   C889    1.411   .     A
C886   C894    1.403   .     A
C886   H905    1.084   .     S
C886   C888    1.395   .     A
C887   C889    1.395   .     A
C887   H911    1.084   .     S
C887   C896    1.403   .     A
C890   H908    1.075   .     S
C890   C892    1.396   .     A
C891   H907    1.075   .     S
C891   C893    1.396   .     A
C892   C897    1.424   .     A
C892   C894    1.416   .     A
C893   C898    1.424   .     A
C893   C896    1.416   .     A
C894   C342    1.388   1_556 S
C895   C898    1.420   .     A
C895   C900    1.385   .     A
C895   H912    1.076   .     S
C897   C899    1.420   .     A
C897   C340    1.421   1_556 S
C899   C901    1.385   .     A
C899   H913    1.076   .     S
C900   H918    1.085   .     S
C901   H906    1.085   .     S
C901   C338    1.388   1_556 S
C902   H909    1.084   .     S
C902   C1090   1.370   .     S
C903   H910    1.084   .     S
C904   H914    1.084   .     S
N919   Zn929   2.014   .     S
N920   Zn930   2.014   .     S
O921   Zn929   2.002   .     S
O922   Zn930   2.002   .     S
O923   Zn930   1.998   .     S
O924   Zn929   1.998   .     S
O925   Zn929   1.966   .     S
O926   Zn930   1.966   .     S
O927   Zn930   1.895   .     S
O928   Zn929   1.895   .     S
Br931  C951    1.921   .     S
Br932  C950    1.921   .     S
Br933  C939    1.910   .     S
Br934  C940    1.910   .     S
C935   C938    1.420   .     S
C935   O983    1.286   .     A
C935   O985    1.284   .     A
C936   C938    1.396   .     A
C936   H977    1.084   .     S
C936   C593    1.370   1_565 S
C937   C966    1.396   .     A
C937   C946    1.420   .     S
C937   C965    1.398   .     A
C938   C964    1.398   .     A
C939   N982    1.375   .     A
C939   C1003   1.415   .     S
C940   N981    1.375   .     A
C940   C1066   1.415   1_455 S
C941   H978    1.082   .     S
C941   N981    1.362   .     A
C941   C1063   1.415   1_455 S
C942   H979    1.082   .     S
C942   N982    1.362   .     A
C942   C1002   1.415   .     S
C943   O989    1.298   .     A
C943   C945    1.465   .     S
C943   O987    1.294   .     A
C944   O990    1.298   .     A
C944   C947    1.465   .     S
C944   O988    1.294   .     A
C945   C950    1.411   .     A
C945   C952    1.394   .     A
C946   O986    1.284   .     A
C946   O984    1.286   .     A
C947   C953    1.394   .     A
C947   C951    1.411   .     A
C948   C956    1.403   .     A
C948   H967    1.084   .     S
C948   C950    1.395   .     A
C949   C951    1.395   .     A
C949   H973    1.084   .     S
C949   C958    1.403   .     A
C952   H970    1.075   .     S
C952   C954    1.396   .     A
C953   H969    1.075   .     S
C953   C955    1.396   .     A
C954   C959    1.424   .     A
C954   C956    1.416   .     A
C955   C960    1.424   .     A
C955   C958    1.416   .     A
C956   C404    1.388   1_556 S
C957   C960    1.420   .     A
C957   C962    1.385   .     A
C957   H974    1.076   .     S
C959   C961    1.420   .     A
C959   C402    1.421   1_556 S
C961   C963    1.385   .     A
C961   H975    1.076   .     S
C962   H980    1.085   .     S
C963   H968    1.085   .     S
C963   C400    1.388   1_556 S
C964   H971    1.084   .     S
C964   C594    1.370   1_565 S
C965   H972    1.084   .     S
C966   H976    1.084   .     S
N981   Zn991   2.014   .     S
N982   Zn992   2.014   .     S
O983   Zn991   2.002   .     S
O984   Zn992   2.002   .     S
O985   Zn992   1.998   .     S
O986   Zn991   1.998   .     S
O987   Zn991   1.966   .     S
O988   Zn992   1.966   .     S
O989   Zn992   1.895   .     S
O990   Zn991   1.895   .     S
Br993  C1013   1.921   .     S
Br994  C1012   1.921   .     S
Br995  C1001   1.910   .     S
Br996  C1002   1.910   .     S
C997   C1000   1.420   .     S
C997   O1045   1.286   .     A
C997   O1047   1.284   .     A
C998   C1000   1.396   .     A
C998   H1039   1.084   .     S
C998   C655    1.370   1_565 S
C999   C1028   1.396   .     A
C999   C1008   1.420   .     S
C999   C1027   1.398   .     A
C1000  C1026   1.398   .     A
C1001  N1044   1.375   .     A
C1001  C1065   1.415   .     S
C1002  N1043   1.375   .     A
C1003  H1040   1.082   .     S
C1003  N1043   1.362   .     A
C1004  H1041   1.082   .     S
C1004  N1044   1.362   .     A
C1004  C1064   1.415   .     S
C1005  O1051   1.298   .     A
C1005  C1007   1.465   .     S
C1005  O1049   1.294   .     A
C1006  O1052   1.298   .     A
C1006  C1009   1.465   .     S
C1006  O1050   1.294   .     A
C1007  C1012   1.411   .     A
C1007  C1014   1.394   .     A
C1008  O1048   1.284   .     A
C1008  O1046   1.286   .     A
C1009  C1015   1.394   .     A
C1009  C1013   1.411   .     A
C1010  C1018   1.403   .     A
C1010  H1029   1.084   .     S
C1010  C1012   1.395   .     A
C1011  C1013   1.395   .     A
C1011  H1035   1.084   .     S
C1011  C1020   1.403   .     A
C1014  H1032   1.075   .     S
C1014  C1016   1.396   .     A
C1015  H1031   1.075   .     S
C1015  C1017   1.396   .     A
C1016  C1021   1.424   .     A
C1016  C1018   1.416   .     A
C1017  C1022   1.424   .     A
C1017  C1020   1.416   .     A
C1018  C466    1.388   1_556 S
C1019  C1022   1.420   .     A
C1019  C1024   1.385   .     A
C1019  H1036   1.076   .     S
C1021  C1023   1.420   .     A
C1021  C464    1.421   1_556 S
C1023  C1025   1.385   .     A
C1023  H1037   1.076   .     S
C1024  H1042   1.085   .     S
C1025  H1030   1.085   .     S
C1025  C462    1.388   1_556 S
C1026  H1033   1.084   .     S
C1026  C656    1.370   1_565 S
C1027  H1034   1.084   .     S
C1028  H1038   1.084   .     S
N1043  Zn1053  2.014   .     S
N1044  Zn1054  2.014   .     S
O1045  Zn1053  2.002   .     S
O1046  Zn1054  2.002   .     S
O1047  Zn1054  1.998   .     S
O1048  Zn1053  1.998   .     S
O1049  Zn1053  1.966   .     S
O1050  Zn1054  1.966   .     S
O1051  Zn1054  1.895   .     S
O1052  Zn1053  1.895   .     S
Br1055 C1075   1.921   .     S
Br1056 C1074   1.921   .     S
Br1057 C1063   1.910   .     S
Br1058 C1064   1.910   .     S
C1059  C1062   1.420   .     S
C1059  O1107   1.286   .     A
C1059  O1109   1.284   .     A
C1060  C1062   1.396   .     A
C1060  H1101   1.084   .     S
C1060  C717    1.370   1_565 S
C1061  C1090   1.396   .     A
C1061  C1070   1.420   .     S
C1061  C1089   1.398   .     A
C1062  C1088   1.398   .     A
C1063  N1106   1.375   .     A
C1063  C941    1.415   1_655 S
C1064  N1105   1.375   .     A
C1065  H1102   1.082   .     S
C1065  N1105   1.362   .     A
C1066  H1103   1.082   .     S
C1066  N1106   1.362   .     A
C1066  C940    1.415   1_655 S
C1067  O1113   1.298   .     A
C1067  C1069   1.465   .     S
C1067  O1111   1.294   .     A
C1068  O1114   1.298   .     A
C1068  C1071   1.465   .     S
C1068  O1112   1.294   .     A
C1069  C1074   1.411   .     A
C1069  C1076   1.394   .     A
C1070  O1110   1.284   .     A
C1070  O1108   1.286   .     A
C1071  C1077   1.394   .     A
C1071  C1075   1.411   .     A
C1072  C1080   1.403   .     A
C1072  H1091   1.084   .     S
C1072  C1074   1.395   .     A
C1073  C1075   1.395   .     A
C1073  H1097   1.084   .     S
C1073  C1082   1.403   .     A
C1076  H1094   1.075   .     S
C1076  C1078   1.396   .     A
C1077  H1093   1.075   .     S
C1077  C1079   1.396   .     A
C1078  C1083   1.424   .     A
C1078  C1080   1.416   .     A
C1079  C1084   1.424   .     A
C1079  C1082   1.416   .     A
C1080  C528    1.388   1_556 S
C1081  C1084   1.420   .     A
C1081  C1086   1.385   .     A
C1081  H1098   1.076   .     S
C1083  C1085   1.420   .     A
C1083  C526    1.421   1_556 S
C1085  C1087   1.385   .     A
C1085  H1099   1.076   .     S
C1086  H1104   1.085   .     S
C1087  H1092   1.085   .     S
C1087  C524    1.388   1_556 S
C1088  H1095   1.084   .     S
C1088  C718    1.370   1_565 S
C1089  H1096   1.084   .     S
C1090  H1100   1.084   .     S
N1105  Zn1115  2.014   .     S
N1106  Zn1116  2.014   .     S
O1107  Zn1115  2.002   .     S
O1108  Zn1116  2.002   .     S
O1109  Zn1116  1.998   .     S
O1110  Zn1115  1.998   .     S
O1111  Zn1115  1.966   .     S
O1112  Zn1116  1.966   .     S
O1113  Zn1116  1.895   .     S
O1114  Zn1115  1.895   .     S
