data_str_m1_o1_o2_pcu_sym.16
_audit_creation_date              2020-01-03
_audit_creation_method            'Materials Studio'
_symmetry_space_group_name_H-M    'P1'
_symmetry_Int_Tables_number       1
_symmetry_cell_setting            triclinic
loop_
_symmetry_equiv_pos_as_xyz
  x,y,z
_cell_length_a                    36.5988
_cell_length_b                    36.6374
_cell_length_c                    34.4970
_cell_angle_alpha                 90.0433
_cell_angle_beta                  90.0477
_cell_angle_gamma                 89.9868
loop_
_atom_site_label
_atom_site_type_symbol
_atom_site_fract_x
_atom_site_fract_y
_atom_site_fract_z
_atom_site_U_iso_or_equiv
_atom_site_adp_type
_atom_site_occupancy
C1     C     0.24186   0.03108   0.04151   0.00000  Uiso   1.00
C2     C     0.01605   0.22289   0.45951   0.00000  Uiso   1.00
C3     C     0.34804   0.40179   0.75035   0.00000  Uiso   1.00
C4     C     0.40204   0.15180   0.24945   0.00000  Uiso   1.00
C5     C     0.09851   0.34762   0.75019   0.00000  Uiso   1.00
C6     C     0.34844   0.40228   0.24973   0.00000  Uiso   1.00
C7     C     0.15166   0.09781   0.74973   0.00000  Uiso   1.00
C8     C     0.09801   0.15186   0.74936   0.00000  Uiso   1.00
C9     C     0.40178   0.34787   0.25063   0.00000  Uiso   1.00
C10    C     0.15197   0.40184   0.75054   0.00000  Uiso   1.00
C11    C     0.34770   0.09841   0.25039   0.00000  Uiso   1.00
C12    C     0.40205   0.34805   0.75004   0.00000  Uiso   1.00
C13    C     0.21710   0.49533   0.54168   0.00000  Uiso   1.00
C14    C     0.09844   0.15230   0.25047   0.00000  Uiso   1.00
C15    C     0.34811   0.09800   0.74999   0.00000  Uiso   1.00
C16    C     0.15186   0.40195   0.24945   0.00000  Uiso   1.00
C17    C     0.24992   0.49943   0.10266   0.00000  Uiso   1.00
C18    C     0.25013   0.49946   0.89754   0.00000  Uiso   1.00
C19    C     0.49976   0.24993   0.10258   0.00000  Uiso   1.00
C20    C     0.49969   0.25005   0.89739   0.00000  Uiso   1.00
C21    C     0.49970   0.25002   0.60283   0.00000  Uiso   1.00
C22    C     0.00020   0.25053   0.39773   0.00000  Uiso   1.00
C23    C     0.24975   0.49988   0.60273   0.00000  Uiso   1.00
C24    C     0.22267   0.01984   0.45826   0.00000  Uiso   1.00
C25    C     0.24975   0.00013   0.39749   0.00000  Uiso   1.00
C26    C     0.16488   0.39039   0.17888   0.00000  Uiso   1.00
C27    C     0.39141   0.05260   0.71957   0.00000  Uiso   1.00
C28    C     0.13650   0.19229   0.20676   0.00000  Uiso   1.00
C29    C     0.38514   0.32837   0.81773   0.00000  Uiso   1.00
C30    C     0.32397   0.11908   0.18543   0.00000  Uiso   1.00
C31    C     0.10557   0.44964   0.73283   0.00000  Uiso   1.00
C32    C     0.44935   0.39245   0.27435   0.00000  Uiso   1.00
C33    C     0.10942   0.16603   0.81940   0.00000  Uiso   1.00
C34    C     0.16466   0.10896   0.82046   0.00000  Uiso   1.00
C35    C     0.49109   0.21750   0.54227   0.00000  Uiso   1.00
C36    C     0.39313   0.44791   0.27756   0.00000  Uiso   1.00
C37    C     0.05023   0.39293   0.73147   0.00000  Uiso   1.00
C38    C     0.37834   0.17680   0.18609   0.00000  Uiso   1.00
C39    C     0.32616   0.38127   0.81630   0.00000  Uiso   1.00
C40    C     0.19391   0.13752   0.21018   0.00000  Uiso   1.00
C41    C     0.44535   0.11036   0.71394   0.00000  Uiso   1.00
C42    C     0.10858   0.33508   0.17870   0.00000  Uiso   1.00
C43    C     0.36046   0.19523   0.78575   0.00000  Uiso   1.00
C44    C     0.08580   0.35855   0.32071   0.00000  Uiso   1.00
C45    C     0.36845   0.42428   0.68482   0.00000  Uiso   1.00
C46    C     0.47792   0.27674   0.45808   0.00000  Uiso   1.00
C47    C     0.11380   0.05797   0.29341   0.00000  Uiso   1.00
C48    C     0.14472   0.30045   0.77114   0.00000  Uiso   1.00
C49    C     0.42483   0.13183   0.31512   0.00000  Uiso   1.00
C50    C     0.14228   0.08628   0.67801   0.00000  Uiso   1.00
C51    C     0.30074   0.35749   0.22667   0.00000  Uiso   1.00
C52    C     0.35736   0.30197   0.22381   0.00000  Uiso   1.00
C53    C     0.08322   0.13846   0.67943   0.00000  Uiso   1.00
C54    C     0.37127   0.07331   0.31353   0.00000  Uiso   1.00
C55    C     0.20079   0.35612   0.76781   0.00000  Uiso   1.00
C56    C     0.05747   0.11408   0.29242   0.00000  Uiso   1.00
C57    C     0.28213   0.00717   0.54187   0.00000  Uiso   1.00
C58    C     0.42214   0.36627   0.68277   0.00000  Uiso   1.00
C59    C     0.14161   0.41511   0.31995   0.00000  Uiso   1.00
C60    C     0.30267   0.14140   0.78024   0.00000  Uiso   1.00
C61    C     0.23581   0.06779   0.10135   0.00000  Uiso   1.00
C62    C     0.28788   0.05836   0.89948   0.00000  Uiso   1.00
C63    C     0.06388   0.22173   0.10126   0.00000  Uiso   1.00
C64    C     0.06405   0.27717   0.89821   0.00000  Uiso   1.00
C65    C     0.26444   0.43096   0.10232   0.00000  Uiso   1.00
C66    C     0.21320   0.44005   0.89790   0.00000  Uiso   1.00
C67    C     0.43539   0.27755   0.10199   0.00000  Uiso   1.00
C68    C     0.27672   0.48180   0.45878   0.00000  Uiso   1.00
C69    C     0.43509   0.22298   0.89803   0.00000  Uiso   1.00
C70    C     0.00924   0.31954   0.60149   0.00000  Uiso   1.00
C71    C     0.03964   0.19271   0.40124   0.00000  Uiso   1.00
C72    C     0.18034   0.48890   0.60160   0.00000  Uiso   1.00
C73    C     0.19050   0.03733   0.39801   0.00000  Uiso   1.00
C74    C     0.48849   0.18077   0.60256   0.00000  Uiso   1.00
C75    C     0.46128   0.30869   0.39749   0.00000  Uiso   1.00
C76    C     0.31883   0.01213   0.60206   0.00000  Uiso   1.00
C77    C     0.30841   0.46225   0.39877   0.00000  Uiso   1.00
C78    C     0.24241   0.03205   0.08198   0.00000  Uiso   1.00
C79    C     0.26886   0.02717   0.91845   0.00000  Uiso   1.00
C80    C     0.03030   0.23597   0.08193   0.00000  Uiso   1.00
C81    C     0.26879   0.02606   0.95893   0.00000  Uiso   1.00
C82    C     0.03038   0.26372   0.91795   0.00000  Uiso   1.00
C83    C     0.25713   0.46641   0.08244   0.00000  Uiso   1.00
C84    C     0.23158   0.47119   0.91774   0.00000  Uiso   1.00
C85    C     0.46897   0.26382   0.08224   0.00000  Uiso   1.00
C86    C     0.46877   0.23658   0.91775   0.00000  Uiso   1.00
C87    C     0.00367   0.28337   0.58222   0.00000  Uiso   1.00
C88    C     0.01852   0.22291   0.41917   0.00000  Uiso   1.00
C89    C     0.21645   0.49463   0.58222   0.00000  Uiso   1.00
C90    C     0.22179   0.01909   0.41776   0.00000  Uiso   1.00
C91    C     0.49316   0.21678   0.58273   0.00000  Uiso   1.00
C92    C     0.02943   0.23604   0.04140   0.00000  Uiso   1.00
C93    C     0.47990   0.27787   0.41759   0.00000  Uiso   1.00
C94    C     0.28288   0.00633   0.58239   0.00000  Uiso   1.00
C95    C     0.27755   0.48146   0.41825   0.00000  Uiso   1.00
C96    C     0.24946   0.49883   0.02145   0.00000  Uiso   1.00
C97    C     0.24985   0.49881   0.97884   0.00000  Uiso   1.00
C98    C     0.49944   0.25012   0.02129   0.00000  Uiso   1.00
C99    C     0.49940   0.25028   0.97866   0.00000  Uiso   1.00
C100   C     0.49579   0.25003   0.52174   0.00000  Uiso   1.00
C101   C     0.49613   0.24966   0.47908   0.00000  Uiso   1.00
C102   C     0.24963   0.00138   0.52150   0.00000  Uiso   1.00
C103   C     0.02955   0.26390   0.95851   0.00000  Uiso   1.00
C104   C     0.24974   0.00113   0.47882   0.00000  Uiso   1.00
C105   C     0.24996   0.00002   0.35511   0.00000  Uiso   1.00
C106   C     0.24976   0.49999   0.64498   0.00000  Uiso   1.00
C107   C     0.00008   0.24952   0.35521   0.00000  Uiso   1.00
C108   C     0.49995   0.25023   0.64500   0.00000  Uiso   1.00
C109   C     0.49989   0.25001   0.85507   0.00000  Uiso   1.00
C110   C     0.49999   0.24998   0.14492   0.00000  Uiso   1.00
C111   C     0.25003   0.49993   0.85513   0.00000  Uiso   1.00
C112   C     0.24998   0.49987   0.14494   0.00000  Uiso   1.00
C113   C     0.17992   0.06987   0.25005   0.00000  Uiso   1.00
C114   C     0.25710   0.46680   0.04188   0.00000  Uiso   1.00
C115   C     0.31986   0.42985   0.75027   0.00000  Uiso   1.00
C116   C     0.42977   0.18028   0.24953   0.00000  Uiso   1.00
C117   C     0.07032   0.31963   0.75043   0.00000  Uiso   1.00
C118   C     0.32033   0.43036   0.25039   0.00000  Uiso   1.00
C119   C     0.17999   0.06994   0.74997   0.00000  Uiso   1.00
C120   C     0.07001   0.31995   0.25004   0.00000  Uiso   1.00
C121   C     0.43004   0.18000   0.74993   0.00000  Uiso   1.00
C122   C     0.17992   0.43010   0.74993   0.00000  Uiso   1.00
C123   C     0.32012   0.06982   0.25035   0.00000  Uiso   1.00
C124   C     0.43010   0.32000   0.74993   0.00000  Uiso   1.00
C125   C     0.23130   0.47168   0.95826   0.00000  Uiso   1.00
C126   C     0.07010   0.18014   0.24996   0.00000  Uiso   1.00
C127   C     0.32000   0.06995   0.74999   0.00000  Uiso   1.00
C128   C     0.18021   0.42982   0.24957   0.00000  Uiso   1.00
C129   C     0.06974   0.17979   0.74954   0.00000  Uiso   1.00
C130   C     0.42979   0.31972   0.24977   0.00000  Uiso   1.00
C131   C     0.14362   0.38322   0.21474   0.00000  Uiso   1.00
C132   C     0.38294   0.08987   0.73455   0.00000  Uiso   1.00
C133   C     0.13126   0.15833   0.22993   0.00000  Uiso   1.00
C134   C     0.37960   0.35204   0.78303   0.00000  Uiso   1.00
C135   C     0.34994   0.12250   0.21853   0.00000  Uiso   1.00
C136   C     0.46953   0.26400   0.04169   0.00000  Uiso   1.00
C137   C     0.11527   0.41144   0.74308   0.00000  Uiso   1.00
C138   C     0.41122   0.38362   0.26222   0.00000  Uiso   1.00
C139   C     0.11649   0.14380   0.78418   0.00000  Uiso   1.00
C140   C     0.14333   0.11639   0.78454   0.00000  Uiso   1.00
C141   C     0.38433   0.41104   0.26186   0.00000  Uiso   1.00
C142   C     0.08844   0.38408   0.74261   0.00000  Uiso   1.00
C143   C     0.37735   0.14942   0.21802   0.00000  Uiso   1.00
C144   C     0.35209   0.37889   0.78307   0.00000  Uiso   1.00
C145   C     0.15827   0.13098   0.22980   0.00000  Uiso   1.00
C146   C     0.40988   0.11726   0.73386   0.00000  Uiso   1.00
C147   C     0.46933   0.23664   0.95830   0.00000  Uiso   1.00
C148   C     0.11686   0.35573   0.21496   0.00000  Uiso   1.00
C149   C     0.36734   0.15977   0.76590   0.00000  Uiso   1.00
C150   C     0.10697   0.36614   0.28477   0.00000  Uiso   1.00
C151   C     0.37097   0.39807   0.71763   0.00000  Uiso   1.00
C152   C     0.11896   0.09190   0.27019   0.00000  Uiso   1.00
C153   C     0.13507   0.33813   0.75874   0.00000  Uiso   1.00
C154   C     0.39951   0.12795   0.28151   0.00000  Uiso   1.00
C155   C     0.13314   0.10585   0.71475   0.00000  Uiso   1.00
C156   C     0.33896   0.36642   0.23845   0.00000  Uiso   1.00
C157   C     0.36594   0.33909   0.23874   0.00000  Uiso   1.00
C158   C     0.00181   0.28266   0.54174   0.00000  Uiso   1.00
C159   C     0.10583   0.13279   0.71475   0.00000  Uiso   1.00
C160   C     0.37233   0.10082   0.28178   0.00000  Uiso   1.00
C161   C     0.16206   0.36544   0.75873   0.00000  Uiso   1.00
C162   C     0.09217   0.11945   0.27073   0.00000  Uiso   1.00
C163   C     0.39804   0.37085   0.71733   0.00000  Uiso   1.00
C164   C     0.13390   0.39345   0.28446   0.00000  Uiso   1.00
C165   C     0.33996   0.13285   0.76530   0.00000  Uiso   1.00
C166   C     0.09842   0.34772   0.24991   0.00000  Uiso   1.00
C167   C     0.40197   0.15189   0.74987   0.00000  Uiso   1.00
C168   C     0.15171   0.09785   0.24954   0.00000  Uiso   1.00
H169   H     0.23592   0.05573   0.02532   0.00000  Uiso   1.00
H170   H     0.03067   0.20230   0.47594   0.00000  Uiso   1.00
H171   H     0.19221   0.49043   0.52547   0.00000  Uiso   1.00
H172   H     0.20178   0.03464   0.47404   0.00000  Uiso   1.00
H173   H     0.48609   0.19248   0.52637   0.00000  Uiso   1.00
H174   H     0.46253   0.29741   0.47352   0.00000  Uiso   1.00
H175   H     0.30707   0.01220   0.52585   0.00000  Uiso   1.00
H176   H     0.29751   0.46722   0.47495   0.00000  Uiso   1.00
H177   H     0.17630   0.42494   0.13505   0.00000  Uiso   1.00
H178   H     0.42676   0.01035   0.71815   0.00000  Uiso   1.00
H179   H     0.15119   0.21471   0.15571   0.00000  Uiso   1.00
H180   H     0.28317   0.04689   0.97524   0.00000  Uiso   1.00
H181   H     0.39093   0.32528   0.87579   0.00000  Uiso   1.00
H182   H     0.31686   0.11685   0.12747   0.00000  Uiso   1.00
H183   H     0.11372   0.49238   0.69728   0.00000  Uiso   1.00
H184   H     0.49245   0.42650   0.26993   0.00000  Uiso   1.00
H185   H     0.08763   0.16863   0.87297   0.00000  Uiso   1.00
H186   H     0.21423   0.10414   0.84547   0.00000  Uiso   1.00
H187   H     0.41336   0.47738   0.32209   0.00000  Uiso   1.00
H188   H     0.00289   0.41779   0.74546   0.00000  Uiso   1.00
H189   H     0.35056   0.21359   0.15406   0.00000  Uiso   1.00
H190   H     0.30240   0.41235   0.85749   0.00000  Uiso   1.00
H191   H     0.05241   0.22532   0.02518   0.00000  Uiso   1.00
H192   H     0.23635   0.17164   0.20127   0.00000  Uiso   1.00
H193   H     0.47109   0.09303   0.66564   0.00000  Uiso   1.00
H194   H     0.09765   0.33685   0.12141   0.00000  Uiso   1.00
H195   H     0.34417   0.22104   0.83444   0.00000  Uiso   1.00
H196   H     0.03636   0.35426   0.34598   0.00000  Uiso   1.00
H197   H     0.39400   0.46203   0.65207   0.00000  Uiso   1.00
H198   H     0.10062   0.03564   0.34498   0.00000  Uiso   1.00
H199   H     0.16525   0.26814   0.81315   0.00000  Uiso   1.00
H200   H     0.43099   0.13381   0.37321   0.00000  Uiso   1.00
H201   H     0.15243   0.08964   0.62064   0.00000  Uiso   1.00
H202   H     0.05270   0.27440   0.97466   0.00000  Uiso   1.00
H203   H     0.25606   0.37172   0.19598   0.00000  Uiso   1.00
H204   H     0.35283   0.24814   0.23501   0.00000  Uiso   1.00
H205   H     0.04828   0.11648   0.64067   0.00000  Uiso   1.00
H206   H     0.34214   0.04888   0.35580   0.00000  Uiso   1.00
H207   H     0.24665   0.36895   0.79712   0.00000  Uiso   1.00
H208   H     0.02317   0.13305   0.33341   0.00000  Uiso   1.00
H209   H     0.42604   0.36273   0.62456   0.00000  Uiso   1.00
H210   H     0.16341   0.41649   0.37362   0.00000  Uiso   1.00
H211   H     0.26044   0.17677   0.78167   0.00000  Uiso   1.00
H212   H     0.21330   0.11802   0.09816   0.00000  Uiso   1.00
H213   H     0.26300   0.44201   0.02591   0.00000  Uiso   1.00
H214   H     0.32761   0.09646   0.90286   0.00000  Uiso   1.00
H215   H     0.10845   0.18942   0.09740   0.00000  Uiso   1.00
H216   H     0.09742   0.27511   0.85167   0.00000  Uiso   1.00
H217   H     0.28521   0.38001   0.09858   0.00000  Uiso   1.00
H218   H     0.17381   0.40154   0.89988   0.00000  Uiso   1.00
H219   H     0.39043   0.30937   0.09890   0.00000  Uiso   1.00
H220   H     0.38973   0.19177   0.90139   0.00000  Uiso   1.00
H221   H     0.00760   0.37445   0.59664   0.00000  Uiso   1.00
H222   H     0.05211   0.13903   0.40210   0.00000  Uiso   1.00
H223   H     0.12535   0.48854   0.59641   0.00000  Uiso   1.00
H224   H     0.21689   0.45056   0.97405   0.00000  Uiso   1.00
H225   H     0.15223   0.07698   0.39979   0.00000  Uiso   1.00
H226   H     0.47220   0.12824   0.59836   0.00000  Uiso   1.00
H227   H     0.42078   0.34610   0.39850   0.00000  Uiso   1.00
H228   H     0.37080   0.03022   0.59784   0.00000  Uiso   1.00
H229   H     0.34276   0.45915   0.35315   0.00000  Uiso   1.00
H230   H     0.44640   0.27473   0.02571   0.00000  Uiso   1.00
H231   H     0.44612   0.22621   0.97432   0.00000  Uiso   1.00
H232   H     0.00598   0.30759   0.52545   0.00000  Uiso   1.00
O233   O     0.25000   0.00000   0.25000   0.00000  Uiso   1.00
O234   O     0.25000   0.46964   0.66317   0.00000  Uiso   1.00
O235   O     0.28182   0.38052   0.20136   0.00000  Uiso   1.00
O236   O     0.34802   0.29802   0.19002   0.00000  Uiso   1.00
O237   O     0.35933   0.27183   0.24853   0.00000  Uiso   1.00
O238   O     0.08387   0.16771   0.66243   0.00000  Uiso   1.00
O239   O     0.06210   0.10967   0.66509   0.00000  Uiso   1.00
O240   O     0.39861   0.05548   0.32110   0.00000  Uiso   1.00
O241   O     0.33929   0.06816   0.33495   0.00000  Uiso   1.00
O242   O     0.21531   0.32978   0.75241   0.00000  Uiso   1.00
O243   O     0.22057   0.37764   0.79390   0.00000  Uiso   1.00
O244   O     0.03944   0.08634   0.28763   0.00000  Uiso   1.00
O245   O     0.46964   0.25000   0.33683   0.00000  Uiso   1.00
O246   O     0.04582   0.14067   0.31867   0.00000  Uiso   1.00
O247   O     0.45516   0.36283   0.68688   0.00000  Uiso   1.00
O248   O     0.40695   0.36600   0.64557   0.00000  Uiso   1.00
O249   O     0.13345   0.44747   0.32104   0.00000  Uiso   1.00
O250   O     0.15920   0.39879   0.35145   0.00000  Uiso   1.00
O251   O     0.28700   0.11998   0.80171   0.00000  Uiso   1.00
O252   O     0.28559   0.17407   0.76971   0.00000  Uiso   1.00
O253   O     0.24855   0.07408   0.13341   0.00000  Uiso   1.00
O254   O     0.21572   0.09486   0.08226   0.00000  Uiso   1.00
O255   O     0.27763   0.06985   0.86806   0.00000  Uiso   1.00
O256   O     0.03036   0.25000   0.66317   0.00000  Uiso   1.00
O257   O     0.31709   0.07544   0.91837   0.00000  Uiso   1.00
O258   O     0.07248   0.23198   0.13376   0.00000  Uiso   1.00
O259   O     0.08637   0.19702   0.08159   0.00000  Uiso   1.00
O260   O     0.08366   0.29954   0.91437   0.00000  Uiso   1.00
O261   O     0.07404   0.26376   0.86175   0.00000  Uiso   1.00
O262   O     0.25472   0.42593   0.13578   0.00000  Uiso   1.00
O263   O     0.28195   0.40276   0.08222   0.00000  Uiso   1.00
O264   O     0.22417   0.42899   0.86654   0.00000  Uiso   1.00
O265   O     0.18385   0.42248   0.91590   0.00000  Uiso   1.00
O266   O     0.42714   0.26686   0.13439   0.00000  Uiso   1.00
O267   O     0.00000   0.21964   0.83683   0.00000  Uiso   1.00
O268   O     0.41248   0.30222   0.08281   0.00000  Uiso   1.00
O269   O     0.42711   0.23323   0.86538   0.00000  Uiso   1.00
O270   O     0.41179   0.19891   0.91750   0.00000  Uiso   1.00
O271   O     0.01944   0.32158   0.63517   0.00000  Uiso   1.00
O272   O     0.00303   0.35169   0.58063   0.00000  Uiso   1.00
O273   O     0.06204   0.19883   0.37583   0.00000  Uiso   1.00
O274   O     0.03544   0.15722   0.41545   0.00000  Uiso   1.00
O275   O     0.17845   0.48037   0.63578   0.00000  Uiso   1.00
O276   O     0.14806   0.49306   0.58028   0.00000  Uiso   1.00
O277   O     0.17899   0.02589   0.36700   0.00000  Uiso   1.00
O278   O     0.00000   0.28036   0.16317   0.00000  Uiso   1.00
O279   O     0.17331   0.06708   0.41572   0.00000  Uiso   1.00
O280   O     0.49777   0.17651   0.63631   0.00000  Uiso   1.00
O281   O     0.47380   0.15122   0.58210   0.00000  Uiso   1.00
O282   O     0.47285   0.32029   0.36664   0.00000  Uiso   1.00
O283   O     0.43090   0.32531   0.41465   0.00000  Uiso   1.00
O284   O     0.32354   0.00280   0.63571   0.00000  Uiso   1.00
O285   O     0.34781   0.02786   0.58159   0.00000  Uiso   1.00
O286   O     0.32271   0.43589   0.41440   0.00000  Uiso   1.00
O287   O     0.32194   0.47470   0.36326   0.00000  Uiso   1.00
O288   O     0.28036   0.00000   0.83683   0.00000  Uiso   1.00
O289   O     0.21964   0.00000   0.16317   0.00000  Uiso   1.00
O290   O     0.00000   0.28036   0.83683   0.00000  Uiso   1.00
O291   O     0.00000   0.21964   0.16317   0.00000  Uiso   1.00
O292   O     0.21964   0.00000   0.83683   0.00000  Uiso   1.00
O293   O     0.25000   0.00000   0.75000   0.00000  Uiso   1.00
O294   O     0.28036   0.00000   0.16317   0.00000  Uiso   1.00
O295   O     0.20726   0.07307   0.27282   0.00000  Uiso   1.00
O296   O     0.29275   0.42693   0.72718   0.00000  Uiso   1.00
O297   O     0.42693   0.20726   0.27282   0.00000  Uiso   1.00
O298   O     0.07307   0.29275   0.72718   0.00000  Uiso   1.00
O299   O     0.29275   0.42693   0.27282   0.00000  Uiso   1.00
O300   O     0.20726   0.07307   0.72718   0.00000  Uiso   1.00
O301   O     0.07307   0.29275   0.27282   0.00000  Uiso   1.00
O302   O     0.42693   0.20726   0.72718   0.00000  Uiso   1.00
O303   O     0.20726   0.42693   0.72718   0.00000  Uiso   1.00
O304   O     0.00000   0.25000   0.25000   0.00000  Uiso   1.00
O305   O     0.29275   0.07307   0.27282   0.00000  Uiso   1.00
O306   O     0.42693   0.29275   0.72718   0.00000  Uiso   1.00
O307   O     0.07307   0.20726   0.27282   0.00000  Uiso   1.00
O308   O     0.29275   0.07307   0.72718   0.00000  Uiso   1.00
O309   O     0.20726   0.42693   0.27282   0.00000  Uiso   1.00
O310   O     0.07307   0.20726   0.72718   0.00000  Uiso   1.00
O311   O     0.42693   0.29275   0.27282   0.00000  Uiso   1.00
O312   O     0.45726   0.32307   0.77282   0.00000  Uiso   1.00
O313   O     0.04275   0.17693   0.22718   0.00000  Uiso   1.00
O314   O     0.17693   0.45726   0.77282   0.00000  Uiso   1.00
O315   O     0.00000   0.25000   0.75000   0.00000  Uiso   1.00
O316   O     0.32307   0.04275   0.22718   0.00000  Uiso   1.00
O317   O     0.04275   0.17693   0.77282   0.00000  Uiso   1.00
O318   O     0.45726   0.32307   0.22718   0.00000  Uiso   1.00
O319   O     0.32307   0.04275   0.77282   0.00000  Uiso   1.00
O320   O     0.17693   0.45726   0.22718   0.00000  Uiso   1.00
O321   O     0.45726   0.17693   0.22718   0.00000  Uiso   1.00
O322   O     0.04275   0.32307   0.77282   0.00000  Uiso   1.00
O323   O     0.17693   0.04275   0.22718   0.00000  Uiso   1.00
O324   O     0.32307   0.45726   0.77282   0.00000  Uiso   1.00
O325   O     0.04275   0.32307   0.22718   0.00000  Uiso   1.00
O326   O     0.25000   0.46964   0.33683   0.00000  Uiso   1.00
O327   O     0.45726   0.17693   0.77282   0.00000  Uiso   1.00
O328   O     0.32307   0.45726   0.22718   0.00000  Uiso   1.00
O329   O     0.17693   0.04275   0.77282   0.00000  Uiso   1.00
O330   O     0.18531   0.36688   0.16611   0.00000  Uiso   1.00
O331   O     0.16065   0.42347   0.15923   0.00000  Uiso   1.00
O332   O     0.36996   0.03700   0.69799   0.00000  Uiso   1.00
O333   O     0.42407   0.03547   0.73017   0.00000  Uiso   1.00
O334   O     0.13067   0.22220   0.22126   0.00000  Uiso   1.00
O335   O     0.14841   0.18989   0.16834   0.00000  Uiso   1.00
O336   O     0.38791   0.29528   0.81401   0.00000  Uiso   1.00
O337   O     0.25000   0.03036   0.66317   0.00000  Uiso   1.00
O338   O     0.38711   0.34408   0.85462   0.00000  Uiso   1.00
O339   O     0.29119   0.11624   0.19149   0.00000  Uiso   1.00
O340   O     0.33712   0.11922   0.14738   0.00000  Uiso   1.00
O341   O     0.08257   0.46614   0.75163   0.00000  Uiso   1.00
O342   O     0.12313   0.46674   0.70183   0.00000  Uiso   1.00
O343   O     0.46544   0.37270   0.29728   0.00000  Uiso   1.00
O344   O     0.46671   0.42343   0.25953   0.00000  Uiso   1.00
O345   O     0.11859   0.19812   0.82013   0.00000  Uiso   1.00
O346   O     0.09133   0.15057   0.85103   0.00000  Uiso   1.00
O347   O     0.14892   0.10188   0.85078   0.00000  Uiso   1.00
O348   O     0.03036   0.25000   0.33683   0.00000  Uiso   1.00
O349   O     0.20284   0.10967   0.81934   0.00000  Uiso   1.00
O350   O     0.38797   0.47520   0.25794   0.00000  Uiso   1.00
O351   O     0.40826   0.45110   0.31463   0.00000  Uiso   1.00
O352   O     0.03767   0.38088   0.70120   0.00000  Uiso   1.00
O353   O     0.02848   0.41410   0.75603   0.00000  Uiso   1.00
O354   O     0.40671   0.18255   0.16843   0.00000  Uiso   1.00
O355   O     0.34652   0.19572   0.17607   0.00000  Uiso   1.00
O356   O     0.31038   0.35380   0.82747   0.00000  Uiso   1.00
O357   O     0.32052   0.41445   0.83539   0.00000  Uiso   1.00
O358   O     0.20677   0.11435   0.18866   0.00000  Uiso   1.00
O359   O     0.46964   0.25000   0.66317   0.00000  Uiso   1.00
O360   O     0.21263   0.17029   0.21635   0.00000  Uiso   1.00
O361   O     0.47425   0.11599   0.73070   0.00000  Uiso   1.00
O362   O     0.44546   0.09686   0.67602   0.00000  Uiso   1.00
O363   O     0.10679   0.30174   0.17931   0.00000  Uiso   1.00
O364   O     0.10302   0.35384   0.14391   0.00000  Uiso   1.00
O365   O     0.36526   0.22402   0.76862   0.00000  Uiso   1.00
O366   O     0.34791   0.19543   0.82402   0.00000  Uiso   1.00
O367   O     0.10165   0.35068   0.35077   0.00000  Uiso   1.00
O368   O     0.04765   0.35995   0.31985   0.00000  Uiso   1.00
O369   O     0.34019   0.42688   0.66613   0.00000  Uiso   1.00
O370   O     0.25000   0.03036   0.33683   0.00000  Uiso   1.00
O371   O     0.39889   0.44534   0.67492   0.00000  Uiso   1.00
O372   O     0.11855   0.02804   0.27855   0.00000  Uiso   1.00
O373   O     0.10334   0.06045   0.33230   0.00000  Uiso   1.00
O374   O     0.14089   0.27478   0.74886   0.00000  Uiso   1.00
O375   O     0.15939   0.29476   0.80807   0.00000  Uiso   1.00
O376   O     0.45756   0.13588   0.30970   0.00000  Uiso   1.00
O377   O     0.41113   0.13087   0.35294   0.00000  Uiso   1.00
O378   O     0.14623   0.05315   0.67791   0.00000  Uiso   1.00
O379   O     0.14629   0.10591   0.64352   0.00000  Uiso   1.00
O380   O     0.28584   0.33008   0.23927   0.00000  Uiso   1.00
Zn381  Zn    0.20660   0.00000   0.21760   0.00000  Uiso   1.00
Zn382  Zn    0.04340   0.25000   0.28240   0.00000  Uiso   1.00
Zn383  Zn    0.25000   0.45660   0.71760   0.00000  Uiso   1.00
Zn384  Zn    0.25000   0.04340   0.28240   0.00000  Uiso   1.00
Zn385  Zn    0.04340   0.25000   0.71760   0.00000  Uiso   1.00
Zn386  Zn    0.45660   0.25000   0.28240   0.00000  Uiso   1.00
Zn387  Zn    0.25000   0.04340   0.71760   0.00000  Uiso   1.00
Zn388  Zn    0.25000   0.45660   0.28240   0.00000  Uiso   1.00
Zn389  Zn    0.29340   0.00000   0.78240   0.00000  Uiso   1.00
Zn390  Zn    0.00000   0.20660   0.21760   0.00000  Uiso   1.00
Zn391  Zn    0.00000   0.29340   0.78240   0.00000  Uiso   1.00
Zn392  Zn    0.29340   0.00000   0.21760   0.00000  Uiso   1.00
Zn393  Zn    0.20660   0.00000   0.78240   0.00000  Uiso   1.00
Zn394  Zn    0.00000   0.29340   0.21760   0.00000  Uiso   1.00
Zn395  Zn    0.00000   0.20660   0.78240   0.00000  Uiso   1.00
Zn396  Zn    0.45660   0.25000   0.71760   0.00000  Uiso   1.00
C397   C     0.74186   0.03108   0.04151   0.00000  Uiso   1.00
C398   C     0.51605   0.22289   0.45951   0.00000  Uiso   1.00
C399   C     0.84804   0.40179   0.75035   0.00000  Uiso   1.00
C400   C     0.90204   0.15180   0.24945   0.00000  Uiso   1.00
C401   C     0.59851   0.34762   0.75019   0.00000  Uiso   1.00
C402   C     0.84844   0.40228   0.24973   0.00000  Uiso   1.00
C403   C     0.65166   0.09781   0.74973   0.00000  Uiso   1.00
C404   C     0.59801   0.15186   0.74936   0.00000  Uiso   1.00
C405   C     0.90178   0.34787   0.25063   0.00000  Uiso   1.00
C406   C     0.65197   0.40184   0.75054   0.00000  Uiso   1.00
C407   C     0.84770   0.09841   0.25039   0.00000  Uiso   1.00
C408   C     0.90205   0.34805   0.75004   0.00000  Uiso   1.00
C409   C     0.71710   0.49533   0.54168   0.00000  Uiso   1.00
C410   C     0.59844   0.15230   0.25047   0.00000  Uiso   1.00
C411   C     0.84811   0.09800   0.74999   0.00000  Uiso   1.00
C412   C     0.65186   0.40195   0.24945   0.00000  Uiso   1.00
C413   C     0.74992   0.49943   0.10266   0.00000  Uiso   1.00
C414   C     0.75013   0.49946   0.89754   0.00000  Uiso   1.00
C415   C     0.99976   0.24993   0.10258   0.00000  Uiso   1.00
C416   C     0.99969   0.25005   0.89739   0.00000  Uiso   1.00
C417   C     0.99970   0.25002   0.60283   0.00000  Uiso   1.00
C418   C     0.50020   0.25053   0.39773   0.00000  Uiso   1.00
C419   C     0.74975   0.49988   0.60273   0.00000  Uiso   1.00
C420   C     0.72267   0.01984   0.45826   0.00000  Uiso   1.00
C421   C     0.74975   0.00013   0.39749   0.00000  Uiso   1.00
C422   C     0.66488   0.39039   0.17888   0.00000  Uiso   1.00
C423   C     0.89141   0.05260   0.71957   0.00000  Uiso   1.00
C424   C     0.63650   0.19229   0.20676   0.00000  Uiso   1.00
C425   C     0.88514   0.32837   0.81773   0.00000  Uiso   1.00
C426   C     0.82397   0.11908   0.18543   0.00000  Uiso   1.00
C427   C     0.60557   0.44964   0.73283   0.00000  Uiso   1.00
C428   C     0.94935   0.39245   0.27435   0.00000  Uiso   1.00
C429   C     0.60942   0.16603   0.81940   0.00000  Uiso   1.00
C430   C     0.66466   0.10896   0.82046   0.00000  Uiso   1.00
C431   C     0.99109   0.21750   0.54227   0.00000  Uiso   1.00
C432   C     0.89313   0.44791   0.27756   0.00000  Uiso   1.00
C433   C     0.55023   0.39293   0.73147   0.00000  Uiso   1.00
C434   C     0.87834   0.17680   0.18609   0.00000  Uiso   1.00
C435   C     0.82616   0.38127   0.81630   0.00000  Uiso   1.00
C436   C     0.69391   0.13752   0.21018   0.00000  Uiso   1.00
C437   C     0.94535   0.11036   0.71394   0.00000  Uiso   1.00
C438   C     0.60858   0.33508   0.17870   0.00000  Uiso   1.00
C439   C     0.86046   0.19523   0.78575   0.00000  Uiso   1.00
C440   C     0.58580   0.35855   0.32071   0.00000  Uiso   1.00
C441   C     0.86845   0.42428   0.68482   0.00000  Uiso   1.00
C442   C     0.97792   0.27674   0.45808   0.00000  Uiso   1.00
C443   C     0.61380   0.05797   0.29341   0.00000  Uiso   1.00
C444   C     0.64472   0.30045   0.77114   0.00000  Uiso   1.00
C445   C     0.92483   0.13183   0.31512   0.00000  Uiso   1.00
C446   C     0.64228   0.08628   0.67801   0.00000  Uiso   1.00
C447   C     0.80074   0.35749   0.22667   0.00000  Uiso   1.00
C448   C     0.85736   0.30197   0.22381   0.00000  Uiso   1.00
C449   C     0.58322   0.13846   0.67943   0.00000  Uiso   1.00
C450   C     0.87127   0.07331   0.31353   0.00000  Uiso   1.00
C451   C     0.70079   0.35612   0.76781   0.00000  Uiso   1.00
C452   C     0.55747   0.11408   0.29242   0.00000  Uiso   1.00
C453   C     0.78213   0.00717   0.54187   0.00000  Uiso   1.00
C454   C     0.92214   0.36627   0.68277   0.00000  Uiso   1.00
C455   C     0.64161   0.41511   0.31995   0.00000  Uiso   1.00
C456   C     0.80267   0.14140   0.78024   0.00000  Uiso   1.00
C457   C     0.73581   0.06779   0.10135   0.00000  Uiso   1.00
C458   C     0.78788   0.05836   0.89948   0.00000  Uiso   1.00
C459   C     0.56388   0.22173   0.10126   0.00000  Uiso   1.00
C460   C     0.56405   0.27717   0.89821   0.00000  Uiso   1.00
C461   C     0.76444   0.43096   0.10232   0.00000  Uiso   1.00
C462   C     0.71320   0.44005   0.89790   0.00000  Uiso   1.00
C463   C     0.93539   0.27755   0.10199   0.00000  Uiso   1.00
C464   C     0.77672   0.48180   0.45878   0.00000  Uiso   1.00
C465   C     0.93509   0.22298   0.89803   0.00000  Uiso   1.00
C466   C     0.50924   0.31954   0.60149   0.00000  Uiso   1.00
C467   C     0.53964   0.19271   0.40124   0.00000  Uiso   1.00
C468   C     0.68034   0.48890   0.60160   0.00000  Uiso   1.00
C469   C     0.69050   0.03733   0.39801   0.00000  Uiso   1.00
C470   C     0.98849   0.18077   0.60256   0.00000  Uiso   1.00
C471   C     0.96128   0.30869   0.39749   0.00000  Uiso   1.00
C472   C     0.81883   0.01213   0.60206   0.00000  Uiso   1.00
C473   C     0.80841   0.46225   0.39877   0.00000  Uiso   1.00
C474   C     0.74241   0.03205   0.08198   0.00000  Uiso   1.00
C475   C     0.76886   0.02717   0.91845   0.00000  Uiso   1.00
C476   C     0.53030   0.23597   0.08193   0.00000  Uiso   1.00
C477   C     0.76879   0.02606   0.95893   0.00000  Uiso   1.00
C478   C     0.53038   0.26372   0.91795   0.00000  Uiso   1.00
C479   C     0.75713   0.46641   0.08244   0.00000  Uiso   1.00
C480   C     0.73158   0.47119   0.91774   0.00000  Uiso   1.00
C481   C     0.96897   0.26382   0.08224   0.00000  Uiso   1.00
C482   C     0.96877   0.23658   0.91775   0.00000  Uiso   1.00
C483   C     0.50367   0.28337   0.58222   0.00000  Uiso   1.00
C484   C     0.51852   0.22291   0.41917   0.00000  Uiso   1.00
C485   C     0.71645   0.49463   0.58222   0.00000  Uiso   1.00
C486   C     0.72179   0.01909   0.41776   0.00000  Uiso   1.00
C487   C     0.99316   0.21678   0.58273   0.00000  Uiso   1.00
C488   C     0.52943   0.23604   0.04140   0.00000  Uiso   1.00
C489   C     0.97990   0.27787   0.41759   0.00000  Uiso   1.00
C490   C     0.78288   0.00633   0.58239   0.00000  Uiso   1.00
C491   C     0.77755   0.48146   0.41825   0.00000  Uiso   1.00
C492   C     0.74946   0.49883   0.02145   0.00000  Uiso   1.00
C493   C     0.74985   0.49881   0.97884   0.00000  Uiso   1.00
C494   C     0.99944   0.25012   0.02129   0.00000  Uiso   1.00
C495   C     0.99940   0.25028   0.97866   0.00000  Uiso   1.00
C496   C     0.99579   0.25003   0.52174   0.00000  Uiso   1.00
C497   C     0.99613   0.24966   0.47908   0.00000  Uiso   1.00
C498   C     0.74963   0.00138   0.52150   0.00000  Uiso   1.00
C499   C     0.52955   0.26390   0.95851   0.00000  Uiso   1.00
C500   C     0.74974   0.00113   0.47882   0.00000  Uiso   1.00
C501   C     0.74996   0.00002   0.35511   0.00000  Uiso   1.00
C502   C     0.74976   0.49999   0.64498   0.00000  Uiso   1.00
C503   C     0.50008   0.24952   0.35521   0.00000  Uiso   1.00
C504   C     0.99995   0.25023   0.64500   0.00000  Uiso   1.00
C505   C     0.99989   0.25001   0.85507   0.00000  Uiso   1.00
C506   C     0.99999   0.24998   0.14492   0.00000  Uiso   1.00
C507   C     0.75003   0.49993   0.85513   0.00000  Uiso   1.00
C508   C     0.74998   0.49987   0.14494   0.00000  Uiso   1.00
C509   C     0.67992   0.06987   0.25005   0.00000  Uiso   1.00
C510   C     0.75710   0.46680   0.04188   0.00000  Uiso   1.00
C511   C     0.81986   0.42985   0.75027   0.00000  Uiso   1.00
C512   C     0.92977   0.18028   0.24953   0.00000  Uiso   1.00
C513   C     0.57032   0.31963   0.75043   0.00000  Uiso   1.00
C514   C     0.82033   0.43036   0.25039   0.00000  Uiso   1.00
C515   C     0.67999   0.06994   0.74997   0.00000  Uiso   1.00
C516   C     0.57001   0.31995   0.25004   0.00000  Uiso   1.00
C517   C     0.93004   0.18000   0.74993   0.00000  Uiso   1.00
C518   C     0.67992   0.43010   0.74993   0.00000  Uiso   1.00
C519   C     0.82012   0.06982   0.25035   0.00000  Uiso   1.00
C520   C     0.93010   0.32000   0.74993   0.00000  Uiso   1.00
C521   C     0.73130   0.47168   0.95826   0.00000  Uiso   1.00
C522   C     0.57010   0.18014   0.24996   0.00000  Uiso   1.00
C523   C     0.82000   0.06995   0.74999   0.00000  Uiso   1.00
C524   C     0.68021   0.42982   0.24957   0.00000  Uiso   1.00
C525   C     0.56974   0.17979   0.74954   0.00000  Uiso   1.00
C526   C     0.92979   0.31972   0.24977   0.00000  Uiso   1.00
C527   C     0.64362   0.38322   0.21474   0.00000  Uiso   1.00
C528   C     0.88294   0.08987   0.73455   0.00000  Uiso   1.00
C529   C     0.63126   0.15833   0.22993   0.00000  Uiso   1.00
C530   C     0.87960   0.35204   0.78303   0.00000  Uiso   1.00
C531   C     0.84994   0.12250   0.21853   0.00000  Uiso   1.00
C532   C     0.96953   0.26400   0.04169   0.00000  Uiso   1.00
C533   C     0.61527   0.41144   0.74308   0.00000  Uiso   1.00
C534   C     0.91122   0.38362   0.26222   0.00000  Uiso   1.00
C535   C     0.61649   0.14380   0.78418   0.00000  Uiso   1.00
C536   C     0.64333   0.11639   0.78454   0.00000  Uiso   1.00
C537   C     0.88433   0.41104   0.26186   0.00000  Uiso   1.00
C538   C     0.58844   0.38408   0.74261   0.00000  Uiso   1.00
C539   C     0.87735   0.14942   0.21802   0.00000  Uiso   1.00
C540   C     0.85209   0.37889   0.78307   0.00000  Uiso   1.00
C541   C     0.65827   0.13098   0.22980   0.00000  Uiso   1.00
C542   C     0.90988   0.11726   0.73386   0.00000  Uiso   1.00
C543   C     0.96933   0.23664   0.95830   0.00000  Uiso   1.00
C544   C     0.61686   0.35573   0.21496   0.00000  Uiso   1.00
C545   C     0.86734   0.15977   0.76590   0.00000  Uiso   1.00
C546   C     0.60697   0.36614   0.28477   0.00000  Uiso   1.00
C547   C     0.87097   0.39807   0.71763   0.00000  Uiso   1.00
C548   C     0.61896   0.09190   0.27019   0.00000  Uiso   1.00
C549   C     0.63507   0.33813   0.75874   0.00000  Uiso   1.00
C550   C     0.89951   0.12795   0.28151   0.00000  Uiso   1.00
C551   C     0.63314   0.10585   0.71475   0.00000  Uiso   1.00
C552   C     0.83896   0.36642   0.23845   0.00000  Uiso   1.00
C553   C     0.86594   0.33909   0.23874   0.00000  Uiso   1.00
C554   C     0.50181   0.28266   0.54174   0.00000  Uiso   1.00
C555   C     0.60583   0.13279   0.71475   0.00000  Uiso   1.00
C556   C     0.87233   0.10082   0.28178   0.00000  Uiso   1.00
C557   C     0.66206   0.36544   0.75873   0.00000  Uiso   1.00
C558   C     0.59217   0.11945   0.27073   0.00000  Uiso   1.00
C559   C     0.89804   0.37085   0.71733   0.00000  Uiso   1.00
C560   C     0.63390   0.39345   0.28446   0.00000  Uiso   1.00
C561   C     0.83996   0.13285   0.76530   0.00000  Uiso   1.00
C562   C     0.59842   0.34772   0.24991   0.00000  Uiso   1.00
C563   C     0.90197   0.15189   0.74987   0.00000  Uiso   1.00
C564   C     0.65171   0.09785   0.24954   0.00000  Uiso   1.00
H565   H     0.73592   0.05573   0.02532   0.00000  Uiso   1.00
H566   H     0.53067   0.20230   0.47594   0.00000  Uiso   1.00
H567   H     0.69221   0.49043   0.52547   0.00000  Uiso   1.00
H568   H     0.70178   0.03464   0.47404   0.00000  Uiso   1.00
H569   H     0.98609   0.19248   0.52637   0.00000  Uiso   1.00
H570   H     0.96253   0.29741   0.47352   0.00000  Uiso   1.00
H571   H     0.80707   0.01220   0.52585   0.00000  Uiso   1.00
H572   H     0.79751   0.46722   0.47495   0.00000  Uiso   1.00
H573   H     0.67630   0.42494   0.13505   0.00000  Uiso   1.00
H574   H     0.92676   0.01035   0.71815   0.00000  Uiso   1.00
H575   H     0.65119   0.21471   0.15571   0.00000  Uiso   1.00
H576   H     0.78317   0.04689   0.97524   0.00000  Uiso   1.00
H577   H     0.89093   0.32528   0.87579   0.00000  Uiso   1.00
H578   H     0.81686   0.11685   0.12747   0.00000  Uiso   1.00
H579   H     0.61372   0.49238   0.69728   0.00000  Uiso   1.00
H580   H     0.99245   0.42650   0.26993   0.00000  Uiso   1.00
H581   H     0.58763   0.16863   0.87297   0.00000  Uiso   1.00
H582   H     0.71423   0.10414   0.84547   0.00000  Uiso   1.00
H583   H     0.91336   0.47738   0.32209   0.00000  Uiso   1.00
H584   H     0.50289   0.41779   0.74546   0.00000  Uiso   1.00
H585   H     0.85056   0.21359   0.15406   0.00000  Uiso   1.00
H586   H     0.80240   0.41235   0.85749   0.00000  Uiso   1.00
H587   H     0.55241   0.22532   0.02518   0.00000  Uiso   1.00
H588   H     0.73635   0.17164   0.20127   0.00000  Uiso   1.00
H589   H     0.97109   0.09303   0.66564   0.00000  Uiso   1.00
H590   H     0.59765   0.33685   0.12141   0.00000  Uiso   1.00
H591   H     0.84417   0.22104   0.83444   0.00000  Uiso   1.00
H592   H     0.53636   0.35426   0.34598   0.00000  Uiso   1.00
H593   H     0.89400   0.46203   0.65207   0.00000  Uiso   1.00
H594   H     0.60062   0.03564   0.34498   0.00000  Uiso   1.00
H595   H     0.66525   0.26814   0.81315   0.00000  Uiso   1.00
H596   H     0.93099   0.13381   0.37321   0.00000  Uiso   1.00
H597   H     0.65243   0.08964   0.62064   0.00000  Uiso   1.00
H598   H     0.55270   0.27440   0.97466   0.00000  Uiso   1.00
H599   H     0.75606   0.37172   0.19598   0.00000  Uiso   1.00
H600   H     0.85283   0.24814   0.23501   0.00000  Uiso   1.00
H601   H     0.54828   0.11648   0.64067   0.00000  Uiso   1.00
H602   H     0.84214   0.04888   0.35580   0.00000  Uiso   1.00
H603   H     0.74665   0.36895   0.79712   0.00000  Uiso   1.00
H604   H     0.52317   0.13305   0.33341   0.00000  Uiso   1.00
H605   H     0.92604   0.36273   0.62456   0.00000  Uiso   1.00
H606   H     0.66341   0.41649   0.37362   0.00000  Uiso   1.00
H607   H     0.76044   0.17677   0.78167   0.00000  Uiso   1.00
H608   H     0.71330   0.11802   0.09816   0.00000  Uiso   1.00
H609   H     0.76300   0.44201   0.02591   0.00000  Uiso   1.00
H610   H     0.82761   0.09646   0.90286   0.00000  Uiso   1.00
H611   H     0.60845   0.18942   0.09740   0.00000  Uiso   1.00
H612   H     0.59742   0.27511   0.85167   0.00000  Uiso   1.00
H613   H     0.78521   0.38001   0.09858   0.00000  Uiso   1.00
H614   H     0.67381   0.40154   0.89988   0.00000  Uiso   1.00
H615   H     0.89043   0.30937   0.09890   0.00000  Uiso   1.00
H616   H     0.88973   0.19177   0.90139   0.00000  Uiso   1.00
H617   H     0.50760   0.37445   0.59664   0.00000  Uiso   1.00
H618   H     0.55211   0.13903   0.40210   0.00000  Uiso   1.00
H619   H     0.62535   0.48854   0.59641   0.00000  Uiso   1.00
H620   H     0.71689   0.45056   0.97405   0.00000  Uiso   1.00
H621   H     0.65223   0.07698   0.39979   0.00000  Uiso   1.00
H622   H     0.97220   0.12824   0.59836   0.00000  Uiso   1.00
H623   H     0.92078   0.34610   0.39850   0.00000  Uiso   1.00
H624   H     0.87080   0.03022   0.59784   0.00000  Uiso   1.00
H625   H     0.84276   0.45915   0.35315   0.00000  Uiso   1.00
H626   H     0.94640   0.27473   0.02571   0.00000  Uiso   1.00
H627   H     0.94612   0.22621   0.97432   0.00000  Uiso   1.00
H628   H     0.50598   0.30759   0.52545   0.00000  Uiso   1.00
O629   O     0.75000   0.00000   0.25000   0.00000  Uiso   1.00
O630   O     0.75000   0.46964   0.66317   0.00000  Uiso   1.00
O631   O     0.78182   0.38052   0.20136   0.00000  Uiso   1.00
O632   O     0.84802   0.29802   0.19002   0.00000  Uiso   1.00
O633   O     0.85933   0.27183   0.24853   0.00000  Uiso   1.00
O634   O     0.58387   0.16771   0.66243   0.00000  Uiso   1.00
O635   O     0.56210   0.10967   0.66509   0.00000  Uiso   1.00
O636   O     0.89861   0.05548   0.32110   0.00000  Uiso   1.00
O637   O     0.83929   0.06816   0.33495   0.00000  Uiso   1.00
O638   O     0.71531   0.32978   0.75241   0.00000  Uiso   1.00
O639   O     0.72057   0.37764   0.79390   0.00000  Uiso   1.00
O640   O     0.53944   0.08634   0.28763   0.00000  Uiso   1.00
O641   O     0.96964   0.25000   0.33683   0.00000  Uiso   1.00
O642   O     0.54582   0.14067   0.31867   0.00000  Uiso   1.00
O643   O     0.95516   0.36283   0.68688   0.00000  Uiso   1.00
O644   O     0.90695   0.36600   0.64557   0.00000  Uiso   1.00
O645   O     0.63345   0.44747   0.32104   0.00000  Uiso   1.00
O646   O     0.65920   0.39879   0.35145   0.00000  Uiso   1.00
O647   O     0.78700   0.11998   0.80171   0.00000  Uiso   1.00
O648   O     0.78559   0.17407   0.76971   0.00000  Uiso   1.00
O649   O     0.74855   0.07408   0.13341   0.00000  Uiso   1.00
O650   O     0.71572   0.09486   0.08226   0.00000  Uiso   1.00
O651   O     0.77763   0.06985   0.86806   0.00000  Uiso   1.00
O652   O     0.53036   0.25000   0.66317   0.00000  Uiso   1.00
O653   O     0.81709   0.07544   0.91837   0.00000  Uiso   1.00
O654   O     0.57248   0.23198   0.13376   0.00000  Uiso   1.00
O655   O     0.58637   0.19702   0.08159   0.00000  Uiso   1.00
O656   O     0.58366   0.29954   0.91437   0.00000  Uiso   1.00
O657   O     0.57404   0.26376   0.86175   0.00000  Uiso   1.00
O658   O     0.75472   0.42593   0.13578   0.00000  Uiso   1.00
O659   O     0.78195   0.40276   0.08222   0.00000  Uiso   1.00
O660   O     0.72417   0.42899   0.86654   0.00000  Uiso   1.00
O661   O     0.68385   0.42248   0.91590   0.00000  Uiso   1.00
O662   O     0.92714   0.26686   0.13439   0.00000  Uiso   1.00
O663   O     0.50000   0.21964   0.83683   0.00000  Uiso   1.00
O664   O     0.91248   0.30222   0.08281   0.00000  Uiso   1.00
O665   O     0.92711   0.23323   0.86538   0.00000  Uiso   1.00
O666   O     0.91179   0.19891   0.91750   0.00000  Uiso   1.00
O667   O     0.51944   0.32158   0.63517   0.00000  Uiso   1.00
O668   O     0.50303   0.35169   0.58063   0.00000  Uiso   1.00
O669   O     0.56204   0.19883   0.37583   0.00000  Uiso   1.00
O670   O     0.53544   0.15722   0.41545   0.00000  Uiso   1.00
O671   O     0.67845   0.48037   0.63578   0.00000  Uiso   1.00
O672   O     0.64806   0.49306   0.58028   0.00000  Uiso   1.00
O673   O     0.67899   0.02589   0.36700   0.00000  Uiso   1.00
O674   O     0.50000   0.28036   0.16317   0.00000  Uiso   1.00
O675   O     0.67331   0.06708   0.41572   0.00000  Uiso   1.00
O676   O     0.99777   0.17651   0.63631   0.00000  Uiso   1.00
O677   O     0.97380   0.15122   0.58210   0.00000  Uiso   1.00
O678   O     0.97285   0.32029   0.36664   0.00000  Uiso   1.00
O679   O     0.93090   0.32531   0.41465   0.00000  Uiso   1.00
O680   O     0.82354   0.00280   0.63571   0.00000  Uiso   1.00
O681   O     0.84781   0.02786   0.58159   0.00000  Uiso   1.00
O682   O     0.82271   0.43589   0.41440   0.00000  Uiso   1.00
O683   O     0.82194   0.47470   0.36326   0.00000  Uiso   1.00
O684   O     0.78036   0.00000   0.83683   0.00000  Uiso   1.00
O685   O     0.71964   0.00000   0.16317   0.00000  Uiso   1.00
O686   O     0.50000   0.28036   0.83683   0.00000  Uiso   1.00
O687   O     0.50000   0.21964   0.16317   0.00000  Uiso   1.00
O688   O     0.71964   0.00000   0.83683   0.00000  Uiso   1.00
O689   O     0.75000   0.00000   0.75000   0.00000  Uiso   1.00
O690   O     0.78036   0.00000   0.16317   0.00000  Uiso   1.00
O691   O     0.70726   0.07307   0.27282   0.00000  Uiso   1.00
O692   O     0.79275   0.42693   0.72718   0.00000  Uiso   1.00
O693   O     0.92693   0.20726   0.27282   0.00000  Uiso   1.00
O694   O     0.57307   0.29275   0.72718   0.00000  Uiso   1.00
O695   O     0.79275   0.42693   0.27282   0.00000  Uiso   1.00
O696   O     0.70726   0.07307   0.72718   0.00000  Uiso   1.00
O697   O     0.57307   0.29275   0.27282   0.00000  Uiso   1.00
O698   O     0.92693   0.20726   0.72718   0.00000  Uiso   1.00
O699   O     0.70726   0.42693   0.72718   0.00000  Uiso   1.00
O700   O     0.50000   0.25000   0.25000   0.00000  Uiso   1.00
O701   O     0.79275   0.07307   0.27282   0.00000  Uiso   1.00
O702   O     0.92693   0.29275   0.72718   0.00000  Uiso   1.00
O703   O     0.57307   0.20726   0.27282   0.00000  Uiso   1.00
O704   O     0.79275   0.07307   0.72718   0.00000  Uiso   1.00
O705   O     0.70726   0.42693   0.27282   0.00000  Uiso   1.00
O706   O     0.57307   0.20726   0.72718   0.00000  Uiso   1.00
O707   O     0.92693   0.29275   0.27282   0.00000  Uiso   1.00
O708   O     0.95726   0.32307   0.77282   0.00000  Uiso   1.00
O709   O     0.54275   0.17693   0.22718   0.00000  Uiso   1.00
O710   O     0.67693   0.45726   0.77282   0.00000  Uiso   1.00
O711   O     0.50000   0.25000   0.75000   0.00000  Uiso   1.00
O712   O     0.82307   0.04275   0.22718   0.00000  Uiso   1.00
O713   O     0.54275   0.17693   0.77282   0.00000  Uiso   1.00
O714   O     0.95726   0.32307   0.22718   0.00000  Uiso   1.00
O715   O     0.82307   0.04275   0.77282   0.00000  Uiso   1.00
O716   O     0.67693   0.45726   0.22718   0.00000  Uiso   1.00
O717   O     0.95726   0.17693   0.22718   0.00000  Uiso   1.00
O718   O     0.54275   0.32307   0.77282   0.00000  Uiso   1.00
O719   O     0.67693   0.04275   0.22718   0.00000  Uiso   1.00
O720   O     0.82307   0.45726   0.77282   0.00000  Uiso   1.00
O721   O     0.54275   0.32307   0.22718   0.00000  Uiso   1.00
O722   O     0.75000   0.46964   0.33683   0.00000  Uiso   1.00
O723   O     0.95726   0.17693   0.77282   0.00000  Uiso   1.00
O724   O     0.82307   0.45726   0.22718   0.00000  Uiso   1.00
O725   O     0.67693   0.04275   0.77282   0.00000  Uiso   1.00
O726   O     0.68531   0.36688   0.16611   0.00000  Uiso   1.00
O727   O     0.66065   0.42347   0.15923   0.00000  Uiso   1.00
O728   O     0.86996   0.03700   0.69799   0.00000  Uiso   1.00
O729   O     0.92407   0.03547   0.73017   0.00000  Uiso   1.00
O730   O     0.63067   0.22220   0.22126   0.00000  Uiso   1.00
O731   O     0.64841   0.18989   0.16834   0.00000  Uiso   1.00
O732   O     0.88791   0.29528   0.81401   0.00000  Uiso   1.00
O733   O     0.75000   0.03036   0.66317   0.00000  Uiso   1.00
O734   O     0.88711   0.34408   0.85462   0.00000  Uiso   1.00
O735   O     0.79119   0.11624   0.19149   0.00000  Uiso   1.00
O736   O     0.83712   0.11922   0.14738   0.00000  Uiso   1.00
O737   O     0.58257   0.46614   0.75163   0.00000  Uiso   1.00
O738   O     0.62313   0.46674   0.70183   0.00000  Uiso   1.00
O739   O     0.96544   0.37270   0.29728   0.00000  Uiso   1.00
O740   O     0.96671   0.42343   0.25953   0.00000  Uiso   1.00
O741   O     0.61859   0.19812   0.82013   0.00000  Uiso   1.00
O742   O     0.59133   0.15057   0.85103   0.00000  Uiso   1.00
O743   O     0.64892   0.10188   0.85078   0.00000  Uiso   1.00
O744   O     0.53036   0.25000   0.33683   0.00000  Uiso   1.00
O745   O     0.70284   0.10967   0.81934   0.00000  Uiso   1.00
O746   O     0.88797   0.47520   0.25794   0.00000  Uiso   1.00
O747   O     0.90826   0.45110   0.31463   0.00000  Uiso   1.00
O748   O     0.53767   0.38088   0.70120   0.00000  Uiso   1.00
O749   O     0.52848   0.41410   0.75603   0.00000  Uiso   1.00
O750   O     0.90671   0.18255   0.16843   0.00000  Uiso   1.00
O751   O     0.84652   0.19572   0.17607   0.00000  Uiso   1.00
O752   O     0.81038   0.35380   0.82747   0.00000  Uiso   1.00
O753   O     0.82052   0.41445   0.83539   0.00000  Uiso   1.00
O754   O     0.70677   0.11435   0.18866   0.00000  Uiso   1.00
O755   O     0.96964   0.25000   0.66317   0.00000  Uiso   1.00
O756   O     0.71263   0.17029   0.21635   0.00000  Uiso   1.00
O757   O     0.97425   0.11599   0.73070   0.00000  Uiso   1.00
O758   O     0.94546   0.09686   0.67602   0.00000  Uiso   1.00
O759   O     0.60679   0.30174   0.17931   0.00000  Uiso   1.00
O760   O     0.60302   0.35384   0.14391   0.00000  Uiso   1.00
O761   O     0.86526   0.22402   0.76862   0.00000  Uiso   1.00
O762   O     0.84791   0.19543   0.82402   0.00000  Uiso   1.00
O763   O     0.60165   0.35068   0.35077   0.00000  Uiso   1.00
O764   O     0.54765   0.35995   0.31985   0.00000  Uiso   1.00
O765   O     0.84019   0.42688   0.66613   0.00000  Uiso   1.00
O766   O     0.75000   0.03036   0.33683   0.00000  Uiso   1.00
O767   O     0.89889   0.44534   0.67492   0.00000  Uiso   1.00
O768   O     0.61855   0.02804   0.27855   0.00000  Uiso   1.00
O769   O     0.60334   0.06045   0.33230   0.00000  Uiso   1.00
O770   O     0.64089   0.27478   0.74886   0.00000  Uiso   1.00
O771   O     0.65939   0.29476   0.80807   0.00000  Uiso   1.00
O772   O     0.95756   0.13588   0.30970   0.00000  Uiso   1.00
O773   O     0.91113   0.13087   0.35294   0.00000  Uiso   1.00
O774   O     0.64623   0.05315   0.67791   0.00000  Uiso   1.00
O775   O     0.64629   0.10591   0.64352   0.00000  Uiso   1.00
O776   O     0.78584   0.33008   0.23927   0.00000  Uiso   1.00
Zn777  Zn    0.70660   0.00000   0.21760   0.00000  Uiso   1.00
Zn778  Zn    0.54340   0.25000   0.28240   0.00000  Uiso   1.00
Zn779  Zn    0.75000   0.45660   0.71760   0.00000  Uiso   1.00
Zn780  Zn    0.75000   0.04340   0.28240   0.00000  Uiso   1.00
Zn781  Zn    0.54340   0.25000   0.71760   0.00000  Uiso   1.00
Zn782  Zn    0.95660   0.25000   0.28240   0.00000  Uiso   1.00
Zn783  Zn    0.75000   0.04340   0.71760   0.00000  Uiso   1.00
Zn784  Zn    0.75000   0.45660   0.28240   0.00000  Uiso   1.00
Zn785  Zn    0.79340   0.00000   0.78240   0.00000  Uiso   1.00
Zn786  Zn    0.50000   0.20660   0.21760   0.00000  Uiso   1.00
Zn787  Zn    0.50000   0.29340   0.78240   0.00000  Uiso   1.00
Zn788  Zn    0.79340   0.00000   0.21760   0.00000  Uiso   1.00
Zn789  Zn    0.70660   0.00000   0.78240   0.00000  Uiso   1.00
Zn790  Zn    0.50000   0.29340   0.21760   0.00000  Uiso   1.00
Zn791  Zn    0.50000   0.20660   0.78240   0.00000  Uiso   1.00
Zn792  Zn    0.95660   0.25000   0.71760   0.00000  Uiso   1.00
C793   C     0.24186   0.53108   0.04151   0.00000  Uiso   1.00
C794   C     0.01605   0.72289   0.45951   0.00000  Uiso   1.00
C795   C     0.34804   0.90179   0.75035   0.00000  Uiso   1.00
C796   C     0.40204   0.65180   0.24945   0.00000  Uiso   1.00
C797   C     0.09851   0.84762   0.75019   0.00000  Uiso   1.00
C798   C     0.34844   0.90228   0.24973   0.00000  Uiso   1.00
C799   C     0.15166   0.59781   0.74973   0.00000  Uiso   1.00
C800   C     0.09801   0.65186   0.74936   0.00000  Uiso   1.00
C801   C     0.40178   0.84787   0.25063   0.00000  Uiso   1.00
C802   C     0.15197   0.90184   0.75054   0.00000  Uiso   1.00
C803   C     0.34770   0.59841   0.25039   0.00000  Uiso   1.00
C804   C     0.40205   0.84805   0.75004   0.00000  Uiso   1.00
C805   C     0.21710   0.99533   0.54168   0.00000  Uiso   1.00
C806   C     0.09844   0.65230   0.25047   0.00000  Uiso   1.00
C807   C     0.34811   0.59800   0.74999   0.00000  Uiso   1.00
C808   C     0.15186   0.90195   0.24945   0.00000  Uiso   1.00
C809   C     0.24992   0.99943   0.10266   0.00000  Uiso   1.00
C810   C     0.25013   0.99946   0.89754   0.00000  Uiso   1.00
C811   C     0.49976   0.74993   0.10258   0.00000  Uiso   1.00
C812   C     0.49969   0.75005   0.89739   0.00000  Uiso   1.00
C813   C     0.49970   0.75002   0.60283   0.00000  Uiso   1.00
C814   C     0.00020   0.75053   0.39773   0.00000  Uiso   1.00
C815   C     0.24975   0.99988   0.60273   0.00000  Uiso   1.00
C816   C     0.22267   0.51984   0.45826   0.00000  Uiso   1.00
C817   C     0.24975   0.50013   0.39749   0.00000  Uiso   1.00
C818   C     0.16488   0.89039   0.17888   0.00000  Uiso   1.00
C819   C     0.39141   0.55260   0.71957   0.00000  Uiso   1.00
C820   C     0.13650   0.69229   0.20676   0.00000  Uiso   1.00
C821   C     0.38514   0.82837   0.81773   0.00000  Uiso   1.00
C822   C     0.32397   0.61908   0.18543   0.00000  Uiso   1.00
C823   C     0.10557   0.94964   0.73283   0.00000  Uiso   1.00
C824   C     0.44935   0.89245   0.27435   0.00000  Uiso   1.00
C825   C     0.10942   0.66603   0.81940   0.00000  Uiso   1.00
C826   C     0.16466   0.60896   0.82046   0.00000  Uiso   1.00
C827   C     0.49109   0.71750   0.54227   0.00000  Uiso   1.00
C828   C     0.39313   0.94791   0.27756   0.00000  Uiso   1.00
C829   C     0.05023   0.89293   0.73147   0.00000  Uiso   1.00
C830   C     0.37834   0.67680   0.18609   0.00000  Uiso   1.00
C831   C     0.32616   0.88127   0.81630   0.00000  Uiso   1.00
C832   C     0.19391   0.63752   0.21018   0.00000  Uiso   1.00
C833   C     0.44535   0.61036   0.71394   0.00000  Uiso   1.00
C834   C     0.10858   0.83508   0.17870   0.00000  Uiso   1.00
C835   C     0.36046   0.69523   0.78575   0.00000  Uiso   1.00
C836   C     0.08580   0.85855   0.32071   0.00000  Uiso   1.00
C837   C     0.36845   0.92428   0.68482   0.00000  Uiso   1.00
C838   C     0.47792   0.77674   0.45808   0.00000  Uiso   1.00
C839   C     0.11380   0.55797   0.29341   0.00000  Uiso   1.00
C840   C     0.14472   0.80045   0.77114   0.00000  Uiso   1.00
C841   C     0.42483   0.63183   0.31512   0.00000  Uiso   1.00
C842   C     0.14228   0.58628   0.67801   0.00000  Uiso   1.00
C843   C     0.30074   0.85749   0.22667   0.00000  Uiso   1.00
C844   C     0.35736   0.80197   0.22381   0.00000  Uiso   1.00
C845   C     0.08322   0.63846   0.67943   0.00000  Uiso   1.00
C846   C     0.37127   0.57331   0.31353   0.00000  Uiso   1.00
C847   C     0.20079   0.85612   0.76781   0.00000  Uiso   1.00
C848   C     0.05747   0.61408   0.29242   0.00000  Uiso   1.00
C849   C     0.28213   0.50717   0.54187   0.00000  Uiso   1.00
C850   C     0.42214   0.86627   0.68277   0.00000  Uiso   1.00
C851   C     0.14161   0.91511   0.31995   0.00000  Uiso   1.00
C852   C     0.30267   0.64140   0.78024   0.00000  Uiso   1.00
C853   C     0.23581   0.56779   0.10135   0.00000  Uiso   1.00
C854   C     0.28788   0.55836   0.89948   0.00000  Uiso   1.00
C855   C     0.06388   0.72173   0.10126   0.00000  Uiso   1.00
C856   C     0.06405   0.77717   0.89821   0.00000  Uiso   1.00
C857   C     0.26444   0.93096   0.10232   0.00000  Uiso   1.00
C858   C     0.21320   0.94005   0.89790   0.00000  Uiso   1.00
C859   C     0.43539   0.77755   0.10199   0.00000  Uiso   1.00
C860   C     0.27672   0.98180   0.45878   0.00000  Uiso   1.00
C861   C     0.43509   0.72298   0.89803   0.00000  Uiso   1.00
C862   C     0.00924   0.81954   0.60149   0.00000  Uiso   1.00
C863   C     0.03964   0.69271   0.40124   0.00000  Uiso   1.00
C864   C     0.18034   0.98890   0.60160   0.00000  Uiso   1.00
C865   C     0.19050   0.53733   0.39801   0.00000  Uiso   1.00
C866   C     0.48849   0.68077   0.60256   0.00000  Uiso   1.00
C867   C     0.46128   0.80869   0.39749   0.00000  Uiso   1.00
C868   C     0.31883   0.51213   0.60206   0.00000  Uiso   1.00
C869   C     0.30841   0.96225   0.39877   0.00000  Uiso   1.00
C870   C     0.24241   0.53205   0.08198   0.00000  Uiso   1.00
C871   C     0.26886   0.52717   0.91845   0.00000  Uiso   1.00
C872   C     0.03030   0.73597   0.08193   0.00000  Uiso   1.00
C873   C     0.26879   0.52606   0.95893   0.00000  Uiso   1.00
C874   C     0.03038   0.76372   0.91795   0.00000  Uiso   1.00
C875   C     0.25713   0.96641   0.08244   0.00000  Uiso   1.00
C876   C     0.23158   0.97119   0.91774   0.00000  Uiso   1.00
C877   C     0.46897   0.76382   0.08224   0.00000  Uiso   1.00
C878   C     0.46877   0.73658   0.91775   0.00000  Uiso   1.00
C879   C     0.00367   0.78337   0.58222   0.00000  Uiso   1.00
C880   C     0.01852   0.72291   0.41917   0.00000  Uiso   1.00
C881   C     0.21645   0.99463   0.58222   0.00000  Uiso   1.00
C882   C     0.22179   0.51909   0.41776   0.00000  Uiso   1.00
C883   C     0.49316   0.71678   0.58273   0.00000  Uiso   1.00
C884   C     0.02943   0.73604   0.04140   0.00000  Uiso   1.00
C885   C     0.47990   0.77787   0.41759   0.00000  Uiso   1.00
C886   C     0.28288   0.50633   0.58239   0.00000  Uiso   1.00
C887   C     0.27755   0.98146   0.41825   0.00000  Uiso   1.00
C888   C     0.24946   0.99883   0.02145   0.00000  Uiso   1.00
C889   C     0.24985   0.99881   0.97884   0.00000  Uiso   1.00
C890   C     0.49944   0.75012   0.02129   0.00000  Uiso   1.00
C891   C     0.49940   0.75028   0.97866   0.00000  Uiso   1.00
C892   C     0.49579   0.75003   0.52174   0.00000  Uiso   1.00
C893   C     0.49613   0.74966   0.47908   0.00000  Uiso   1.00
C894   C     0.24963   0.50138   0.52150   0.00000  Uiso   1.00
C895   C     0.02955   0.76390   0.95851   0.00000  Uiso   1.00
C896   C     0.24974   0.50113   0.47882   0.00000  Uiso   1.00
C897   C     0.24996   0.50002   0.35511   0.00000  Uiso   1.00
C898   C     0.24976   0.99999   0.64498   0.00000  Uiso   1.00
C899   C     0.00008   0.74952   0.35521   0.00000  Uiso   1.00
C900   C     0.49995   0.75023   0.64500   0.00000  Uiso   1.00
C901   C     0.49989   0.75001   0.85507   0.00000  Uiso   1.00
C902   C     0.49999   0.74998   0.14492   0.00000  Uiso   1.00
C903   C     0.25003   0.99993   0.85513   0.00000  Uiso   1.00
C904   C     0.24998   0.99987   0.14494   0.00000  Uiso   1.00
C905   C     0.17992   0.56987   0.25005   0.00000  Uiso   1.00
C906   C     0.25710   0.96680   0.04188   0.00000  Uiso   1.00
C907   C     0.31986   0.92985   0.75027   0.00000  Uiso   1.00
C908   C     0.42977   0.68028   0.24953   0.00000  Uiso   1.00
C909   C     0.07032   0.81963   0.75043   0.00000  Uiso   1.00
C910   C     0.32033   0.93036   0.25039   0.00000  Uiso   1.00
C911   C     0.17999   0.56994   0.74997   0.00000  Uiso   1.00
C912   C     0.07001   0.81995   0.25004   0.00000  Uiso   1.00
C913   C     0.43004   0.68000   0.74993   0.00000  Uiso   1.00
C914   C     0.17992   0.93010   0.74993   0.00000  Uiso   1.00
C915   C     0.32012   0.56982   0.25035   0.00000  Uiso   1.00
C916   C     0.43010   0.82000   0.74993   0.00000  Uiso   1.00
C917   C     0.23130   0.97168   0.95826   0.00000  Uiso   1.00
C918   C     0.07010   0.68014   0.24996   0.00000  Uiso   1.00
C919   C     0.32000   0.56995   0.74999   0.00000  Uiso   1.00
C920   C     0.18021   0.92982   0.24957   0.00000  Uiso   1.00
C921   C     0.06974   0.67979   0.74954   0.00000  Uiso   1.00
C922   C     0.42979   0.81972   0.24977   0.00000  Uiso   1.00
C923   C     0.14362   0.88322   0.21474   0.00000  Uiso   1.00
C924   C     0.38294   0.58987   0.73455   0.00000  Uiso   1.00
C925   C     0.13126   0.65833   0.22993   0.00000  Uiso   1.00
C926   C     0.37960   0.85204   0.78303   0.00000  Uiso   1.00
C927   C     0.34994   0.62250   0.21853   0.00000  Uiso   1.00
C928   C     0.46953   0.76400   0.04169   0.00000  Uiso   1.00
C929   C     0.11527   0.91144   0.74308   0.00000  Uiso   1.00
C930   C     0.41122   0.88362   0.26222   0.00000  Uiso   1.00
C931   C     0.11649   0.64380   0.78418   0.00000  Uiso   1.00
C932   C     0.14333   0.61639   0.78454   0.00000  Uiso   1.00
C933   C     0.38433   0.91104   0.26186   0.00000  Uiso   1.00
C934   C     0.08844   0.88408   0.74261   0.00000  Uiso   1.00
C935   C     0.37735   0.64942   0.21802   0.00000  Uiso   1.00
C936   C     0.35209   0.87889   0.78307   0.00000  Uiso   1.00
C937   C     0.15827   0.63098   0.22980   0.00000  Uiso   1.00
C938   C     0.40988   0.61726   0.73386   0.00000  Uiso   1.00
C939   C     0.46933   0.73664   0.95830   0.00000  Uiso   1.00
C940   C     0.11686   0.85573   0.21496   0.00000  Uiso   1.00
C941   C     0.36734   0.65977   0.76590   0.00000  Uiso   1.00
C942   C     0.10697   0.86614   0.28477   0.00000  Uiso   1.00
C943   C     0.37097   0.89807   0.71763   0.00000  Uiso   1.00
C944   C     0.11896   0.59190   0.27019   0.00000  Uiso   1.00
C945   C     0.13507   0.83813   0.75874   0.00000  Uiso   1.00
C946   C     0.39951   0.62795   0.28151   0.00000  Uiso   1.00
C947   C     0.13314   0.60585   0.71475   0.00000  Uiso   1.00
C948   C     0.33896   0.86642   0.23845   0.00000  Uiso   1.00
C949   C     0.36594   0.83909   0.23874   0.00000  Uiso   1.00
C950   C     0.00181   0.78266   0.54174   0.00000  Uiso   1.00
C951   C     0.10583   0.63279   0.71475   0.00000  Uiso   1.00
C952   C     0.37233   0.60082   0.28178   0.00000  Uiso   1.00
C953   C     0.16206   0.86544   0.75873   0.00000  Uiso   1.00
C954   C     0.09217   0.61945   0.27073   0.00000  Uiso   1.00
C955   C     0.39804   0.87085   0.71733   0.00000  Uiso   1.00
C956   C     0.13390   0.89345   0.28446   0.00000  Uiso   1.00
C957   C     0.33996   0.63285   0.76530   0.00000  Uiso   1.00
C958   C     0.09842   0.84772   0.24991   0.00000  Uiso   1.00
C959   C     0.40197   0.65189   0.74987   0.00000  Uiso   1.00
C960   C     0.15171   0.59785   0.24954   0.00000  Uiso   1.00
H961   H     0.23592   0.55573   0.02532   0.00000  Uiso   1.00
H962   H     0.03067   0.70230   0.47594   0.00000  Uiso   1.00
H963   H     0.19221   0.99043   0.52547   0.00000  Uiso   1.00
H964   H     0.20178   0.53464   0.47404   0.00000  Uiso   1.00
H965   H     0.48609   0.69248   0.52637   0.00000  Uiso   1.00
H966   H     0.46253   0.79741   0.47352   0.00000  Uiso   1.00
H967   H     0.30707   0.51220   0.52585   0.00000  Uiso   1.00
H968   H     0.29751   0.96722   0.47495   0.00000  Uiso   1.00
H969   H     0.17630   0.92494   0.13505   0.00000  Uiso   1.00
H970   H     0.42676   0.51035   0.71815   0.00000  Uiso   1.00
H971   H     0.15119   0.71471   0.15571   0.00000  Uiso   1.00
H972   H     0.28317   0.54689   0.97524   0.00000  Uiso   1.00
H973   H     0.39093   0.82528   0.87579   0.00000  Uiso   1.00
H974   H     0.31686   0.61685   0.12747   0.00000  Uiso   1.00
H975   H     0.11372   0.99238   0.69728   0.00000  Uiso   1.00
H976   H     0.49245   0.92650   0.26993   0.00000  Uiso   1.00
H977   H     0.08763   0.66863   0.87297   0.00000  Uiso   1.00
H978   H     0.21423   0.60414   0.84547   0.00000  Uiso   1.00
H979   H     0.41336   0.97738   0.32209   0.00000  Uiso   1.00
H980   H     0.00289   0.91779   0.74546   0.00000  Uiso   1.00
H981   H     0.35056   0.71359   0.15406   0.00000  Uiso   1.00
H982   H     0.30240   0.91235   0.85749   0.00000  Uiso   1.00
H983   H     0.05241   0.72532   0.02518   0.00000  Uiso   1.00
H984   H     0.23635   0.67164   0.20127   0.00000  Uiso   1.00
H985   H     0.47109   0.59303   0.66564   0.00000  Uiso   1.00
H986   H     0.09765   0.83685   0.12141   0.00000  Uiso   1.00
H987   H     0.34417   0.72104   0.83444   0.00000  Uiso   1.00
H988   H     0.03636   0.85426   0.34598   0.00000  Uiso   1.00
H989   H     0.39400   0.96203   0.65207   0.00000  Uiso   1.00
H990   H     0.10062   0.53564   0.34498   0.00000  Uiso   1.00
H991   H     0.16525   0.76814   0.81315   0.00000  Uiso   1.00
H992   H     0.43099   0.63381   0.37321   0.00000  Uiso   1.00
H993   H     0.15243   0.58964   0.62064   0.00000  Uiso   1.00
H994   H     0.05270   0.77440   0.97466   0.00000  Uiso   1.00
H995   H     0.25606   0.87172   0.19598   0.00000  Uiso   1.00
H996   H     0.35283   0.74814   0.23501   0.00000  Uiso   1.00
H997   H     0.04828   0.61648   0.64067   0.00000  Uiso   1.00
H998   H     0.34214   0.54888   0.35580   0.00000  Uiso   1.00
H999   H     0.24665   0.86895   0.79712   0.00000  Uiso   1.00
H1000  H     0.02317   0.63305   0.33341   0.00000  Uiso   1.00
H1001  H     0.42604   0.86273   0.62456   0.00000  Uiso   1.00
H1002  H     0.16341   0.91649   0.37362   0.00000  Uiso   1.00
H1003  H     0.26044   0.67677   0.78167   0.00000  Uiso   1.00
H1004  H     0.21330   0.61802   0.09816   0.00000  Uiso   1.00
H1005  H     0.26300   0.94201   0.02591   0.00000  Uiso   1.00
H1006  H     0.32761   0.59646   0.90286   0.00000  Uiso   1.00
H1007  H     0.10845   0.68942   0.09740   0.00000  Uiso   1.00
H1008  H     0.09742   0.77511   0.85167   0.00000  Uiso   1.00
H1009  H     0.28521   0.88001   0.09858   0.00000  Uiso   1.00
H1010  H     0.17381   0.90154   0.89988   0.00000  Uiso   1.00
H1011  H     0.39043   0.80937   0.09890   0.00000  Uiso   1.00
H1012  H     0.38973   0.69177   0.90139   0.00000  Uiso   1.00
H1013  H     0.00760   0.87445   0.59664   0.00000  Uiso   1.00
H1014  H     0.05211   0.63903   0.40210   0.00000  Uiso   1.00
H1015  H     0.12535   0.98854   0.59641   0.00000  Uiso   1.00
H1016  H     0.21689   0.95056   0.97405   0.00000  Uiso   1.00
H1017  H     0.15223   0.57698   0.39979   0.00000  Uiso   1.00
H1018  H     0.47220   0.62824   0.59836   0.00000  Uiso   1.00
H1019  H     0.42078   0.84610   0.39850   0.00000  Uiso   1.00
H1020  H     0.37080   0.53022   0.59784   0.00000  Uiso   1.00
H1021  H     0.34276   0.95915   0.35315   0.00000  Uiso   1.00
H1022  H     0.44640   0.77473   0.02571   0.00000  Uiso   1.00
H1023  H     0.44612   0.72621   0.97432   0.00000  Uiso   1.00
H1024  H     0.00598   0.80759   0.52545   0.00000  Uiso   1.00
O1025  O     0.25000   0.50000   0.25000   0.00000  Uiso   1.00
O1026  O     0.25000   0.96964   0.66317   0.00000  Uiso   1.00
O1027  O     0.28182   0.88052   0.20136   0.00000  Uiso   1.00
O1028  O     0.34802   0.79802   0.19002   0.00000  Uiso   1.00
O1029  O     0.35933   0.77183   0.24853   0.00000  Uiso   1.00
O1030  O     0.08387   0.66771   0.66243   0.00000  Uiso   1.00
O1031  O     0.06210   0.60967   0.66509   0.00000  Uiso   1.00
O1032  O     0.39861   0.55548   0.32110   0.00000  Uiso   1.00
O1033  O     0.33929   0.56816   0.33495   0.00000  Uiso   1.00
O1034  O     0.21531   0.82978   0.75241   0.00000  Uiso   1.00
O1035  O     0.22057   0.87764   0.79390   0.00000  Uiso   1.00
O1036  O     0.03944   0.58634   0.28763   0.00000  Uiso   1.00
O1037  O     0.46964   0.75000   0.33683   0.00000  Uiso   1.00
O1038  O     0.04582   0.64067   0.31867   0.00000  Uiso   1.00
O1039  O     0.45516   0.86283   0.68688   0.00000  Uiso   1.00
O1040  O     0.40695   0.86600   0.64557   0.00000  Uiso   1.00
O1041  O     0.13345   0.94747   0.32104   0.00000  Uiso   1.00
O1042  O     0.15920   0.89879   0.35145   0.00000  Uiso   1.00
O1043  O     0.28700   0.61998   0.80171   0.00000  Uiso   1.00
O1044  O     0.28559   0.67407   0.76971   0.00000  Uiso   1.00
O1045  O     0.24855   0.57408   0.13341   0.00000  Uiso   1.00
O1046  O     0.21572   0.59486   0.08226   0.00000  Uiso   1.00
O1047  O     0.27763   0.56985   0.86806   0.00000  Uiso   1.00
O1048  O     0.03036   0.75000   0.66317   0.00000  Uiso   1.00
O1049  O     0.31709   0.57544   0.91837   0.00000  Uiso   1.00
O1050  O     0.07248   0.73198   0.13376   0.00000  Uiso   1.00
O1051  O     0.08637   0.69702   0.08159   0.00000  Uiso   1.00
O1052  O     0.08366   0.79954   0.91437   0.00000  Uiso   1.00
O1053  O     0.07404   0.76376   0.86175   0.00000  Uiso   1.00
O1054  O     0.25472   0.92593   0.13578   0.00000  Uiso   1.00
O1055  O     0.28195   0.90276   0.08222   0.00000  Uiso   1.00
O1056  O     0.22417   0.92899   0.86654   0.00000  Uiso   1.00
O1057  O     0.18385   0.92248   0.91590   0.00000  Uiso   1.00
O1058  O     0.42714   0.76686   0.13439   0.00000  Uiso   1.00
O1059  O     0.00000   0.71964   0.83683   0.00000  Uiso   1.00
O1060  O     0.41248   0.80222   0.08281   0.00000  Uiso   1.00
O1061  O     0.42711   0.73323   0.86538   0.00000  Uiso   1.00
O1062  O     0.41179   0.69891   0.91750   0.00000  Uiso   1.00
O1063  O     0.01944   0.82158   0.63517   0.00000  Uiso   1.00
O1064  O     0.00303   0.85169   0.58063   0.00000  Uiso   1.00
O1065  O     0.06204   0.69883   0.37583   0.00000  Uiso   1.00
O1066  O     0.03544   0.65722   0.41545   0.00000  Uiso   1.00
O1067  O     0.17845   0.98037   0.63578   0.00000  Uiso   1.00
O1068  O     0.14806   0.99306   0.58028   0.00000  Uiso   1.00
O1069  O     0.17899   0.52589   0.36700   0.00000  Uiso   1.00
O1070  O     0.00000   0.78036   0.16317   0.00000  Uiso   1.00
O1071  O     0.17331   0.56708   0.41572   0.00000  Uiso   1.00
O1072  O     0.49777   0.67651   0.63631   0.00000  Uiso   1.00
O1073  O     0.47380   0.65122   0.58210   0.00000  Uiso   1.00
O1074  O     0.47285   0.82029   0.36664   0.00000  Uiso   1.00
O1075  O     0.43090   0.82531   0.41465   0.00000  Uiso   1.00
O1076  O     0.32354   0.50280   0.63571   0.00000  Uiso   1.00
O1077  O     0.34781   0.52786   0.58159   0.00000  Uiso   1.00
O1078  O     0.32271   0.93589   0.41440   0.00000  Uiso   1.00
O1079  O     0.32194   0.97470   0.36326   0.00000  Uiso   1.00
O1080  O     0.28036   0.50000   0.83683   0.00000  Uiso   1.00
O1081  O     0.21964   0.50000   0.16317   0.00000  Uiso   1.00
O1082  O     0.00000   0.78036   0.83683   0.00000  Uiso   1.00
O1083  O     0.00000   0.71964   0.16317   0.00000  Uiso   1.00
O1084  O     0.21964   0.50000   0.83683   0.00000  Uiso   1.00
O1085  O     0.25000   0.50000   0.75000   0.00000  Uiso   1.00
O1086  O     0.28036   0.50000   0.16317   0.00000  Uiso   1.00
O1087  O     0.20726   0.57307   0.27282   0.00000  Uiso   1.00
O1088  O     0.29275   0.92693   0.72718   0.00000  Uiso   1.00
O1089  O     0.42693   0.70726   0.27282   0.00000  Uiso   1.00
O1090  O     0.07307   0.79275   0.72718   0.00000  Uiso   1.00
O1091  O     0.29275   0.92693   0.27282   0.00000  Uiso   1.00
O1092  O     0.20726   0.57307   0.72718   0.00000  Uiso   1.00
O1093  O     0.07307   0.79275   0.27282   0.00000  Uiso   1.00
O1094  O     0.42693   0.70726   0.72718   0.00000  Uiso   1.00
O1095  O     0.20726   0.92693   0.72718   0.00000  Uiso   1.00
O1096  O     0.00000   0.75000   0.25000   0.00000  Uiso   1.00
O1097  O     0.29275   0.57307   0.27282   0.00000  Uiso   1.00
O1098  O     0.42693   0.79275   0.72718   0.00000  Uiso   1.00
O1099  O     0.07307   0.70726   0.27282   0.00000  Uiso   1.00
O1100  O     0.29275   0.57307   0.72718   0.00000  Uiso   1.00
O1101  O     0.20726   0.92693   0.27282   0.00000  Uiso   1.00
O1102  O     0.07307   0.70726   0.72718   0.00000  Uiso   1.00
O1103  O     0.42693   0.79275   0.27282   0.00000  Uiso   1.00
O1104  O     0.45726   0.82307   0.77282   0.00000  Uiso   1.00
O1105  O     0.04275   0.67693   0.22718   0.00000  Uiso   1.00
O1106  O     0.17693   0.95726   0.77282   0.00000  Uiso   1.00
O1107  O     0.00000   0.75000   0.75000   0.00000  Uiso   1.00
O1108  O     0.32307   0.54275   0.22718   0.00000  Uiso   1.00
O1109  O     0.04275   0.67693   0.77282   0.00000  Uiso   1.00
O1110  O     0.45726   0.82307   0.22718   0.00000  Uiso   1.00
O1111  O     0.32307   0.54275   0.77282   0.00000  Uiso   1.00
O1112  O     0.17693   0.95726   0.22718   0.00000  Uiso   1.00
O1113  O     0.45726   0.67693   0.22718   0.00000  Uiso   1.00
O1114  O     0.04275   0.82307   0.77282   0.00000  Uiso   1.00
O1115  O     0.17693   0.54275   0.22718   0.00000  Uiso   1.00
O1116  O     0.32307   0.95726   0.77282   0.00000  Uiso   1.00
O1117  O     0.04275   0.82307   0.22718   0.00000  Uiso   1.00
O1118  O     0.25000   0.96964   0.33683   0.00000  Uiso   1.00
O1119  O     0.45726   0.67693   0.77282   0.00000  Uiso   1.00
O1120  O     0.32307   0.95726   0.22718   0.00000  Uiso   1.00
O1121  O     0.17693   0.54275   0.77282   0.00000  Uiso   1.00
O1122  O     0.18531   0.86688   0.16611   0.00000  Uiso   1.00
O1123  O     0.16065   0.92347   0.15923   0.00000  Uiso   1.00
O1124  O     0.36996   0.53700   0.69799   0.00000  Uiso   1.00
O1125  O     0.42407   0.53547   0.73017   0.00000  Uiso   1.00
O1126  O     0.13067   0.72220   0.22126   0.00000  Uiso   1.00
O1127  O     0.14841   0.68989   0.16834   0.00000  Uiso   1.00
O1128  O     0.38791   0.79528   0.81401   0.00000  Uiso   1.00
O1129  O     0.25000   0.53036   0.66317   0.00000  Uiso   1.00
O1130  O     0.38711   0.84408   0.85462   0.00000  Uiso   1.00
O1131  O     0.29119   0.61624   0.19149   0.00000  Uiso   1.00
O1132  O     0.33712   0.61922   0.14738   0.00000  Uiso   1.00
O1133  O     0.08257   0.96614   0.75163   0.00000  Uiso   1.00
O1134  O     0.12313   0.96674   0.70183   0.00000  Uiso   1.00
O1135  O     0.46544   0.87270   0.29728   0.00000  Uiso   1.00
O1136  O     0.46671   0.92343   0.25953   0.00000  Uiso   1.00
O1137  O     0.11859   0.69812   0.82013   0.00000  Uiso   1.00
O1138  O     0.09133   0.65057   0.85103   0.00000  Uiso   1.00
O1139  O     0.14892   0.60188   0.85078   0.00000  Uiso   1.00
O1140  O     0.03036   0.75000   0.33683   0.00000  Uiso   1.00
O1141  O     0.20284   0.60967   0.81934   0.00000  Uiso   1.00
O1142  O     0.38797   0.97520   0.25794   0.00000  Uiso   1.00
O1143  O     0.40826   0.95110   0.31463   0.00000  Uiso   1.00
O1144  O     0.03767   0.88088   0.70120   0.00000  Uiso   1.00
O1145  O     0.02848   0.91410   0.75603   0.00000  Uiso   1.00
O1146  O     0.40671   0.68255   0.16843   0.00000  Uiso   1.00
O1147  O     0.34652   0.69572   0.17607   0.00000  Uiso   1.00
O1148  O     0.31038   0.85380   0.82747   0.00000  Uiso   1.00
O1149  O     0.32052   0.91445   0.83539   0.00000  Uiso   1.00
O1150  O     0.20677   0.61435   0.18866   0.00000  Uiso   1.00
O1151  O     0.46964   0.75000   0.66317   0.00000  Uiso   1.00
O1152  O     0.21263   0.67029   0.21635   0.00000  Uiso   1.00
O1153  O     0.47425   0.61599   0.73070   0.00000  Uiso   1.00
O1154  O     0.44546   0.59686   0.67602   0.00000  Uiso   1.00
O1155  O     0.10679   0.80174   0.17931   0.00000  Uiso   1.00
O1156  O     0.10302   0.85384   0.14391   0.00000  Uiso   1.00
O1157  O     0.36526   0.72402   0.76862   0.00000  Uiso   1.00
O1158  O     0.34791   0.69543   0.82402   0.00000  Uiso   1.00
O1159  O     0.10165   0.85068   0.35077   0.00000  Uiso   1.00
O1160  O     0.04765   0.85995   0.31985   0.00000  Uiso   1.00
O1161  O     0.34019   0.92688   0.66613   0.00000  Uiso   1.00
O1162  O     0.25000   0.53036   0.33683   0.00000  Uiso   1.00
O1163  O     0.39889   0.94534   0.67492   0.00000  Uiso   1.00
O1164  O     0.11855   0.52804   0.27855   0.00000  Uiso   1.00
O1165  O     0.10334   0.56045   0.33230   0.00000  Uiso   1.00
O1166  O     0.14089   0.77478   0.74886   0.00000  Uiso   1.00
O1167  O     0.15939   0.79476   0.80807   0.00000  Uiso   1.00
O1168  O     0.45756   0.63588   0.30970   0.00000  Uiso   1.00
O1169  O     0.41113   0.63087   0.35294   0.00000  Uiso   1.00
O1170  O     0.14623   0.55315   0.67791   0.00000  Uiso   1.00
O1171  O     0.14629   0.60591   0.64352   0.00000  Uiso   1.00
O1172  O     0.28584   0.83008   0.23927   0.00000  Uiso   1.00
Zn1173 Zn    0.20660   0.50000   0.21760   0.00000  Uiso   1.00
Zn1174 Zn    0.04340   0.75000   0.28240   0.00000  Uiso   1.00
Zn1175 Zn    0.25000   0.95660   0.71760   0.00000  Uiso   1.00
Zn1176 Zn    0.25000   0.54340   0.28240   0.00000  Uiso   1.00
Zn1177 Zn    0.04340   0.75000   0.71760   0.00000  Uiso   1.00
Zn1178 Zn    0.45660   0.75000   0.28240   0.00000  Uiso   1.00
Zn1179 Zn    0.25000   0.54340   0.71760   0.00000  Uiso   1.00
Zn1180 Zn    0.25000   0.95660   0.28240   0.00000  Uiso   1.00
Zn1181 Zn    0.29340   0.50000   0.78240   0.00000  Uiso   1.00
Zn1182 Zn    0.00000   0.70660   0.21760   0.00000  Uiso   1.00
Zn1183 Zn    0.00000   0.79340   0.78240   0.00000  Uiso   1.00
Zn1184 Zn    0.29340   0.50000   0.21760   0.00000  Uiso   1.00
Zn1185 Zn    0.20660   0.50000   0.78240   0.00000  Uiso   1.00
Zn1186 Zn    0.00000   0.79340   0.21760   0.00000  Uiso   1.00
Zn1187 Zn    0.00000   0.70660   0.78240   0.00000  Uiso   1.00
Zn1188 Zn    0.45660   0.75000   0.71760   0.00000  Uiso   1.00
C1189  C     0.74186   0.53108   0.04151   0.00000  Uiso   1.00
C1190  C     0.51605   0.72289   0.45951   0.00000  Uiso   1.00
C1191  C     0.84804   0.90179   0.75035   0.00000  Uiso   1.00
C1192  C     0.90204   0.65180   0.24945   0.00000  Uiso   1.00
C1193  C     0.59851   0.84762   0.75019   0.00000  Uiso   1.00
C1194  C     0.84844   0.90228   0.24973   0.00000  Uiso   1.00
C1195  C     0.65166   0.59781   0.74973   0.00000  Uiso   1.00
C1196  C     0.59801   0.65186   0.74936   0.00000  Uiso   1.00
C1197  C     0.90178   0.84787   0.25063   0.00000  Uiso   1.00
C1198  C     0.65197   0.90184   0.75054   0.00000  Uiso   1.00
C1199  C     0.84770   0.59841   0.25039   0.00000  Uiso   1.00
C1200  C     0.90205   0.84805   0.75004   0.00000  Uiso   1.00
C1201  C     0.71710   0.99533   0.54168   0.00000  Uiso   1.00
C1202  C     0.59844   0.65230   0.25047   0.00000  Uiso   1.00
C1203  C     0.84811   0.59800   0.74999   0.00000  Uiso   1.00
C1204  C     0.65186   0.90195   0.24945   0.00000  Uiso   1.00
C1205  C     0.74992   0.99943   0.10266   0.00000  Uiso   1.00
C1206  C     0.75013   0.99946   0.89754   0.00000  Uiso   1.00
C1207  C     0.99976   0.74993   0.10258   0.00000  Uiso   1.00
C1208  C     0.99969   0.75005   0.89739   0.00000  Uiso   1.00
C1209  C     0.99970   0.75002   0.60283   0.00000  Uiso   1.00
C1210  C     0.50020   0.75053   0.39773   0.00000  Uiso   1.00
C1211  C     0.74975   0.99988   0.60273   0.00000  Uiso   1.00
C1212  C     0.72267   0.51984   0.45826   0.00000  Uiso   1.00
C1213  C     0.74975   0.50013   0.39749   0.00000  Uiso   1.00
C1214  C     0.66488   0.89039   0.17888   0.00000  Uiso   1.00
C1215  C     0.89141   0.55260   0.71957   0.00000  Uiso   1.00
C1216  C     0.63650   0.69229   0.20676   0.00000  Uiso   1.00
C1217  C     0.88514   0.82837   0.81773   0.00000  Uiso   1.00
C1218  C     0.82397   0.61908   0.18543   0.00000  Uiso   1.00
C1219  C     0.60557   0.94964   0.73283   0.00000  Uiso   1.00
C1220  C     0.94935   0.89245   0.27435   0.00000  Uiso   1.00
C1221  C     0.60942   0.66603   0.81940   0.00000  Uiso   1.00
C1222  C     0.66466   0.60896   0.82046   0.00000  Uiso   1.00
C1223  C     0.99109   0.71750   0.54227   0.00000  Uiso   1.00
C1224  C     0.89313   0.94791   0.27756   0.00000  Uiso   1.00
C1225  C     0.55023   0.89293   0.73147   0.00000  Uiso   1.00
C1226  C     0.87834   0.67680   0.18609   0.00000  Uiso   1.00
C1227  C     0.82616   0.88127   0.81630   0.00000  Uiso   1.00
C1228  C     0.69391   0.63752   0.21018   0.00000  Uiso   1.00
C1229  C     0.94535   0.61036   0.71394   0.00000  Uiso   1.00
C1230  C     0.60858   0.83508   0.17870   0.00000  Uiso   1.00
C1231  C     0.86046   0.69523   0.78575   0.00000  Uiso   1.00
C1232  C     0.58580   0.85855   0.32071   0.00000  Uiso   1.00
C1233  C     0.86845   0.92428   0.68482   0.00000  Uiso   1.00
C1234  C     0.97792   0.77674   0.45808   0.00000  Uiso   1.00
C1235  C     0.61380   0.55797   0.29341   0.00000  Uiso   1.00
C1236  C     0.64472   0.80045   0.77114   0.00000  Uiso   1.00
C1237  C     0.92483   0.63183   0.31512   0.00000  Uiso   1.00
C1238  C     0.64228   0.58628   0.67801   0.00000  Uiso   1.00
C1239  C     0.80074   0.85749   0.22667   0.00000  Uiso   1.00
C1240  C     0.85736   0.80197   0.22381   0.00000  Uiso   1.00
C1241  C     0.58322   0.63846   0.67943   0.00000  Uiso   1.00
C1242  C     0.87127   0.57331   0.31353   0.00000  Uiso   1.00
C1243  C     0.70079   0.85612   0.76781   0.00000  Uiso   1.00
C1244  C     0.55747   0.61408   0.29242   0.00000  Uiso   1.00
C1245  C     0.78213   0.50717   0.54187   0.00000  Uiso   1.00
C1246  C     0.92214   0.86627   0.68277   0.00000  Uiso   1.00
C1247  C     0.64161   0.91511   0.31995   0.00000  Uiso   1.00
C1248  C     0.80267   0.64140   0.78024   0.00000  Uiso   1.00
C1249  C     0.73581   0.56779   0.10135   0.00000  Uiso   1.00
C1250  C     0.78788   0.55836   0.89948   0.00000  Uiso   1.00
C1251  C     0.56388   0.72173   0.10126   0.00000  Uiso   1.00
C1252  C     0.56405   0.77717   0.89821   0.00000  Uiso   1.00
C1253  C     0.76444   0.93096   0.10232   0.00000  Uiso   1.00
C1254  C     0.71320   0.94005   0.89790   0.00000  Uiso   1.00
C1255  C     0.93539   0.77755   0.10199   0.00000  Uiso   1.00
C1256  C     0.77672   0.98180   0.45878   0.00000  Uiso   1.00
C1257  C     0.93509   0.72298   0.89803   0.00000  Uiso   1.00
C1258  C     0.50924   0.81954   0.60149   0.00000  Uiso   1.00
C1259  C     0.53964   0.69271   0.40124   0.00000  Uiso   1.00
C1260  C     0.68034   0.98890   0.60160   0.00000  Uiso   1.00
C1261  C     0.69050   0.53733   0.39801   0.00000  Uiso   1.00
C1262  C     0.98849   0.68077   0.60256   0.00000  Uiso   1.00
C1263  C     0.96128   0.80869   0.39749   0.00000  Uiso   1.00
C1264  C     0.81883   0.51213   0.60206   0.00000  Uiso   1.00
C1265  C     0.80841   0.96225   0.39877   0.00000  Uiso   1.00
C1266  C     0.74241   0.53205   0.08198   0.00000  Uiso   1.00
C1267  C     0.76886   0.52717   0.91845   0.00000  Uiso   1.00
C1268  C     0.53030   0.73597   0.08193   0.00000  Uiso   1.00
C1269  C     0.76879   0.52606   0.95893   0.00000  Uiso   1.00
C1270  C     0.53038   0.76372   0.91795   0.00000  Uiso   1.00
C1271  C     0.75713   0.96641   0.08244   0.00000  Uiso   1.00
C1272  C     0.73158   0.97119   0.91774   0.00000  Uiso   1.00
C1273  C     0.96897   0.76382   0.08224   0.00000  Uiso   1.00
C1274  C     0.96877   0.73658   0.91775   0.00000  Uiso   1.00
C1275  C     0.50367   0.78337   0.58222   0.00000  Uiso   1.00
C1276  C     0.51852   0.72291   0.41917   0.00000  Uiso   1.00
C1277  C     0.71645   0.99463   0.58222   0.00000  Uiso   1.00
C1278  C     0.72179   0.51909   0.41776   0.00000  Uiso   1.00
C1279  C     0.99316   0.71678   0.58273   0.00000  Uiso   1.00
C1280  C     0.52943   0.73604   0.04140   0.00000  Uiso   1.00
C1281  C     0.97990   0.77787   0.41759   0.00000  Uiso   1.00
C1282  C     0.78288   0.50633   0.58239   0.00000  Uiso   1.00
C1283  C     0.77755   0.98146   0.41825   0.00000  Uiso   1.00
C1284  C     0.74946   0.99883   0.02145   0.00000  Uiso   1.00
C1285  C     0.74985   0.99881   0.97884   0.00000  Uiso   1.00
C1286  C     0.99944   0.75012   0.02129   0.00000  Uiso   1.00
C1287  C     0.99940   0.75028   0.97866   0.00000  Uiso   1.00
C1288  C     0.99579   0.75003   0.52174   0.00000  Uiso   1.00
C1289  C     0.99613   0.74966   0.47908   0.00000  Uiso   1.00
C1290  C     0.74963   0.50138   0.52150   0.00000  Uiso   1.00
C1291  C     0.52955   0.76390   0.95851   0.00000  Uiso   1.00
C1292  C     0.74974   0.50113   0.47882   0.00000  Uiso   1.00
C1293  C     0.74996   0.50002   0.35511   0.00000  Uiso   1.00
C1294  C     0.74976   0.99999   0.64498   0.00000  Uiso   1.00
C1295  C     0.50008   0.74952   0.35521   0.00000  Uiso   1.00
C1296  C     0.99995   0.75023   0.64500   0.00000  Uiso   1.00
C1297  C     0.99989   0.75001   0.85507   0.00000  Uiso   1.00
C1298  C     0.99999   0.74998   0.14492   0.00000  Uiso   1.00
C1299  C     0.75003   0.99993   0.85513   0.00000  Uiso   1.00
C1300  C     0.74998   0.99987   0.14494   0.00000  Uiso   1.00
C1301  C     0.67992   0.56987   0.25005   0.00000  Uiso   1.00
C1302  C     0.75710   0.96680   0.04188   0.00000  Uiso   1.00
C1303  C     0.81986   0.92985   0.75027   0.00000  Uiso   1.00
C1304  C     0.92977   0.68028   0.24953   0.00000  Uiso   1.00
C1305  C     0.57032   0.81963   0.75043   0.00000  Uiso   1.00
C1306  C     0.82033   0.93036   0.25039   0.00000  Uiso   1.00
C1307  C     0.67999   0.56994   0.74997   0.00000  Uiso   1.00
C1308  C     0.57001   0.81995   0.25004   0.00000  Uiso   1.00
C1309  C     0.93004   0.68000   0.74993   0.00000  Uiso   1.00
C1310  C     0.67992   0.93010   0.74993   0.00000  Uiso   1.00
C1311  C     0.82012   0.56982   0.25035   0.00000  Uiso   1.00
C1312  C     0.93010   0.82000   0.74993   0.00000  Uiso   1.00
C1313  C     0.73130   0.97168   0.95826   0.00000  Uiso   1.00
C1314  C     0.57010   0.68014   0.24996   0.00000  Uiso   1.00
C1315  C     0.82000   0.56995   0.74999   0.00000  Uiso   1.00
C1316  C     0.68021   0.92982   0.24957   0.00000  Uiso   1.00
C1317  C     0.56974   0.67979   0.74954   0.00000  Uiso   1.00
C1318  C     0.92979   0.81972   0.24977   0.00000  Uiso   1.00
C1319  C     0.64362   0.88322   0.21474   0.00000  Uiso   1.00
C1320  C     0.88294   0.58987   0.73455   0.00000  Uiso   1.00
C1321  C     0.63126   0.65833   0.22993   0.00000  Uiso   1.00
C1322  C     0.87960   0.85204   0.78303   0.00000  Uiso   1.00
C1323  C     0.84994   0.62250   0.21853   0.00000  Uiso   1.00
C1324  C     0.96953   0.76400   0.04169   0.00000  Uiso   1.00
C1325  C     0.61527   0.91144   0.74308   0.00000  Uiso   1.00
C1326  C     0.91122   0.88362   0.26222   0.00000  Uiso   1.00
C1327  C     0.61649   0.64380   0.78418   0.00000  Uiso   1.00
C1328  C     0.64333   0.61639   0.78454   0.00000  Uiso   1.00
C1329  C     0.88433   0.91104   0.26186   0.00000  Uiso   1.00
C1330  C     0.58844   0.88408   0.74261   0.00000  Uiso   1.00
C1331  C     0.87735   0.64942   0.21802   0.00000  Uiso   1.00
C1332  C     0.85209   0.87889   0.78307   0.00000  Uiso   1.00
C1333  C     0.65827   0.63098   0.22980   0.00000  Uiso   1.00
C1334  C     0.90988   0.61726   0.73386   0.00000  Uiso   1.00
C1335  C     0.96933   0.73664   0.95830   0.00000  Uiso   1.00
C1336  C     0.61686   0.85573   0.21496   0.00000  Uiso   1.00
C1337  C     0.86734   0.65977   0.76590   0.00000  Uiso   1.00
C1338  C     0.60697   0.86614   0.28477   0.00000  Uiso   1.00
C1339  C     0.87097   0.89807   0.71763   0.00000  Uiso   1.00
C1340  C     0.61896   0.59190   0.27019   0.00000  Uiso   1.00
C1341  C     0.63507   0.83813   0.75874   0.00000  Uiso   1.00
C1342  C     0.89951   0.62795   0.28151   0.00000  Uiso   1.00
C1343  C     0.63314   0.60585   0.71475   0.00000  Uiso   1.00
C1344  C     0.83896   0.86642   0.23845   0.00000  Uiso   1.00
C1345  C     0.86594   0.83909   0.23874   0.00000  Uiso   1.00
C1346  C     0.50181   0.78266   0.54174   0.00000  Uiso   1.00
C1347  C     0.60583   0.63279   0.71475   0.00000  Uiso   1.00
C1348  C     0.87233   0.60082   0.28178   0.00000  Uiso   1.00
C1349  C     0.66206   0.86544   0.75873   0.00000  Uiso   1.00
C1350  C     0.59217   0.61945   0.27073   0.00000  Uiso   1.00
C1351  C     0.89804   0.87085   0.71733   0.00000  Uiso   1.00
C1352  C     0.63390   0.89345   0.28446   0.00000  Uiso   1.00
C1353  C     0.83996   0.63285   0.76530   0.00000  Uiso   1.00
C1354  C     0.59842   0.84772   0.24991   0.00000  Uiso   1.00
C1355  C     0.90197   0.65189   0.74987   0.00000  Uiso   1.00
C1356  C     0.65171   0.59785   0.24954   0.00000  Uiso   1.00
H1357  H     0.73592   0.55573   0.02532   0.00000  Uiso   1.00
H1358  H     0.53067   0.70230   0.47594   0.00000  Uiso   1.00
H1359  H     0.69221   0.99043   0.52547   0.00000  Uiso   1.00
H1360  H     0.70178   0.53464   0.47404   0.00000  Uiso   1.00
H1361  H     0.98609   0.69248   0.52637   0.00000  Uiso   1.00
H1362  H     0.96253   0.79741   0.47352   0.00000  Uiso   1.00
H1363  H     0.80707   0.51220   0.52585   0.00000  Uiso   1.00
H1364  H     0.79751   0.96722   0.47495   0.00000  Uiso   1.00
H1365  H     0.67630   0.92494   0.13505   0.00000  Uiso   1.00
H1366  H     0.92676   0.51035   0.71815   0.00000  Uiso   1.00
H1367  H     0.65119   0.71471   0.15571   0.00000  Uiso   1.00
H1368  H     0.78317   0.54689   0.97524   0.00000  Uiso   1.00
H1369  H     0.89093   0.82528   0.87579   0.00000  Uiso   1.00
H1370  H     0.81686   0.61685   0.12747   0.00000  Uiso   1.00
H1371  H     0.61372   0.99238   0.69728   0.00000  Uiso   1.00
H1372  H     0.99245   0.92650   0.26993   0.00000  Uiso   1.00
H1373  H     0.58763   0.66863   0.87297   0.00000  Uiso   1.00
H1374  H     0.71423   0.60414   0.84547   0.00000  Uiso   1.00
H1375  H     0.91336   0.97738   0.32209   0.00000  Uiso   1.00
H1376  H     0.50289   0.91779   0.74546   0.00000  Uiso   1.00
H1377  H     0.85056   0.71359   0.15406   0.00000  Uiso   1.00
H1378  H     0.80240   0.91235   0.85749   0.00000  Uiso   1.00
H1379  H     0.55241   0.72532   0.02518   0.00000  Uiso   1.00
H1380  H     0.73635   0.67164   0.20127   0.00000  Uiso   1.00
H1381  H     0.97109   0.59303   0.66564   0.00000  Uiso   1.00
H1382  H     0.59765   0.83685   0.12141   0.00000  Uiso   1.00
H1383  H     0.84417   0.72104   0.83444   0.00000  Uiso   1.00
H1384  H     0.53636   0.85426   0.34598   0.00000  Uiso   1.00
H1385  H     0.89400   0.96203   0.65207   0.00000  Uiso   1.00
H1386  H     0.60062   0.53564   0.34498   0.00000  Uiso   1.00
H1387  H     0.66525   0.76814   0.81315   0.00000  Uiso   1.00
H1388  H     0.93099   0.63381   0.37321   0.00000  Uiso   1.00
H1389  H     0.65243   0.58964   0.62064   0.00000  Uiso   1.00
H1390  H     0.55270   0.77440   0.97466   0.00000  Uiso   1.00
H1391  H     0.75606   0.87172   0.19598   0.00000  Uiso   1.00
H1392  H     0.85283   0.74814   0.23501   0.00000  Uiso   1.00
H1393  H     0.54828   0.61648   0.64067   0.00000  Uiso   1.00
H1394  H     0.84214   0.54888   0.35580   0.00000  Uiso   1.00
H1395  H     0.74665   0.86895   0.79712   0.00000  Uiso   1.00
H1396  H     0.52317   0.63305   0.33341   0.00000  Uiso   1.00
H1397  H     0.92604   0.86273   0.62456   0.00000  Uiso   1.00
H1398  H     0.66341   0.91649   0.37362   0.00000  Uiso   1.00
H1399  H     0.76044   0.67677   0.78167   0.00000  Uiso   1.00
H1400  H     0.71330   0.61802   0.09816   0.00000  Uiso   1.00
H1401  H     0.76300   0.94201   0.02591   0.00000  Uiso   1.00
H1402  H     0.82761   0.59646   0.90286   0.00000  Uiso   1.00
H1403  H     0.60845   0.68942   0.09740   0.00000  Uiso   1.00
H1404  H     0.59742   0.77511   0.85167   0.00000  Uiso   1.00
H1405  H     0.78521   0.88001   0.09858   0.00000  Uiso   1.00
H1406  H     0.67381   0.90154   0.89988   0.00000  Uiso   1.00
H1407  H     0.89043   0.80937   0.09890   0.00000  Uiso   1.00
H1408  H     0.88973   0.69177   0.90139   0.00000  Uiso   1.00
H1409  H     0.50760   0.87445   0.59664   0.00000  Uiso   1.00
H1410  H     0.55211   0.63903   0.40210   0.00000  Uiso   1.00
H1411  H     0.62535   0.98854   0.59641   0.00000  Uiso   1.00
H1412  H     0.71689   0.95056   0.97405   0.00000  Uiso   1.00
H1413  H     0.65223   0.57698   0.39979   0.00000  Uiso   1.00
H1414  H     0.97220   0.62824   0.59836   0.00000  Uiso   1.00
H1415  H     0.92078   0.84610   0.39850   0.00000  Uiso   1.00
H1416  H     0.87080   0.53022   0.59784   0.00000  Uiso   1.00
H1417  H     0.84276   0.95915   0.35315   0.00000  Uiso   1.00
H1418  H     0.94640   0.77473   0.02571   0.00000  Uiso   1.00
H1419  H     0.94612   0.72621   0.97432   0.00000  Uiso   1.00
H1420  H     0.50598   0.80759   0.52545   0.00000  Uiso   1.00
O1421  O     0.75000   0.50000   0.25000   0.00000  Uiso   1.00
O1422  O     0.75000   0.96964   0.66317   0.00000  Uiso   1.00
O1423  O     0.78182   0.88052   0.20136   0.00000  Uiso   1.00
O1424  O     0.84802   0.79802   0.19002   0.00000  Uiso   1.00
O1425  O     0.85933   0.77183   0.24853   0.00000  Uiso   1.00
O1426  O     0.58387   0.66771   0.66243   0.00000  Uiso   1.00
O1427  O     0.56210   0.60967   0.66509   0.00000  Uiso   1.00
O1428  O     0.89861   0.55548   0.32110   0.00000  Uiso   1.00
O1429  O     0.83929   0.56816   0.33495   0.00000  Uiso   1.00
O1430  O     0.71531   0.82978   0.75241   0.00000  Uiso   1.00
O1431  O     0.72057   0.87764   0.79390   0.00000  Uiso   1.00
O1432  O     0.53944   0.58634   0.28763   0.00000  Uiso   1.00
O1433  O     0.96964   0.75000   0.33683   0.00000  Uiso   1.00
O1434  O     0.54582   0.64067   0.31867   0.00000  Uiso   1.00
O1435  O     0.95516   0.86283   0.68688   0.00000  Uiso   1.00
O1436  O     0.90695   0.86600   0.64557   0.00000  Uiso   1.00
O1437  O     0.63345   0.94747   0.32104   0.00000  Uiso   1.00
O1438  O     0.65920   0.89879   0.35145   0.00000  Uiso   1.00
O1439  O     0.78700   0.61998   0.80171   0.00000  Uiso   1.00
O1440  O     0.78559   0.67407   0.76971   0.00000  Uiso   1.00
O1441  O     0.74855   0.57408   0.13341   0.00000  Uiso   1.00
O1442  O     0.71572   0.59486   0.08226   0.00000  Uiso   1.00
O1443  O     0.77763   0.56985   0.86806   0.00000  Uiso   1.00
O1444  O     0.53036   0.75000   0.66317   0.00000  Uiso   1.00
O1445  O     0.81709   0.57544   0.91837   0.00000  Uiso   1.00
O1446  O     0.57248   0.73198   0.13376   0.00000  Uiso   1.00
O1447  O     0.58637   0.69702   0.08159   0.00000  Uiso   1.00
O1448  O     0.58366   0.79954   0.91437   0.00000  Uiso   1.00
O1449  O     0.57404   0.76376   0.86175   0.00000  Uiso   1.00
O1450  O     0.75472   0.92593   0.13578   0.00000  Uiso   1.00
O1451  O     0.78195   0.90276   0.08222   0.00000  Uiso   1.00
O1452  O     0.72417   0.92899   0.86654   0.00000  Uiso   1.00
O1453  O     0.68385   0.92248   0.91590   0.00000  Uiso   1.00
O1454  O     0.92714   0.76686   0.13439   0.00000  Uiso   1.00
O1455  O     0.50000   0.71964   0.83683   0.00000  Uiso   1.00
O1456  O     0.91248   0.80222   0.08281   0.00000  Uiso   1.00
O1457  O     0.92711   0.73323   0.86538   0.00000  Uiso   1.00
O1458  O     0.91179   0.69891   0.91750   0.00000  Uiso   1.00
O1459  O     0.51944   0.82158   0.63517   0.00000  Uiso   1.00
O1460  O     0.50303   0.85169   0.58063   0.00000  Uiso   1.00
O1461  O     0.56204   0.69883   0.37583   0.00000  Uiso   1.00
O1462  O     0.53544   0.65722   0.41545   0.00000  Uiso   1.00
O1463  O     0.67845   0.98037   0.63578   0.00000  Uiso   1.00
O1464  O     0.64806   0.99306   0.58028   0.00000  Uiso   1.00
O1465  O     0.67899   0.52589   0.36700   0.00000  Uiso   1.00
O1466  O     0.50000   0.78036   0.16317   0.00000  Uiso   1.00
O1467  O     0.67331   0.56708   0.41572   0.00000  Uiso   1.00
O1468  O     0.99777   0.67651   0.63631   0.00000  Uiso   1.00
O1469  O     0.97380   0.65122   0.58210   0.00000  Uiso   1.00
O1470  O     0.97285   0.82029   0.36664   0.00000  Uiso   1.00
O1471  O     0.93090   0.82531   0.41465   0.00000  Uiso   1.00
O1472  O     0.82354   0.50280   0.63571   0.00000  Uiso   1.00
O1473  O     0.84781   0.52786   0.58159   0.00000  Uiso   1.00
O1474  O     0.82271   0.93589   0.41440   0.00000  Uiso   1.00
O1475  O     0.82194   0.97470   0.36326   0.00000  Uiso   1.00
O1476  O     0.78036   0.50000   0.83683   0.00000  Uiso   1.00
O1477  O     0.71964   0.50000   0.16317   0.00000  Uiso   1.00
O1478  O     0.50000   0.78036   0.83683   0.00000  Uiso   1.00
O1479  O     0.50000   0.71964   0.16317   0.00000  Uiso   1.00
O1480  O     0.71964   0.50000   0.83683   0.00000  Uiso   1.00
O1481  O     0.75000   0.50000   0.75000   0.00000  Uiso   1.00
O1482  O     0.78036   0.50000   0.16317   0.00000  Uiso   1.00
O1483  O     0.70726   0.57307   0.27282   0.00000  Uiso   1.00
O1484  O     0.79275   0.92693   0.72718   0.00000  Uiso   1.00
O1485  O     0.92693   0.70726   0.27282   0.00000  Uiso   1.00
O1486  O     0.57307   0.79275   0.72718   0.00000  Uiso   1.00
O1487  O     0.79275   0.92693   0.27282   0.00000  Uiso   1.00
O1488  O     0.70726   0.57307   0.72718   0.00000  Uiso   1.00
O1489  O     0.57307   0.79275   0.27282   0.00000  Uiso   1.00
O1490  O     0.92693   0.70726   0.72718   0.00000  Uiso   1.00
O1491  O     0.70726   0.92693   0.72718   0.00000  Uiso   1.00
O1492  O     0.50000   0.75000   0.25000   0.00000  Uiso   1.00
O1493  O     0.79275   0.57307   0.27282   0.00000  Uiso   1.00
O1494  O     0.92693   0.79275   0.72718   0.00000  Uiso   1.00
O1495  O     0.57307   0.70726   0.27282   0.00000  Uiso   1.00
O1496  O     0.79275   0.57307   0.72718   0.00000  Uiso   1.00
O1497  O     0.70726   0.92693   0.27282   0.00000  Uiso   1.00
O1498  O     0.57307   0.70726   0.72718   0.00000  Uiso   1.00
O1499  O     0.92693   0.79275   0.27282   0.00000  Uiso   1.00
O1500  O     0.95726   0.82307   0.77282   0.00000  Uiso   1.00
O1501  O     0.54275   0.67693   0.22718   0.00000  Uiso   1.00
O1502  O     0.67693   0.95726   0.77282   0.00000  Uiso   1.00
O1503  O     0.50000   0.75000   0.75000   0.00000  Uiso   1.00
O1504  O     0.82307   0.54275   0.22718   0.00000  Uiso   1.00
O1505  O     0.54275   0.67693   0.77282   0.00000  Uiso   1.00
O1506  O     0.95726   0.82307   0.22718   0.00000  Uiso   1.00
O1507  O     0.82307   0.54275   0.77282   0.00000  Uiso   1.00
O1508  O     0.67693   0.95726   0.22718   0.00000  Uiso   1.00
O1509  O     0.95726   0.67693   0.22718   0.00000  Uiso   1.00
O1510  O     0.54275   0.82307   0.77282   0.00000  Uiso   1.00
O1511  O     0.67693   0.54275   0.22718   0.00000  Uiso   1.00
O1512  O     0.82307   0.95726   0.77282   0.00000  Uiso   1.00
O1513  O     0.54275   0.82307   0.22718   0.00000  Uiso   1.00
O1514  O     0.75000   0.96964   0.33683   0.00000  Uiso   1.00
O1515  O     0.95726   0.67693   0.77282   0.00000  Uiso   1.00
O1516  O     0.82307   0.95726   0.22718   0.00000  Uiso   1.00
O1517  O     0.67693   0.54275   0.77282   0.00000  Uiso   1.00
O1518  O     0.68531   0.86688   0.16611   0.00000  Uiso   1.00
O1519  O     0.66065   0.92347   0.15923   0.00000  Uiso   1.00
O1520  O     0.86996   0.53700   0.69799   0.00000  Uiso   1.00
O1521  O     0.92407   0.53547   0.73017   0.00000  Uiso   1.00
O1522  O     0.63067   0.72220   0.22126   0.00000  Uiso   1.00
O1523  O     0.64841   0.68989   0.16834   0.00000  Uiso   1.00
O1524  O     0.88791   0.79528   0.81401   0.00000  Uiso   1.00
O1525  O     0.75000   0.53036   0.66317   0.00000  Uiso   1.00
O1526  O     0.88711   0.84408   0.85462   0.00000  Uiso   1.00
O1527  O     0.79119   0.61624   0.19149   0.00000  Uiso   1.00
O1528  O     0.83712   0.61922   0.14738   0.00000  Uiso   1.00
O1529  O     0.58257   0.96614   0.75163   0.00000  Uiso   1.00
O1530  O     0.62313   0.96674   0.70183   0.00000  Uiso   1.00
O1531  O     0.96544   0.87270   0.29728   0.00000  Uiso   1.00
O1532  O     0.96671   0.92343   0.25953   0.00000  Uiso   1.00
O1533  O     0.61859   0.69812   0.82013   0.00000  Uiso   1.00
O1534  O     0.59133   0.65057   0.85103   0.00000  Uiso   1.00
O1535  O     0.64892   0.60188   0.85078   0.00000  Uiso   1.00
O1536  O     0.53036   0.75000   0.33683   0.00000  Uiso   1.00
O1537  O     0.70284   0.60967   0.81934   0.00000  Uiso   1.00
O1538  O     0.88797   0.97520   0.25794   0.00000  Uiso   1.00
O1539  O     0.90826   0.95110   0.31463   0.00000  Uiso   1.00
O1540  O     0.53767   0.88088   0.70120   0.00000  Uiso   1.00
O1541  O     0.52848   0.91410   0.75603   0.00000  Uiso   1.00
O1542  O     0.90671   0.68255   0.16843   0.00000  Uiso   1.00
O1543  O     0.84652   0.69572   0.17607   0.00000  Uiso   1.00
O1544  O     0.81038   0.85380   0.82747   0.00000  Uiso   1.00
O1545  O     0.82052   0.91445   0.83539   0.00000  Uiso   1.00
O1546  O     0.70677   0.61435   0.18866   0.00000  Uiso   1.00
O1547  O     0.96964   0.75000   0.66317   0.00000  Uiso   1.00
O1548  O     0.71263   0.67029   0.21635   0.00000  Uiso   1.00
O1549  O     0.97425   0.61599   0.73070   0.00000  Uiso   1.00
O1550  O     0.94546   0.59686   0.67602   0.00000  Uiso   1.00
O1551  O     0.60679   0.80174   0.17931   0.00000  Uiso   1.00
O1552  O     0.60302   0.85384   0.14391   0.00000  Uiso   1.00
O1553  O     0.86526   0.72402   0.76862   0.00000  Uiso   1.00
O1554  O     0.84791   0.69543   0.82402   0.00000  Uiso   1.00
O1555  O     0.60165   0.85068   0.35077   0.00000  Uiso   1.00
O1556  O     0.54765   0.85995   0.31985   0.00000  Uiso   1.00
O1557  O     0.84019   0.92688   0.66613   0.00000  Uiso   1.00
O1558  O     0.75000   0.53036   0.33683   0.00000  Uiso   1.00
O1559  O     0.89889   0.94534   0.67492   0.00000  Uiso   1.00
O1560  O     0.61855   0.52804   0.27855   0.00000  Uiso   1.00
O1561  O     0.60334   0.56045   0.33230   0.00000  Uiso   1.00
O1562  O     0.64089   0.77478   0.74886   0.00000  Uiso   1.00
O1563  O     0.65939   0.79476   0.80807   0.00000  Uiso   1.00
O1564  O     0.95756   0.63588   0.30970   0.00000  Uiso   1.00
O1565  O     0.91113   0.63087   0.35294   0.00000  Uiso   1.00
O1566  O     0.64623   0.55315   0.67791   0.00000  Uiso   1.00
O1567  O     0.64629   0.60591   0.64352   0.00000  Uiso   1.00
O1568  O     0.78584   0.83008   0.23927   0.00000  Uiso   1.00
Zn1569 Zn    0.70660   0.50000   0.21760   0.00000  Uiso   1.00
Zn1570 Zn    0.54340   0.75000   0.28240   0.00000  Uiso   1.00
Zn1571 Zn    0.75000   0.95660   0.71760   0.00000  Uiso   1.00
Zn1572 Zn    0.75000   0.54340   0.28240   0.00000  Uiso   1.00
Zn1573 Zn    0.54340   0.75000   0.71760   0.00000  Uiso   1.00
Zn1574 Zn    0.95660   0.75000   0.28240   0.00000  Uiso   1.00
Zn1575 Zn    0.75000   0.54340   0.71760   0.00000  Uiso   1.00
Zn1576 Zn    0.75000   0.95660   0.28240   0.00000  Uiso   1.00
Zn1577 Zn    0.79340   0.50000   0.78240   0.00000  Uiso   1.00
Zn1578 Zn    0.50000   0.70660   0.21760   0.00000  Uiso   1.00
Zn1579 Zn    0.50000   0.79340   0.78240   0.00000  Uiso   1.00
Zn1580 Zn    0.79340   0.50000   0.21760   0.00000  Uiso   1.00
Zn1581 Zn    0.70660   0.50000   0.78240   0.00000  Uiso   1.00
Zn1582 Zn    0.50000   0.79340   0.21760   0.00000  Uiso   1.00
Zn1583 Zn    0.50000   0.70660   0.78240   0.00000  Uiso   1.00
Zn1584 Zn    0.95660   0.75000   0.71760   0.00000  Uiso   1.00
loop_
_geom_bond_atom_site_label_1
_geom_bond_atom_site_label_2
_geom_bond_distance
_geom_bond_site_symmetry_2
_ccdc_geom_bond_type
C1     C78     1.397   .     A
C1     H169    1.084   .     S
C1     C888    1.397   1_545 S
C2     H170    1.085   .     S
C2     C88     1.394   .     A
C2     C497    1.396   1_455 S
C3     C144    1.415   .     A
C3     C115    1.456   .     S
C3     C151    1.414   .     A
C4     C154    1.413   .     A
C4     C116    1.456   .     S
C4     C143    1.414   .     A
C5     C142    1.410   .     A
C5     C117    1.455   .     S
C5     C153    1.413   .     A
C6     C141    1.415   .     A
C6     C156    1.413   .     A
C6     C118    1.455   .     S
C7     C119    1.455   .     S
C7     C140    1.413   .     A
C7     C155    1.415   .     A
C8     C129    1.455   .     S
C8     C159    1.412   .     A
C8     C139    1.410   .     A
C9     C138    1.412   .     A
C9     C130    1.454   .     S
C9     C157    1.411   .     A
C10    C122    1.456   .     S
C10    C161    1.412   .     A
C10    C137    1.412   .     A
C11    C160    1.411   .     A
C11    C123    1.455   .     S
C11    C135    1.413   .     A
C12    C163    1.412   .     A
C12    C134    1.412   .     A
C12    C124    1.452   .     S
C13    H171    1.084   .     S
C13    C89     1.399   .     A
C13    C894    1.397   .     S
C14    C126    1.455   .     S
C14    C162    1.411   .     A
C14    C133    1.413   .     A
C15    C132    1.413   .     A
C15    C165    1.413   .     A
C15    C127    1.455   .     S
C16    C131    1.412   .     A
C16    C164    1.410   .     A
C16    C128    1.456   .     S
C17    C83     1.421   .     A
C17    C112    1.459   .     S
C17    C870    1.419   .     S
C18    C84     1.421   .     A
C18    C111    1.463   .     S
C18    C871    1.421   .     S
C19    C85     1.421   .     A
C19    C110    1.461   .     S
C19    C476    1.421   .     S
C20    C86     1.421   .     A
C20    C109    1.460   .     S
C20    C478    1.419   .     S
C21    C108    1.455   .     S
C21    C91     1.421   .     A
C21    C483    1.421   .     S
C22    C107    1.467   .     S
C22    C88     1.422   .     A
C22    C489    1.423   1_455 S
C23    C89     1.422   .     A
C23    C106    1.457   .     S
C23    C886    1.421   .     S
C24    C90     1.398   .     A
C24    C104    1.398   .     A
C24    H172    1.084   .     S
C25    C105    1.462   .     S
C25    C90     1.421   .     A
C25    C887    1.419   1_545 S
C26    O330    1.223   .     D
C26    C131    1.486   .     S
C26    O331    1.398   .     S
C27    C132    1.492   .     S
C27    O332    1.223   .     D
C27    O333    1.398   .     S
C28    O334    1.223   .     D
C28    C133    1.492   .     S
C28    O335    1.398   .     S
C29    C134    1.492   .     S
C29    O338    1.398   .     S
C29    O336    1.223   .     D
C30    O339    1.222   .     D
C30    O340    1.398   .     S
C30    C135    1.490   .     S
C31    C137    1.487   .     S
C31    O342    1.397   .     S
C31    O341    1.222   .     D
C32    C138    1.492   .     S
C32    O343    1.223   .     D
C32    O344    1.398   .     S
C33    C139    1.485   .     S
C33    O346    1.397   .     S
C33    O345    1.223   .     D
C34    O349    1.398   .     S
C34    C140    1.489   .     S
C34    O347    1.222   .     D
C35    H173    1.083   .     S
C35    C100    1.398   .     A
C35    C91     1.398   .     A
C36    O351    1.398   .     S
C36    C141    1.490   .     S
C36    O350    1.222   .     D
C37    C142    1.486   .     S
C37    O353    1.397   .     S
C37    O352    1.223   .     D
C38    C143    1.491   .     S
C38    O355    1.398   .     S
C38    O354    1.223   .     D
C39    O357    1.397   .     S
C39    C144    1.491   .     S
C39    O356    1.223   .     D
C40    C145    1.489   .     S
C40    O358    1.222   .     D
C40    O360    1.399   .     S
C41    O362    1.398   .     S
C41    C146    1.491   .     S
C41    O361    1.223   .     D
C42    O364    1.398   .     S
C42    C148    1.492   .     S
C42    O363    1.223   .     D
C43    O366    1.398   .     S
C43    C149    1.490   .     S
C43    O365    1.222   .     D
C44    O367    1.222   .     D
C44    C150    1.489   .     S
C44    O368    1.398   .     S
C45    C151    1.487   .     S
C45    O371    1.398   .     S
C45    O369    1.222   .     D
C46    H174    1.084   .     S
C46    C101    1.398   .     A
C46    C93     1.399   .     A
C47    C152    1.491   .     S
C47    O373    1.398   .     S
C47    O372    1.223   .     D
C48    C153    1.488   .     S
C48    O375    1.398   .     S
C48    O374    1.222   .     D
C49    O377    1.398   .     S
C49    C154    1.491   .     S
C49    O376    1.222   .     D
C50    O378    1.222   .     D
C50    C155    1.494   .     S
C50    O379    1.398   .     S
C51    O235    1.398   .     S
C51    O380    1.223   .     D
C51    C156    1.493   .     S
C52    O236    1.223   .     D
C52    C157    1.487   .     S
C52    O237    1.397   .     S
C53    C159    1.487   .     S
C53    O239    1.398   .     S
C53    O238    1.222   .     D
C54    C160    1.489   .     S
C54    O241    1.398   .     S
C54    O240    1.223   .     D
C55    O242    1.223   .     D
C55    C161    1.491   .     S
C55    O243    1.398   .     S
C56    C162    1.488   .     S
C56    O244    1.223   .     D
C56    O246    1.397   .     S
C57    C102    1.397   .     A
C57    H175    1.084   .     S
C57    C94     1.398   .     A
C58    O247    1.223   .     D
C58    O248    1.398   .     S
C58    C163    1.493   .     S
C59    C164    1.486   .     S
C59    O250    1.397   .     S
C59    O249    1.223   .     D
C60    C165    1.492   .     S
C60    O251    1.222   .     D
C60    O252    1.398   .     S
C61    O253    1.222   .     D
C61    C78     1.490   .     S
C61    O254    1.399   .     S
C62    O255    1.222   .     D
C62    O257    1.399   .     S
C62    C79     1.490   .     S
C63    O258    1.223   .     D
C63    C80     1.492   .     S
C63    O259    1.399   .     S
C64    O261    1.399   .     S
C64    C82     1.492   .     S
C64    O260    1.224   .     D
C65    O262    1.222   .     D
C65    O263    1.399   .     S
C65    C83     1.493   .     S
C66    O265    1.399   .     S
C66    O264    1.223   .     D
C66    C84     1.490   .     S
C67    C85     1.493   .     S
C67    O268    1.399   .     S
C67    O266    1.223   .     D
C68    H176    1.084   .     S
C68    C95     1.399   .     A
C68    C896    1.398   .     S
C69    O270    1.399   .     S
C69    O269    1.223   .     D
C69    C86     1.493   .     S
C70    C87     1.496   .     S
C70    O271    1.222   .     D
C70    O272    1.399   .     S
C71    O273    1.221   .     D
C71    C88     1.485   .     S
C71    O274    1.399   .     S
C72    O275    1.222   .     D
C72    O276    1.399   .     S
C72    C89     1.496   .     S
C73    O279    1.399   .     S
C73    C90     1.491   .     S
C73    O277    1.223   .     D
C74    O280    1.223   .     D
C74    O281    1.399   .     S
C74    C91     1.497   .     S
C75    C93     1.490   .     S
C75    O282    1.222   .     D
C75    O283    1.399   .     S
C76    C94     1.495   .     S
C76    O284    1.222   .     D
C76    O285    1.399   .     S
C77    O287    1.399   .     S
C77    O286    1.223   .     D
C77    C95     1.491   .     S
C78    C809    1.419   1_545 S
C79    C81     1.397   .     A
C79    C810    1.421   1_545 S
C80    C92     1.398   .     A
C80    C415    1.421   1_455 S
C81    H180    1.084   .     S
C81    C889    1.397   1_545 S
C82    C103    1.399   .     A
C82    C416    1.419   1_455 S
C83    C114    1.399   .     A
C84    C125    1.398   .     A
C85    C136    1.399   .     A
C86    C147    1.399   .     A
C87    C158    1.398   .     A
C87    C417    1.421   1_455 S
C92    H191    1.084   .     S
C92    C494    1.397   1_455 S
C93    C418    1.423   .     S
C94    C815    1.421   1_545 S
C95    C817    1.419   .     S
C96    C114    1.398   .     A
C96    C793    1.397   .     S
C96    C97     1.470   1_554 S
C97    C125    1.397   .     A
C97    C96     1.470   1_556 S
C97    C873    1.397   .     S
C98    C136    1.397   .     A
C98    C488    1.397   .     S
C98    C99     1.471   1_554 S
C99    C147    1.397   .     A
C99    C98     1.471   1_556 S
C99    C499    1.397   .     S
C100   C101    1.472   .     S
C100   C554    1.397   .     S
C101   C398    1.396   .     S
C102   C104    1.472   .     S
C102   C805    1.397   1_545 S
C103   H202    1.084   .     S
C103   C495    1.397   1_455 S
C104   C860    1.398   1_545 S
C105   O370    1.278   .     A
C105   O1118   1.279   1_545 S
C106   O234    1.277   .     A
C106   O1129   1.277   .     S
C107   O348    1.277   .     A
C107   O641    1.282   1_455 S
C108   O359    1.275   .     A
C108   O652    1.277   .     S
C109   O663    1.278   .     S
C109   O686    1.278   .     S
C110   O674    1.278   .     S
C110   O687    1.278   .     S
C111   O1080   1.278   .     S
C111   O1084   1.278   .     S
C112   O1081   1.277   .     S
C112   O1086   1.277   .     S
C113   C168    1.455   .     S
C113   O295    1.277   .     A
C113   O323    1.273   .     A
C114   H213    1.084   .     S
C115   O324    1.275   .     A
C115   O296    1.276   .     A
C116   O321    1.274   .     A
C116   O297    1.278   .     A
C117   O322    1.278   .     A
C117   O298    1.274   .     A
C118   O299    1.279   .     A
C118   O328    1.274   .     A
C119   O300    1.276   .     A
C119   O329    1.276   .     A
C120   C166    1.455   .     S
C120   O301    1.274   .     A
C120   O325    1.277   .     A
C121   O302    1.276   .     A
C121   C167    1.455   .     S
C121   O327    1.275   .     A
C122   O314    1.274   .     A
C122   O303    1.277   .     A
C123   O305    1.273   .     A
C123   O316    1.278   .     A
C124   O306    1.275   .     A
C124   O312    1.274   .     A
C125   H224    1.084   .     S
C126   O307    1.273   .     A
C126   O313    1.277   .     A
C127   O308    1.275   .     A
C127   O319    1.275   .     A
C128   O309    1.278   .     A
C128   O320    1.274   .     A
C129   O317    1.278   .     A
C129   O310    1.274   .     A
C130   O318    1.278   .     A
C130   O311    1.273   .     A
C131   C148    1.405   .     A
C132   C146    1.407   .     A
C133   C145    1.407   .     A
C134   C144    1.407   .     A
C135   C143    1.407   .     A
C136   H230    1.084   .     S
C137   C142    1.404   .     A
C138   C141    1.406   .     A
C139   C140    1.405   .     A
C145   C168    1.413   .     A
C146   C167    1.414   .     A
C147   H231    1.084   .     S
C148   C166    1.413   .     A
C149   C165    1.406   .     A
C149   C167    1.413   .     A
C150   C166    1.413   .     A
C150   C164    1.405   .     A
C151   C163    1.406   .     A
C152   C168    1.412   .     A
C152   C162    1.407   .     A
C153   C161    1.406   .     A
C154   C160    1.407   .     A
C155   C159    1.405   .     A
C156   C157    1.406   .     A
C158   H232    1.083   .     S
C158   C496    1.397   1_455 S
H177   O331    1.014   .     S
H178   O333    1.014   .     S
H179   O335    1.014   .     S
H181   O338    1.014   .     S
H182   O340    1.014   .     S
H183   O342    1.013   .     S
H184   O344    1.014   .     S
H185   O346    1.014   .     S
H186   O349    1.013   .     S
H187   O351    1.014   .     S
H188   O353    1.014   .     S
H189   O355    1.014   .     S
H190   O357    1.014   .     S
H192   O360    1.014   .     S
H193   O362    1.014   .     S
H194   O364    1.014   .     S
H195   O366    1.014   .     S
H196   O368    1.013   .     S
H197   O371    1.014   .     S
H198   O373    1.014   .     S
H199   O375    1.014   .     S
H200   O377    1.014   .     S
H201   O379    1.014   .     S
H203   O235    1.013   .     S
H204   O237    1.013   .     S
H205   O239    1.014   .     S
H206   O241    1.014   .     S
H207   O243    1.012   .     S
H208   O246    1.012   .     S
H209   O248    1.014   .     S
H210   O250    1.014   .     S
H211   O252    1.014   .     S
H212   O254    1.014   .     S
H214   O257    1.014   .     S
H215   O259    1.014   .     S
H216   O261    1.014   .     S
H217   O263    1.014   .     S
H218   O265    1.014   .     S
H219   O268    1.014   .     S
H220   O270    1.014   .     S
H221   O272    1.014   .     S
H222   O274    1.014   .     S
H223   O276    1.014   .     S
H225   O279    1.014   .     S
H226   O281    1.014   .     S
H227   O283    1.014   .     S
H228   O285    1.014   .     S
H229   O287    1.013   .     S
O233   Zn384   1.943   .     S
O233   Zn381   1.941   .     S
O233   Zn1180  1.944   1_545 S
O233   Zn392   1.943   .     S
O234   Zn383   1.938   .     S
O245   Zn386   1.937   .     S
O245   C503    1.282   .     S
O256   Zn385   1.937   .     S
O256   C504    1.277   1_455 S
O267   Zn395   1.937   .     S
O267   C505    1.278   1_455 S
O278   Zn394   1.937   .     S
O278   C506    1.278   1_455 S
O288   Zn389   1.938   .     S
O288   C903    1.278   1_545 S
O289   C904    1.277   1_545 S
O289   Zn381   1.938   .     S
O290   Zn391   1.938   .     S
O290   C505    1.278   1_455 S
O291   Zn390   1.938   .     S
O291   C506    1.278   1_455 S
O292   Zn393   1.937   .     S
O292   C903    1.278   1_545 S
O293   Zn393   1.943   .     S
O293   Zn389   1.941   .     S
O293   Zn387   1.944   .     S
O293   Zn1175  1.943   1_545 S
O294   C904    1.277   1_545 S
O294   Zn392   1.937   .     S
O295   Zn384   1.933   .     S
O296   Zn383   1.933   .     S
O297   Zn386   1.934   .     S
O298   Zn385   1.934   .     S
O299   Zn388   1.933   .     S
O300   Zn387   1.933   .     S
O301   Zn382   1.935   .     S
O302   Zn396   1.935   .     S
O303   Zn383   1.934   .     S
O304   Zn782   1.943   1_455 S
O304   Zn382   1.941   .     S
O304   Zn390   1.943   .     S
O304   Zn394   1.944   .     S
O305   Zn384   1.934   .     S
O306   Zn396   1.934   .     S
O307   Zn382   1.934   .     S
O308   Zn387   1.933   .     S
O309   Zn388   1.933   .     S
O310   Zn385   1.934   .     S
O311   Zn386   1.934   .     S
O312   Zn787   1.933   .     S
O313   Zn390   1.933   .     S
O314   Zn1185  1.934   .     S
O315   Zn391   1.943   .     S
O315   Zn395   1.944   .     S
O315   Zn385   1.943   .     S
O315   Zn792   1.941   1_455 S
O316   Zn392   1.934   .     S
O317   Zn395   1.933   .     S
O318   Zn790   1.933   .     S
O319   Zn389   1.935   .     S
O320   Zn1173  1.935   .     S
O321   Zn786   1.934   .     S
O322   Zn391   1.934   .     S
O323   Zn381   1.934   .     S
O324   Zn1181  1.934   .     S
O325   Zn394   1.933   .     S
O326   Zn388   1.937   .     S
O326   C897    1.279   .     S
O327   Zn791   1.933   .     S
O328   Zn1184  1.934   .     S
O329   Zn393   1.934   .     S
O337   Zn387   1.937   .     S
O337   C898    1.277   1_545 S
O348   Zn382   1.938   .     S
O359   Zn396   1.938   .     S
O370   Zn384   1.938   .     S
Zn381  O1112   1.935   1_545 S
Zn383  O1085   1.943   .     S
Zn386  O700    1.943   .     S
Zn388  O1025   1.944   .     S
Zn389  O1116   1.934   1_545 S
Zn390  O717    1.934   1_455 S
Zn391  O708    1.933   1_455 S
Zn392  O1120   1.934   1_545 S
Zn393  O1106   1.934   1_545 S
Zn394  O714    1.933   1_455 S
Zn395  O723    1.933   1_455 S
Zn396  O711    1.941   .     S
C397   C474    1.397   .     A
C397   H565    1.084   .     S
C397   C1284   1.397   1_545 S
C398   H566    1.085   .     S
C398   C484    1.394   .     A
C399   C540    1.415   .     A
C399   C511    1.456   .     S
C399   C547    1.414   .     A
C400   C550    1.413   .     A
C400   C512    1.456   .     S
C400   C539    1.414   .     A
C401   C538    1.410   .     A
C401   C513    1.455   .     S
C401   C549    1.413   .     A
C402   C537    1.415   .     A
C402   C552    1.413   .     A
C402   C514    1.455   .     S
C403   C515    1.455   .     S
C403   C536    1.413   .     A
C403   C551    1.415   .     A
C404   C525    1.455   .     S
C404   C555    1.412   .     A
C404   C535    1.410   .     A
C405   C534    1.412   .     A
C405   C526    1.454   .     S
C405   C553    1.411   .     A
C406   C518    1.456   .     S
C406   C557    1.412   .     A
C406   C533    1.412   .     A
C407   C556    1.411   .     A
C407   C519    1.455   .     S
C407   C531    1.413   .     A
C408   C559    1.412   .     A
C408   C530    1.412   .     A
C408   C520    1.452   .     S
C409   H567    1.084   .     S
C409   C485    1.399   .     A
C409   C1290   1.397   .     S
C410   C522    1.455   .     S
C410   C558    1.411   .     A
C410   C529    1.413   .     A
C411   C528    1.413   .     A
C411   C561    1.413   .     A
C411   C523    1.455   .     S
C412   C527    1.412   .     A
C412   C560    1.410   .     A
C412   C524    1.456   .     S
C413   C479    1.421   .     A
C413   C508    1.459   .     S
C413   C1266   1.419   .     S
C414   C480    1.421   .     A
C414   C507    1.463   .     S
C414   C1267   1.421   .     S
C415   C481    1.421   .     A
C415   C506    1.461   .     S
C415   C80     1.421   1_655 S
C416   C482    1.421   .     A
C416   C505    1.460   .     S
C416   C82     1.419   1_655 S
C417   C504    1.455   .     S
C417   C487    1.421   .     A
C417   C87     1.421   1_655 S
C418   C503    1.467   .     S
C418   C484    1.422   .     A
C419   C485    1.422   .     A
C419   C502    1.457   .     S
C419   C1282   1.421   .     S
C420   C486    1.398   .     A
C420   C500    1.398   .     A
C420   H568    1.084   .     S
C421   C501    1.462   .     S
C421   C486    1.421   .     A
C421   C1283   1.419   1_545 S
C422   O726    1.223   .     D
C422   C527    1.486   .     S
C422   O727    1.398   .     S
C423   C528    1.492   .     S
C423   O728    1.223   .     D
C423   O729    1.398   .     S
C424   O730    1.223   .     D
C424   C529    1.492   .     S
C424   O731    1.398   .     S
C425   C530    1.492   .     S
C425   O734    1.398   .     S
C425   O732    1.223   .     D
C426   O735    1.222   .     D
C426   O736    1.398   .     S
C426   C531    1.490   .     S
C427   C533    1.487   .     S
C427   O738    1.397   .     S
C427   O737    1.222   .     D
C428   C534    1.492   .     S
C428   O739    1.223   .     D
C428   O740    1.398   .     S
C429   C535    1.485   .     S
C429   O742    1.397   .     S
C429   O741    1.223   .     D
C430   O745    1.398   .     S
C430   C536    1.489   .     S
C430   O743    1.222   .     D
C431   H569    1.083   .     S
C431   C496    1.398   .     A
C431   C487    1.398   .     A
C432   O747    1.398   .     S
C432   C537    1.490   .     S
C432   O746    1.222   .     D
C433   C538    1.486   .     S
C433   O749    1.397   .     S
C433   O748    1.223   .     D
C434   C539    1.491   .     S
C434   O751    1.398   .     S
C434   O750    1.223   .     D
C435   O753    1.397   .     S
C435   C540    1.491   .     S
C435   O752    1.223   .     D
C436   C541    1.489   .     S
C436   O754    1.222   .     D
C436   O756    1.399   .     S
C437   O758    1.398   .     S
C437   C542    1.491   .     S
C437   O757    1.223   .     D
C438   O760    1.398   .     S
C438   C544    1.492   .     S
C438   O759    1.223   .     D
C439   O762    1.398   .     S
C439   C545    1.490   .     S
C439   O761    1.222   .     D
C440   O763    1.222   .     D
C440   C546    1.489   .     S
C440   O764    1.398   .     S
C441   C547    1.487   .     S
C441   O767    1.398   .     S
C441   O765    1.222   .     D
C442   H570    1.084   .     S
C442   C497    1.398   .     A
C442   C489    1.399   .     A
C443   C548    1.491   .     S
C443   O769    1.398   .     S
C443   O768    1.223   .     D
C444   C549    1.488   .     S
C444   O771    1.398   .     S
C444   O770    1.222   .     D
C445   O773    1.398   .     S
C445   C550    1.491   .     S
C445   O772    1.222   .     D
C446   O774    1.222   .     D
C446   C551    1.494   .     S
C446   O775    1.398   .     S
C447   O631    1.398   .     S
C447   O776    1.223   .     D
C447   C552    1.493   .     S
C448   O632    1.223   .     D
C448   C553    1.487   .     S
C448   O633    1.397   .     S
C449   C555    1.487   .     S
C449   O635    1.398   .     S
C449   O634    1.222   .     D
C450   C556    1.489   .     S
C450   O637    1.398   .     S
C450   O636    1.223   .     D
C451   O638    1.223   .     D
C451   C557    1.491   .     S
C451   O639    1.398   .     S
C452   C558    1.488   .     S
C452   O640    1.223   .     D
C452   O642    1.397   .     S
C453   C498    1.397   .     A
C453   H571    1.084   .     S
C453   C490    1.398   .     A
C454   O643    1.223   .     D
C454   O644    1.398   .     S
C454   C559    1.493   .     S
C455   C560    1.486   .     S
C455   O646    1.397   .     S
C455   O645    1.223   .     D
C456   C561    1.492   .     S
C456   O647    1.222   .     D
C456   O648    1.398   .     S
C457   O649    1.222   .     D
C457   C474    1.490   .     S
C457   O650    1.399   .     S
C458   O651    1.222   .     D
C458   O653    1.399   .     S
C458   C475    1.490   .     S
C459   O654    1.223   .     D
C459   C476    1.492   .     S
C459   O655    1.399   .     S
C460   O657    1.399   .     S
C460   C478    1.492   .     S
C460   O656    1.224   .     D
C461   O658    1.222   .     D
C461   O659    1.399   .     S
C461   C479    1.493   .     S
C462   O661    1.399   .     S
C462   O660    1.223   .     D
C462   C480    1.490   .     S
C463   C481    1.493   .     S
C463   O664    1.399   .     S
C463   O662    1.223   .     D
C464   H572    1.084   .     S
C464   C491    1.399   .     A
C464   C1292   1.398   .     S
C465   O666    1.399   .     S
C465   O665    1.223   .     D
C465   C482    1.493   .     S
C466   C483    1.496   .     S
C466   O667    1.222   .     D
C466   O668    1.399   .     S
C467   O669    1.221   .     D
C467   C484    1.485   .     S
C467   O670    1.399   .     S
C468   O671    1.222   .     D
C468   O672    1.399   .     S
C468   C485    1.496   .     S
C469   O675    1.399   .     S
C469   C486    1.491   .     S
C469   O673    1.223   .     D
C470   O676    1.223   .     D
C470   O677    1.399   .     S
C470   C487    1.497   .     S
C471   C489    1.490   .     S
C471   O678    1.222   .     D
C471   O679    1.399   .     S
C472   C490    1.495   .     S
C472   O680    1.222   .     D
C472   O681    1.399   .     S
C473   O683    1.399   .     S
C473   O682    1.223   .     D
C473   C491    1.491   .     S
C474   C1205   1.419   1_545 S
C475   C477    1.397   .     A
C475   C1206   1.421   1_545 S
C476   C488    1.398   .     A
C477   H576    1.084   .     S
C477   C1285   1.397   1_545 S
C478   C499    1.399   .     A
C479   C510    1.399   .     A
C480   C521    1.398   .     A
C481   C532    1.399   .     A
C482   C543    1.399   .     A
C483   C554    1.398   .     A
C488   H587    1.084   .     S
C489   C22     1.423   1_655 S
C490   C1211   1.421   1_545 S
C491   C1213   1.419   .     S
C492   C510    1.398   .     A
C492   C1189   1.397   .     S
C492   C493    1.470   1_554 S
C493   C521    1.397   .     A
C493   C492    1.470   1_556 S
C493   C1269   1.397   .     S
C494   C532    1.397   .     A
C494   C92     1.397   1_655 S
C494   C495    1.471   1_554 S
C495   C543    1.397   .     A
C495   C494    1.471   1_556 S
C495   C103    1.397   1_655 S
C496   C497    1.472   .     S
C496   C158    1.397   1_655 S
C497   C2      1.396   1_655 S
C498   C500    1.472   .     S
C498   C1201   1.397   1_545 S
C499   H598    1.084   .     S
C500   C1256   1.398   1_545 S
C501   O766    1.278   .     A
C501   O1514   1.279   1_545 S
C502   O630    1.277   .     A
C502   O1525   1.277   .     S
C503   O744    1.277   .     A
C504   O755    1.275   .     A
C504   O256    1.277   1_655 S
C505   O267    1.278   1_655 S
C505   O290    1.278   1_655 S
C506   O278    1.278   1_655 S
C506   O291    1.278   1_655 S
C507   O1476   1.278   .     S
C507   O1480   1.278   .     S
C508   O1477   1.277   .     S
C508   O1482   1.277   .     S
C509   C564    1.455   .     S
C509   O691    1.277   .     A
C509   O719    1.273   .     A
C510   H609    1.084   .     S
C511   O720    1.275   .     A
C511   O692    1.276   .     A
C512   O717    1.274   .     A
C512   O693    1.278   .     A
C513   O718    1.278   .     A
C513   O694    1.274   .     A
C514   O695    1.279   .     A
C514   O724    1.274   .     A
C515   O696    1.276   .     A
C515   O725    1.276   .     A
C516   C562    1.455   .     S
C516   O697    1.274   .     A
C516   O721    1.277   .     A
C517   O698    1.276   .     A
C517   C563    1.455   .     S
C517   O723    1.275   .     A
C518   O710    1.274   .     A
C518   O699    1.277   .     A
C519   O701    1.273   .     A
C519   O712    1.278   .     A
C520   O702    1.275   .     A
C520   O708    1.274   .     A
C521   H620    1.084   .     S
C522   O703    1.273   .     A
C522   O709    1.277   .     A
C523   O704    1.275   .     A
C523   O715    1.275   .     A
C524   O705    1.278   .     A
C524   O716    1.274   .     A
C525   O713    1.278   .     A
C525   O706    1.274   .     A
C526   O714    1.278   .     A
C526   O707    1.273   .     A
C527   C544    1.405   .     A
C528   C542    1.407   .     A
C529   C541    1.407   .     A
C530   C540    1.407   .     A
C531   C539    1.407   .     A
C532   H626    1.084   .     S
C533   C538    1.404   .     A
C534   C537    1.406   .     A
C535   C536    1.405   .     A
C541   C564    1.413   .     A
C542   C563    1.414   .     A
C543   H627    1.084   .     S
C544   C562    1.413   .     A
C545   C561    1.406   .     A
C545   C563    1.413   .     A
C546   C562    1.413   .     A
C546   C560    1.405   .     A
C547   C559    1.406   .     A
C548   C564    1.412   .     A
C548   C558    1.407   .     A
C549   C557    1.406   .     A
C550   C556    1.407   .     A
C551   C555    1.405   .     A
C552   C553    1.406   .     A
C554   H628    1.083   .     S
H573   O727    1.014   .     S
H574   O729    1.014   .     S
H575   O731    1.014   .     S
H577   O734    1.014   .     S
H578   O736    1.014   .     S
H579   O738    1.013   .     S
H580   O740    1.014   .     S
H581   O742    1.014   .     S
H582   O745    1.013   .     S
H583   O747    1.014   .     S
H584   O749    1.014   .     S
H585   O751    1.014   .     S
H586   O753    1.014   .     S
H588   O756    1.014   .     S
H589   O758    1.014   .     S
H590   O760    1.014   .     S
H591   O762    1.014   .     S
H592   O764    1.013   .     S
H593   O767    1.014   .     S
H594   O769    1.014   .     S
H595   O771    1.014   .     S
H596   O773    1.014   .     S
H597   O775    1.014   .     S
H599   O631    1.013   .     S
H600   O633    1.013   .     S
H601   O635    1.014   .     S
H602   O637    1.014   .     S
H603   O639    1.012   .     S
H604   O642    1.012   .     S
H605   O644    1.014   .     S
H606   O646    1.014   .     S
H607   O648    1.014   .     S
H608   O650    1.014   .     S
H610   O653    1.014   .     S
H611   O655    1.014   .     S
H612   O657    1.014   .     S
H613   O659    1.014   .     S
H614   O661    1.014   .     S
H615   O664    1.014   .     S
H616   O666    1.014   .     S
H617   O668    1.014   .     S
H618   O670    1.014   .     S
H619   O672    1.014   .     S
H621   O675    1.014   .     S
H622   O677    1.014   .     S
H623   O679    1.014   .     S
H624   O681    1.014   .     S
H625   O683    1.013   .     S
O629   Zn780   1.943   .     S
O629   Zn777   1.941   .     S
O629   Zn1576  1.944   1_545 S
O629   Zn788   1.943   .     S
O630   Zn779   1.938   .     S
O641   Zn782   1.937   .     S
O641   C107    1.282   1_655 S
O652   Zn781   1.937   .     S
O663   Zn791   1.937   .     S
O674   Zn790   1.937   .     S
O684   Zn785   1.938   .     S
O684   C1299   1.278   1_545 S
O685   C1300   1.277   1_545 S
O685   Zn777   1.938   .     S
O686   Zn787   1.938   .     S
O687   Zn786   1.938   .     S
O688   Zn789   1.937   .     S
O688   C1299   1.278   1_545 S
O689   Zn789   1.943   .     S
O689   Zn785   1.941   .     S
O689   Zn783   1.944   .     S
O689   Zn1571  1.943   1_545 S
O690   C1300   1.277   1_545 S
O690   Zn788   1.937   .     S
O691   Zn780   1.933   .     S
O692   Zn779   1.933   .     S
O693   Zn782   1.934   .     S
O694   Zn781   1.934   .     S
O695   Zn784   1.933   .     S
O696   Zn783   1.933   .     S
O697   Zn778   1.935   .     S
O698   Zn792   1.935   .     S
O699   Zn779   1.934   .     S
O700   Zn778   1.941   .     S
O700   Zn786   1.943   .     S
O700   Zn790   1.944   .     S
O701   Zn780   1.934   .     S
O702   Zn792   1.934   .     S
O703   Zn778   1.934   .     S
O704   Zn783   1.933   .     S
O705   Zn784   1.933   .     S
O706   Zn781   1.934   .     S
O707   Zn782   1.934   .     S
O708   Zn391   1.933   1_655 S
O709   Zn786   1.933   .     S
O710   Zn1581  1.934   .     S
O711   Zn787   1.943   .     S
O711   Zn791   1.944   .     S
O711   Zn781   1.943   .     S
O712   Zn788   1.934   .     S
O713   Zn791   1.933   .     S
O714   Zn394   1.933   1_655 S
O715   Zn785   1.935   .     S
O716   Zn1569  1.935   .     S
O717   Zn390   1.934   1_655 S
O718   Zn787   1.934   .     S
O719   Zn777   1.934   .     S
O720   Zn1577  1.934   .     S
O721   Zn790   1.933   .     S
O722   Zn784   1.937   .     S
O722   C1293   1.279   .     S
O723   Zn395   1.933   1_655 S
O724   Zn1580  1.934   .     S
O725   Zn789   1.934   .     S
O733   Zn783   1.937   .     S
O733   C1294   1.277   1_545 S
O744   Zn778   1.938   .     S
O755   Zn792   1.938   .     S
O766   Zn780   1.938   .     S
Zn777  O1508   1.935   1_545 S
Zn779  O1481   1.943   .     S
Zn782  O304    1.943   1_655 S
Zn784  O1421   1.944   .     S
Zn785  O1512   1.934   1_545 S
Zn788  O1516   1.934   1_545 S
Zn789  O1502   1.934   1_545 S
Zn792  O315    1.941   1_655 S
C793   C870    1.397   .     A
C793   H961    1.084   .     S
C794   H962    1.085   .     S
C794   C880    1.394   .     A
C794   C1289   1.396   1_455 S
C795   C936    1.415   .     A
C795   C907    1.456   .     S
C795   C943    1.414   .     A
C796   C946    1.413   .     A
C796   C908    1.456   .     S
C796   C935    1.414   .     A
C797   C934    1.410   .     A
C797   C909    1.455   .     S
C797   C945    1.413   .     A
C798   C933    1.415   .     A
C798   C948    1.413   .     A
C798   C910    1.455   .     S
C799   C911    1.455   .     S
C799   C932    1.413   .     A
C799   C947    1.415   .     A
C800   C921    1.455   .     S
C800   C951    1.412   .     A
C800   C931    1.410   .     A
C801   C930    1.412   .     A
C801   C922    1.454   .     S
C801   C949    1.411   .     A
C802   C914    1.456   .     S
C802   C953    1.412   .     A
C802   C929    1.412   .     A
C803   C952    1.411   .     A
C803   C915    1.455   .     S
C803   C927    1.413   .     A
C804   C955    1.412   .     A
C804   C926    1.412   .     A
C804   C916    1.452   .     S
C805   H963    1.084   .     S
C805   C881    1.399   .     A
C805   C102    1.397   1_565 S
C806   C918    1.455   .     S
C806   C954    1.411   .     A
C806   C925    1.413   .     A
C807   C924    1.413   .     A
C807   C957    1.413   .     A
C807   C919    1.455   .     S
C808   C923    1.412   .     A
C808   C956    1.410   .     A
C808   C920    1.456   .     S
C809   C875    1.421   .     A
C809   C904    1.459   .     S
C809   C78     1.419   1_565 S
C810   C876    1.421   .     A
C810   C903    1.463   .     S
C810   C79     1.421   1_565 S
C811   C877    1.421   .     A
C811   C902    1.461   .     S
C811   C1268   1.421   .     S
C812   C878    1.421   .     A
C812   C901    1.460   .     S
C812   C1270   1.419   .     S
C813   C900    1.455   .     S
C813   C883    1.421   .     A
C813   C1275   1.421   .     S
C814   C899    1.467   .     S
C814   C880    1.422   .     A
C814   C1281   1.423   1_455 S
C815   C881    1.422   .     A
C815   C898    1.457   .     S
C815   C94     1.421   1_565 S
C816   C882    1.398   .     A
C816   C896    1.398   .     A
C816   H964    1.084   .     S
C817   C897    1.462   .     S
C817   C882    1.421   .     A
C818   O1122   1.223   .     D
C818   C923    1.486   .     S
C818   O1123   1.398   .     S
C819   C924    1.492   .     S
C819   O1124   1.223   .     D
C819   O1125   1.398   .     S
C820   O1126   1.223   .     D
C820   C925    1.492   .     S
C820   O1127   1.398   .     S
C821   C926    1.492   .     S
C821   O1130   1.398   .     S
C821   O1128   1.223   .     D
C822   O1131   1.222   .     D
C822   O1132   1.398   .     S
C822   C927    1.490   .     S
C823   C929    1.487   .     S
C823   O1134   1.397   .     S
C823   O1133   1.222   .     D
C824   C930    1.492   .     S
C824   O1135   1.223   .     D
C824   O1136   1.398   .     S
C825   C931    1.485   .     S
C825   O1138   1.397   .     S
C825   O1137   1.223   .     D
C826   O1141   1.398   .     S
C826   C932    1.489   .     S
C826   O1139   1.222   .     D
C827   H965    1.083   .     S
C827   C892    1.398   .     A
C827   C883    1.398   .     A
C828   O1143   1.398   .     S
C828   C933    1.490   .     S
C828   O1142   1.222   .     D
C829   C934    1.486   .     S
C829   O1145   1.397   .     S
C829   O1144   1.223   .     D
C830   C935    1.491   .     S
C830   O1147   1.398   .     S
C830   O1146   1.223   .     D
C831   O1149   1.397   .     S
C831   C936    1.491   .     S
C831   O1148   1.223   .     D
C832   C937    1.489   .     S
C832   O1150   1.222   .     D
C832   O1152   1.399   .     S
C833   O1154   1.398   .     S
C833   C938    1.491   .     S
C833   O1153   1.223   .     D
C834   O1156   1.398   .     S
C834   C940    1.492   .     S
C834   O1155   1.223   .     D
C835   O1158   1.398   .     S
C835   C941    1.490   .     S
C835   O1157   1.222   .     D
C836   O1159   1.222   .     D
C836   C942    1.489   .     S
C836   O1160   1.398   .     S
C837   C943    1.487   .     S
C837   O1163   1.398   .     S
C837   O1161   1.222   .     D
C838   H966    1.084   .     S
C838   C893    1.398   .     A
C838   C885    1.399   .     A
C839   C944    1.491   .     S
C839   O1165   1.398   .     S
C839   O1164   1.223   .     D
C840   C945    1.488   .     S
C840   O1167   1.398   .     S
C840   O1166   1.222   .     D
C841   O1169   1.398   .     S
C841   C946    1.491   .     S
C841   O1168   1.222   .     D
C842   O1170   1.222   .     D
C842   C947    1.494   .     S
C842   O1171   1.398   .     S
C843   O1027   1.398   .     S
C843   O1172   1.223   .     D
C843   C948    1.493   .     S
C844   O1028   1.223   .     D
C844   C949    1.487   .     S
C844   O1029   1.397   .     S
C845   C951    1.487   .     S
C845   O1031   1.398   .     S
C845   O1030   1.222   .     D
C846   C952    1.489   .     S
C846   O1033   1.398   .     S
C846   O1032   1.223   .     D
C847   O1034   1.223   .     D
C847   C953    1.491   .     S
C847   O1035   1.398   .     S
C848   C954    1.488   .     S
C848   O1036   1.223   .     D
C848   O1038   1.397   .     S
C849   C894    1.397   .     A
C849   H967    1.084   .     S
C849   C886    1.398   .     A
C850   O1039   1.223   .     D
C850   O1040   1.398   .     S
C850   C955    1.493   .     S
C851   C956    1.486   .     S
C851   O1042   1.397   .     S
C851   O1041   1.223   .     D
C852   C957    1.492   .     S
C852   O1043   1.222   .     D
C852   O1044   1.398   .     S
C853   O1045   1.222   .     D
C853   C870    1.490   .     S
C853   O1046   1.399   .     S
C854   O1047   1.222   .     D
C854   O1049   1.399   .     S
C854   C871    1.490   .     S
C855   O1050   1.223   .     D
C855   C872    1.492   .     S
C855   O1051   1.399   .     S
C856   O1053   1.399   .     S
C856   C874    1.492   .     S
C856   O1052   1.224   .     D
C857   O1054   1.222   .     D
C857   O1055   1.399   .     S
C857   C875    1.493   .     S
C858   O1057   1.399   .     S
C858   O1056   1.223   .     D
C858   C876    1.490   .     S
C859   C877    1.493   .     S
C859   O1060   1.399   .     S
C859   O1058   1.223   .     D
C860   H968    1.084   .     S
C860   C887    1.399   .     A
C860   C104    1.398   1_565 S
C861   O1062   1.399   .     S
C861   O1061   1.223   .     D
C861   C878    1.493   .     S
C862   C879    1.496   .     S
C862   O1063   1.222   .     D
C862   O1064   1.399   .     S
C863   O1065   1.221   .     D
C863   C880    1.485   .     S
C863   O1066   1.399   .     S
C864   O1067   1.222   .     D
C864   O1068   1.399   .     S
C864   C881    1.496   .     S
C865   O1071   1.399   .     S
C865   C882    1.491   .     S
C865   O1069   1.223   .     D
C866   O1072   1.223   .     D
C866   O1073   1.399   .     S
C866   C883    1.497   .     S
C867   C885    1.490   .     S
C867   O1074   1.222   .     D
C867   O1075   1.399   .     S
C868   C886    1.495   .     S
C868   O1076   1.222   .     D
C868   O1077   1.399   .     S
C869   O1079   1.399   .     S
C869   O1078   1.223   .     D
C869   C887    1.491   .     S
C871   C873    1.397   .     A
C872   C884    1.398   .     A
C872   C1207   1.421   1_455 S
C873   H972    1.084   .     S
C874   C895    1.399   .     A
C874   C1208   1.419   1_455 S
C875   C906    1.399   .     A
C876   C917    1.398   .     A
C877   C928    1.399   .     A
C878   C939    1.399   .     A
C879   C950    1.398   .     A
C879   C1209   1.421   1_455 S
C884   H983    1.084   .     S
C884   C1286   1.397   1_455 S
C885   C1210   1.423   .     S
C887   C25     1.419   1_565 S
C888   C906    1.398   .     A
C888   C1      1.397   1_565 S
C888   C889    1.470   1_554 S
C889   C917    1.397   .     A
C889   C888    1.470   1_556 S
C889   C81     1.397   1_565 S
C890   C928    1.397   .     A
C890   C1280   1.397   .     S
C890   C891    1.471   1_554 S
C891   C939    1.397   .     A
C891   C890    1.471   1_556 S
C891   C1291   1.397   .     S
C892   C893    1.472   .     S
C892   C1346   1.397   .     S
C893   C1190   1.396   .     S
C894   C896    1.472   .     S
C895   H994    1.084   .     S
C895   C1287   1.397   1_455 S
C897   O1162   1.278   .     A
C898   O1026   1.277   .     A
C898   O337    1.277   1_565 S
C899   O1140   1.277   .     A
C899   O1433   1.282   1_455 S
C900   O1151   1.275   .     A
C900   O1444   1.277   .     S
C901   O1455   1.278   .     S
C901   O1478   1.278   .     S
C902   O1466   1.278   .     S
C902   O1479   1.278   .     S
C903   O288    1.278   1_565 S
C903   O292    1.278   1_565 S
C904   O289    1.277   1_565 S
C904   O294    1.277   1_565 S
C905   C960    1.455   .     S
C905   O1087   1.277   .     A
C905   O1115   1.273   .     A
C906   H1005   1.084   .     S
C907   O1116   1.275   .     A
C907   O1088   1.276   .     A
C908   O1113   1.274   .     A
C908   O1089   1.278   .     A
C909   O1114   1.278   .     A
C909   O1090   1.274   .     A
C910   O1091   1.279   .     A
C910   O1120   1.274   .     A
C911   O1092   1.276   .     A
C911   O1121   1.276   .     A
C912   C958    1.455   .     S
C912   O1093   1.274   .     A
C912   O1117   1.277   .     A
C913   O1094   1.276   .     A
C913   C959    1.455   .     S
C913   O1119   1.275   .     A
C914   O1106   1.274   .     A
C914   O1095   1.277   .     A
C915   O1097   1.273   .     A
C915   O1108   1.278   .     A
C916   O1098   1.275   .     A
C916   O1104   1.274   .     A
C917   H1016   1.084   .     S
C918   O1099   1.273   .     A
C918   O1105   1.277   .     A
C919   O1100   1.275   .     A
C919   O1111   1.275   .     A
C920   O1101   1.278   .     A
C920   O1112   1.274   .     A
C921   O1109   1.278   .     A
C921   O1102   1.274   .     A
C922   O1110   1.278   .     A
C922   O1103   1.273   .     A
C923   C940    1.405   .     A
C924   C938    1.407   .     A
C925   C937    1.407   .     A
C926   C936    1.407   .     A
C927   C935    1.407   .     A
C928   H1022   1.084   .     S
C929   C934    1.404   .     A
C930   C933    1.406   .     A
C931   C932    1.405   .     A
C937   C960    1.413   .     A
C938   C959    1.414   .     A
C939   H1023   1.084   .     S
C940   C958    1.413   .     A
C941   C957    1.406   .     A
C941   C959    1.413   .     A
C942   C958    1.413   .     A
C942   C956    1.405   .     A
C943   C955    1.406   .     A
C944   C960    1.412   .     A
C944   C954    1.407   .     A
C945   C953    1.406   .     A
C946   C952    1.407   .     A
C947   C951    1.405   .     A
C948   C949    1.406   .     A
C950   H1024   1.083   .     S
C950   C1288   1.397   1_455 S
H969   O1123   1.014   .     S
H970   O1125   1.014   .     S
H971   O1127   1.014   .     S
H973   O1130   1.014   .     S
H974   O1132   1.014   .     S
H975   O1134   1.013   .     S
H976   O1136   1.014   .     S
H977   O1138   1.014   .     S
H978   O1141   1.013   .     S
H979   O1143   1.014   .     S
H980   O1145   1.014   .     S
H981   O1147   1.014   .     S
H982   O1149   1.014   .     S
H984   O1152   1.014   .     S
H985   O1154   1.014   .     S
H986   O1156   1.014   .     S
H987   O1158   1.014   .     S
H988   O1160   1.013   .     S
H989   O1163   1.014   .     S
H990   O1165   1.014   .     S
H991   O1167   1.014   .     S
H992   O1169   1.014   .     S
H993   O1171   1.014   .     S
H995   O1027   1.013   .     S
H996   O1029   1.013   .     S
H997   O1031   1.014   .     S
H998   O1033   1.014   .     S
H999   O1035   1.012   .     S
H1000  O1038   1.012   .     S
H1001  O1040   1.014   .     S
H1002  O1042   1.014   .     S
H1003  O1044   1.014   .     S
H1004  O1046   1.014   .     S
H1006  O1049   1.014   .     S
H1007  O1051   1.014   .     S
H1008  O1053   1.014   .     S
H1009  O1055   1.014   .     S
H1010  O1057   1.014   .     S
H1011  O1060   1.014   .     S
H1012  O1062   1.014   .     S
H1013  O1064   1.014   .     S
H1014  O1066   1.014   .     S
H1015  O1068   1.014   .     S
H1017  O1071   1.014   .     S
H1018  O1073   1.014   .     S
H1019  O1075   1.014   .     S
H1020  O1077   1.014   .     S
H1021  O1079   1.013   .     S
O1025  Zn1176  1.943   .     S
O1025  Zn1173  1.941   .     S
O1025  Zn1184  1.943   .     S
O1026  Zn1175  1.938   .     S
O1037  Zn1178  1.937   .     S
O1037  C1295   1.282   .     S
O1048  Zn1177  1.937   .     S
O1048  C1296   1.277   1_455 S
O1059  Zn1187  1.937   .     S
O1059  C1297   1.278   1_455 S
O1070  Zn1186  1.937   .     S
O1070  C1298   1.278   1_455 S
O1080  Zn1181  1.938   .     S
O1081  Zn1173  1.938   .     S
O1082  Zn1183  1.938   .     S
O1082  C1297   1.278   1_455 S
O1083  Zn1182  1.938   .     S
O1083  C1298   1.278   1_455 S
O1084  Zn1185  1.937   .     S
O1085  Zn1185  1.943   .     S
O1085  Zn1181  1.941   .     S
O1085  Zn1179  1.944   .     S
O1086  Zn1184  1.937   .     S
O1087  Zn1176  1.933   .     S
O1088  Zn1175  1.933   .     S
O1089  Zn1178  1.934   .     S
O1090  Zn1177  1.934   .     S
O1091  Zn1180  1.933   .     S
O1092  Zn1179  1.933   .     S
O1093  Zn1174  1.935   .     S
O1094  Zn1188  1.935   .     S
O1095  Zn1175  1.934   .     S
O1096  Zn1574  1.943   1_455 S
O1096  Zn1174  1.941   .     S
O1096  Zn1182  1.943   .     S
O1096  Zn1186  1.944   .     S
O1097  Zn1176  1.934   .     S
O1098  Zn1188  1.934   .     S
O1099  Zn1174  1.934   .     S
O1100  Zn1179  1.933   .     S
O1101  Zn1180  1.933   .     S
O1102  Zn1177  1.934   .     S
O1103  Zn1178  1.934   .     S
O1104  Zn1579  1.933   .     S
O1105  Zn1182  1.933   .     S
O1106  Zn393   1.934   1_565 S
O1107  Zn1183  1.943   .     S
O1107  Zn1187  1.944   .     S
O1107  Zn1177  1.943   .     S
O1107  Zn1584  1.941   1_455 S
O1108  Zn1184  1.934   .     S
O1109  Zn1187  1.933   .     S
O1110  Zn1582  1.933   .     S
O1111  Zn1181  1.935   .     S
O1112  Zn381   1.935   1_565 S
O1113  Zn1578  1.934   .     S
O1114  Zn1183  1.934   .     S
O1115  Zn1173  1.934   .     S
O1116  Zn389   1.934   1_565 S
O1117  Zn1186  1.933   .     S
O1118  Zn1180  1.937   .     S
O1118  C105    1.279   1_565 S
O1119  Zn1583  1.933   .     S
O1120  Zn392   1.934   1_565 S
O1121  Zn1185  1.934   .     S
O1129  Zn1179  1.937   .     S
O1140  Zn1174  1.938   .     S
O1151  Zn1188  1.938   .     S
O1162  Zn1176  1.938   .     S
Zn1175 O293    1.943   1_565 S
Zn1178 O1492   1.943   .     S
Zn1180 O233    1.944   1_565 S
Zn1182 O1509   1.934   1_455 S
Zn1183 O1500   1.933   1_455 S
Zn1186 O1506   1.933   1_455 S
Zn1187 O1515   1.933   1_455 S
Zn1188 O1503   1.941   .     S
C1189  C1266   1.397   .     A
C1189  H1357   1.084   .     S
C1190  H1358   1.085   .     S
C1190  C1276   1.394   .     A
C1191  C1332   1.415   .     A
C1191  C1303   1.456   .     S
C1191  C1339   1.414   .     A
C1192  C1342   1.413   .     A
C1192  C1304   1.456   .     S
C1192  C1331   1.414   .     A
C1193  C1330   1.410   .     A
C1193  C1305   1.455   .     S
C1193  C1341   1.413   .     A
C1194  C1329   1.415   .     A
C1194  C1344   1.413   .     A
C1194  C1306   1.455   .     S
C1195  C1307   1.455   .     S
C1195  C1328   1.413   .     A
C1195  C1343   1.415   .     A
C1196  C1317   1.455   .     S
C1196  C1347   1.412   .     A
C1196  C1327   1.410   .     A
C1197  C1326   1.412   .     A
C1197  C1318   1.454   .     S
C1197  C1345   1.411   .     A
C1198  C1310   1.456   .     S
C1198  C1349   1.412   .     A
C1198  C1325   1.412   .     A
C1199  C1348   1.411   .     A
C1199  C1311   1.455   .     S
C1199  C1323   1.413   .     A
C1200  C1351   1.412   .     A
C1200  C1322   1.412   .     A
C1200  C1312   1.452   .     S
C1201  H1359   1.084   .     S
C1201  C1277   1.399   .     A
C1201  C498    1.397   1_565 S
C1202  C1314   1.455   .     S
C1202  C1350   1.411   .     A
C1202  C1321   1.413   .     A
C1203  C1320   1.413   .     A
C1203  C1353   1.413   .     A
C1203  C1315   1.455   .     S
C1204  C1319   1.412   .     A
C1204  C1352   1.410   .     A
C1204  C1316   1.456   .     S
C1205  C1271   1.421   .     A
C1205  C1300   1.459   .     S
C1205  C474    1.419   1_565 S
C1206  C1272   1.421   .     A
C1206  C1299   1.463   .     S
C1206  C475    1.421   1_565 S
C1207  C1273   1.421   .     A
C1207  C1298   1.461   .     S
C1207  C872    1.421   1_655 S
C1208  C1274   1.421   .     A
C1208  C1297   1.460   .     S
C1208  C874    1.419   1_655 S
C1209  C1296   1.455   .     S
C1209  C1279   1.421   .     A
C1209  C879    1.421   1_655 S
C1210  C1295   1.467   .     S
C1210  C1276   1.422   .     A
C1211  C1277   1.422   .     A
C1211  C1294   1.457   .     S
C1211  C490    1.421   1_565 S
C1212  C1278   1.398   .     A
C1212  C1292   1.398   .     A
C1212  H1360   1.084   .     S
C1213  C1293   1.462   .     S
C1213  C1278   1.421   .     A
C1214  O1518   1.223   .     D
C1214  C1319   1.486   .     S
C1214  O1519   1.398   .     S
C1215  C1320   1.492   .     S
C1215  O1520   1.223   .     D
C1215  O1521   1.398   .     S
C1216  O1522   1.223   .     D
C1216  C1321   1.492   .     S
C1216  O1523   1.398   .     S
C1217  C1322   1.492   .     S
C1217  O1526   1.398   .     S
C1217  O1524   1.223   .     D
C1218  O1527   1.222   .     D
C1218  O1528   1.398   .     S
C1218  C1323   1.490   .     S
C1219  C1325   1.487   .     S
C1219  O1530   1.397   .     S
C1219  O1529   1.222   .     D
C1220  C1326   1.492   .     S
C1220  O1531   1.223   .     D
C1220  O1532   1.398   .     S
C1221  C1327   1.485   .     S
C1221  O1534   1.397   .     S
C1221  O1533   1.223   .     D
C1222  O1537   1.398   .     S
C1222  C1328   1.489   .     S
C1222  O1535   1.222   .     D
C1223  H1361   1.083   .     S
C1223  C1288   1.398   .     A
C1223  C1279   1.398   .     A
C1224  O1539   1.398   .     S
C1224  C1329   1.490   .     S
C1224  O1538   1.222   .     D
C1225  C1330   1.486   .     S
C1225  O1541   1.397   .     S
C1225  O1540   1.223   .     D
C1226  C1331   1.491   .     S
C1226  O1543   1.398   .     S
C1226  O1542   1.223   .     D
C1227  O1545   1.397   .     S
C1227  C1332   1.491   .     S
C1227  O1544   1.223   .     D
C1228  C1333   1.489   .     S
C1228  O1546   1.222   .     D
C1228  O1548   1.399   .     S
C1229  O1550   1.398   .     S
C1229  C1334   1.491   .     S
C1229  O1549   1.223   .     D
C1230  O1552   1.398   .     S
C1230  C1336   1.492   .     S
C1230  O1551   1.223   .     D
C1231  O1554   1.398   .     S
C1231  C1337   1.490   .     S
C1231  O1553   1.222   .     D
C1232  O1555   1.222   .     D
C1232  C1338   1.489   .     S
C1232  O1556   1.398   .     S
C1233  C1339   1.487   .     S
C1233  O1559   1.398   .     S
C1233  O1557   1.222   .     D
C1234  H1362   1.084   .     S
C1234  C1289   1.398   .     A
C1234  C1281   1.399   .     A
C1235  C1340   1.491   .     S
C1235  O1561   1.398   .     S
C1235  O1560   1.223   .     D
C1236  C1341   1.488   .     S
C1236  O1563   1.398   .     S
C1236  O1562   1.222   .     D
C1237  O1565   1.398   .     S
C1237  C1342   1.491   .     S
C1237  O1564   1.222   .     D
C1238  O1566   1.222   .     D
C1238  C1343   1.494   .     S
C1238  O1567   1.398   .     S
C1239  O1423   1.398   .     S
C1239  O1568   1.223   .     D
C1239  C1344   1.493   .     S
C1240  O1424   1.223   .     D
C1240  C1345   1.487   .     S
C1240  O1425   1.397   .     S
C1241  C1347   1.487   .     S
C1241  O1427   1.398   .     S
C1241  O1426   1.222   .     D
C1242  C1348   1.489   .     S
C1242  O1429   1.398   .     S
C1242  O1428   1.223   .     D
C1243  O1430   1.223   .     D
C1243  C1349   1.491   .     S
C1243  O1431   1.398   .     S
C1244  C1350   1.488   .     S
C1244  O1432   1.223   .     D
C1244  O1434   1.397   .     S
C1245  C1290   1.397   .     A
C1245  H1363   1.084   .     S
C1245  C1282   1.398   .     A
C1246  O1435   1.223   .     D
C1246  O1436   1.398   .     S
C1246  C1351   1.493   .     S
C1247  C1352   1.486   .     S
C1247  O1438   1.397   .     S
C1247  O1437   1.223   .     D
C1248  C1353   1.492   .     S
C1248  O1439   1.222   .     D
C1248  O1440   1.398   .     S
C1249  O1441   1.222   .     D
C1249  C1266   1.490   .     S
C1249  O1442   1.399   .     S
C1250  O1443   1.222   .     D
C1250  O1445   1.399   .     S
C1250  C1267   1.490   .     S
C1251  O1446   1.223   .     D
C1251  C1268   1.492   .     S
C1251  O1447   1.399   .     S
C1252  O1449   1.399   .     S
C1252  C1270   1.492   .     S
C1252  O1448   1.224   .     D
C1253  O1450   1.222   .     D
C1253  O1451   1.399   .     S
C1253  C1271   1.493   .     S
C1254  O1453   1.399   .     S
C1254  O1452   1.223   .     D
C1254  C1272   1.490   .     S
C1255  C1273   1.493   .     S
C1255  O1456   1.399   .     S
C1255  O1454   1.223   .     D
C1256  H1364   1.084   .     S
C1256  C1283   1.399   .     A
C1256  C500    1.398   1_565 S
C1257  O1458   1.399   .     S
C1257  O1457   1.223   .     D
C1257  C1274   1.493   .     S
C1258  C1275   1.496   .     S
C1258  O1459   1.222   .     D
C1258  O1460   1.399   .     S
C1259  O1461   1.221   .     D
C1259  C1276   1.485   .     S
C1259  O1462   1.399   .     S
C1260  O1463   1.222   .     D
C1260  O1464   1.399   .     S
C1260  C1277   1.496   .     S
C1261  O1467   1.399   .     S
C1261  C1278   1.491   .     S
C1261  O1465   1.223   .     D
C1262  O1468   1.223   .     D
C1262  O1469   1.399   .     S
C1262  C1279   1.497   .     S
C1263  C1281   1.490   .     S
C1263  O1470   1.222   .     D
C1263  O1471   1.399   .     S
C1264  C1282   1.495   .     S
C1264  O1472   1.222   .     D
C1264  O1473   1.399   .     S
C1265  O1475   1.399   .     S
C1265  O1474   1.223   .     D
C1265  C1283   1.491   .     S
C1267  C1269   1.397   .     A
C1268  C1280   1.398   .     A
C1269  H1368   1.084   .     S
C1270  C1291   1.399   .     A
C1271  C1302   1.399   .     A
C1272  C1313   1.398   .     A
C1273  C1324   1.399   .     A
C1274  C1335   1.399   .     A
C1275  C1346   1.398   .     A
C1280  H1379   1.084   .     S
C1281  C814    1.423   1_655 S
C1283  C421    1.419   1_565 S
C1284  C1302   1.398   .     A
C1284  C397    1.397   1_565 S
C1284  C1285   1.470   1_554 S
C1285  C1313   1.397   .     A
C1285  C1284   1.470   1_556 S
C1285  C477    1.397   1_565 S
C1286  C1324   1.397   .     A
C1286  C884    1.397   1_655 S
C1286  C1287   1.471   1_554 S
C1287  C1335   1.397   .     A
C1287  C1286   1.471   1_556 S
C1287  C895    1.397   1_655 S
C1288  C1289   1.472   .     S
C1288  C950    1.397   1_655 S
C1289  C794    1.396   1_655 S
C1290  C1292   1.472   .     S
C1291  H1390   1.084   .     S
C1293  O1558   1.278   .     A
C1294  O1422   1.277   .     A
C1294  O733    1.277   1_565 S
C1295  O1536   1.277   .     A
C1296  O1547   1.275   .     A
C1296  O1048   1.277   1_655 S
C1297  O1059   1.278   1_655 S
C1297  O1082   1.278   1_655 S
C1298  O1070   1.278   1_655 S
C1298  O1083   1.278   1_655 S
C1299  O684    1.278   1_565 S
C1299  O688    1.278   1_565 S
C1300  O685    1.277   1_565 S
C1300  O690    1.277   1_565 S
C1301  C1356   1.455   .     S
C1301  O1483   1.277   .     A
C1301  O1511   1.273   .     A
C1302  H1401   1.084   .     S
C1303  O1512   1.275   .     A
C1303  O1484   1.276   .     A
C1304  O1509   1.274   .     A
C1304  O1485   1.278   .     A
C1305  O1510   1.278   .     A
C1305  O1486   1.274   .     A
C1306  O1487   1.279   .     A
C1306  O1516   1.274   .     A
C1307  O1488   1.276   .     A
C1307  O1517   1.276   .     A
C1308  C1354   1.455   .     S
C1308  O1489   1.274   .     A
C1308  O1513   1.277   .     A
C1309  O1490   1.276   .     A
C1309  C1355   1.455   .     S
C1309  O1515   1.275   .     A
C1310  O1502   1.274   .     A
C1310  O1491   1.277   .     A
C1311  O1493   1.273   .     A
C1311  O1504   1.278   .     A
C1312  O1494   1.275   .     A
C1312  O1500   1.274   .     A
C1313  H1412   1.084   .     S
C1314  O1495   1.273   .     A
C1314  O1501   1.277   .     A
C1315  O1496   1.275   .     A
C1315  O1507   1.275   .     A
C1316  O1497   1.278   .     A
C1316  O1508   1.274   .     A
C1317  O1505   1.278   .     A
C1317  O1498   1.274   .     A
C1318  O1506   1.278   .     A
C1318  O1499   1.273   .     A
C1319  C1336   1.405   .     A
C1320  C1334   1.407   .     A
C1321  C1333   1.407   .     A
C1322  C1332   1.407   .     A
C1323  C1331   1.407   .     A
C1324  H1418   1.084   .     S
C1325  C1330   1.404   .     A
C1326  C1329   1.406   .     A
C1327  C1328   1.405   .     A
C1333  C1356   1.413   .     A
C1334  C1355   1.414   .     A
C1335  H1419   1.084   .     S
C1336  C1354   1.413   .     A
C1337  C1353   1.406   .     A
C1337  C1355   1.413   .     A
C1338  C1354   1.413   .     A
C1338  C1352   1.405   .     A
C1339  C1351   1.406   .     A
C1340  C1356   1.412   .     A
C1340  C1350   1.407   .     A
C1341  C1349   1.406   .     A
C1342  C1348   1.407   .     A
C1343  C1347   1.405   .     A
C1344  C1345   1.406   .     A
C1346  H1420   1.083   .     S
H1365  O1519   1.014   .     S
H1366  O1521   1.014   .     S
H1367  O1523   1.014   .     S
H1369  O1526   1.014   .     S
H1370  O1528   1.014   .     S
H1371  O1530   1.013   .     S
H1372  O1532   1.014   .     S
H1373  O1534   1.014   .     S
H1374  O1537   1.013   .     S
H1375  O1539   1.014   .     S
H1376  O1541   1.014   .     S
H1377  O1543   1.014   .     S
H1378  O1545   1.014   .     S
H1380  O1548   1.014   .     S
H1381  O1550   1.014   .     S
H1382  O1552   1.014   .     S
H1383  O1554   1.014   .     S
H1384  O1556   1.013   .     S
H1385  O1559   1.014   .     S
H1386  O1561   1.014   .     S
H1387  O1563   1.014   .     S
H1388  O1565   1.014   .     S
H1389  O1567   1.014   .     S
H1391  O1423   1.013   .     S
H1392  O1425   1.013   .     S
H1393  O1427   1.014   .     S
H1394  O1429   1.014   .     S
H1395  O1431   1.012   .     S
H1396  O1434   1.012   .     S
H1397  O1436   1.014   .     S
H1398  O1438   1.014   .     S
H1399  O1440   1.014   .     S
H1400  O1442   1.014   .     S
H1402  O1445   1.014   .     S
H1403  O1447   1.014   .     S
H1404  O1449   1.014   .     S
H1405  O1451   1.014   .     S
H1406  O1453   1.014   .     S
H1407  O1456   1.014   .     S
H1408  O1458   1.014   .     S
H1409  O1460   1.014   .     S
H1410  O1462   1.014   .     S
H1411  O1464   1.014   .     S
H1413  O1467   1.014   .     S
H1414  O1469   1.014   .     S
H1415  O1471   1.014   .     S
H1416  O1473   1.014   .     S
H1417  O1475   1.013   .     S
O1421  Zn1572  1.943   .     S
O1421  Zn1569  1.941   .     S
O1421  Zn1580  1.943   .     S
O1422  Zn1571  1.938   .     S
O1433  Zn1574  1.937   .     S
O1433  C899    1.282   1_655 S
O1444  Zn1573  1.937   .     S
O1455  Zn1583  1.937   .     S
O1466  Zn1582  1.937   .     S
O1476  Zn1577  1.938   .     S
O1477  Zn1569  1.938   .     S
O1478  Zn1579  1.938   .     S
O1479  Zn1578  1.938   .     S
O1480  Zn1581  1.937   .     S
O1481  Zn1581  1.943   .     S
O1481  Zn1577  1.941   .     S
O1481  Zn1575  1.944   .     S
O1482  Zn1580  1.937   .     S
O1483  Zn1572  1.933   .     S
O1484  Zn1571  1.933   .     S
O1485  Zn1574  1.934   .     S
O1486  Zn1573  1.934   .     S
O1487  Zn1576  1.933   .     S
O1488  Zn1575  1.933   .     S
O1489  Zn1570  1.935   .     S
O1490  Zn1584  1.935   .     S
O1491  Zn1571  1.934   .     S
O1492  Zn1570  1.941   .     S
O1492  Zn1578  1.943   .     S
O1492  Zn1582  1.944   .     S
O1493  Zn1572  1.934   .     S
O1494  Zn1584  1.934   .     S
O1495  Zn1570  1.934   .     S
O1496  Zn1575  1.933   .     S
O1497  Zn1576  1.933   .     S
O1498  Zn1573  1.934   .     S
O1499  Zn1574  1.934   .     S
O1500  Zn1183  1.933   1_655 S
O1501  Zn1578  1.933   .     S
O1502  Zn789   1.934   1_565 S
O1503  Zn1579  1.943   .     S
O1503  Zn1583  1.944   .     S
O1503  Zn1573  1.943   .     S
O1504  Zn1580  1.934   .     S
O1505  Zn1583  1.933   .     S
O1506  Zn1186  1.933   1_655 S
O1507  Zn1577  1.935   .     S
O1508  Zn777   1.935   1_565 S
O1509  Zn1182  1.934   1_655 S
O1510  Zn1579  1.934   .     S
O1511  Zn1569  1.934   .     S
O1512  Zn785   1.934   1_565 S
O1513  Zn1582  1.933   .     S
O1514  Zn1576  1.937   .     S
O1514  C501    1.279   1_565 S
O1515  Zn1187  1.933   1_655 S
O1516  Zn788   1.934   1_565 S
O1517  Zn1581  1.934   .     S
O1525  Zn1575  1.937   .     S
O1536  Zn1570  1.938   .     S
O1547  Zn1584  1.938   .     S
O1558  Zn1572  1.938   .     S
Zn1571 O689    1.943   1_565 S
Zn1574 O1096   1.943   1_655 S
Zn1576 O629    1.944   1_565 S
Zn1584 O1107   1.941   1_655 S
