data_str_m1_o1_o2_pcu_sym.77
_audit_creation_date              2020-01-03
_audit_creation_method            'Materials Studio'
_symmetry_space_group_name_H-M    'P1'
_symmetry_Int_Tables_number       1
_symmetry_cell_setting            triclinic
loop_
_symmetry_equiv_pos_as_xyz
  x,y,z
_cell_length_a                    36.6537
_cell_length_b                    36.5596
_cell_length_c                    34.5044
_cell_angle_alpha                 90.0402
_cell_angle_beta                  89.9989
_cell_angle_gamma                 89.9214
loop_
_atom_site_label
_atom_site_type_symbol
_atom_site_fract_x
_atom_site_fract_y
_atom_site_fract_z
_atom_site_U_iso_or_equiv
_atom_site_adp_type
_atom_site_occupancy
C1     C     0.26067   0.03177   0.04178   0.00000  Uiso   1.00
C2     C     0.48940   0.21831   0.45823   0.00000  Uiso   1.00
C3     C     0.34827   0.40214   0.75038   0.00000  Uiso   1.00
C4     C     0.40230   0.15157   0.24961   0.00000  Uiso   1.00
C5     C     0.09761   0.34855   0.75025   0.00000  Uiso   1.00
C6     C     0.34802   0.40183   0.25008   0.00000  Uiso   1.00
C7     C     0.15173   0.09785   0.75040   0.00000  Uiso   1.00
C8     C     0.09828   0.15215   0.74960   0.00000  Uiso   1.00
C9     C     0.40195   0.34803   0.24999   0.00000  Uiso   1.00
C10    C     0.15240   0.40145   0.74975   0.00000  Uiso   1.00
C11    C     0.34771   0.09842   0.25039   0.00000  Uiso   1.00
C12    C     0.40173   0.34786   0.74962   0.00000  Uiso   1.00
C13    C     0.21918   0.48876   0.54165   0.00000  Uiso   1.00
C14    C     0.09834   0.15222   0.25028   0.00000  Uiso   1.00
C15    C     0.34762   0.09853   0.74976   0.00000  Uiso   1.00
C16    C     0.15239   0.40149   0.25026   0.00000  Uiso   1.00
C17    C     0.24998   0.00026   0.10260   0.00000  Uiso   1.00
C18    C     0.25003   0.00018   0.89743   0.00000  Uiso   1.00
C19    C     0.49978   0.25003   0.10255   0.00000  Uiso   1.00
C20    C     0.49984   0.25010   0.89738   0.00000  Uiso   1.00
C21    C     0.49998   0.24986   0.60256   0.00000  Uiso   1.00
C22    C     0.00002   0.24979   0.39739   0.00000  Uiso   1.00
C23    C     0.25016   0.49990   0.60262   0.00000  Uiso   1.00
C24    C     0.22051   0.01390   0.45852   0.00000  Uiso   1.00
C25    C     0.25023   0.49997   0.39744   0.00000  Uiso   1.00
C26    C     0.13493   0.42073   0.31794   0.00000  Uiso   1.00
C27    C     0.35881   0.08584   0.67902   0.00000  Uiso   1.00
C28    C     0.07181   0.12771   0.31246   0.00000  Uiso   1.00
C29    C     0.44687   0.39062   0.71843   0.00000  Uiso   1.00
C30    C     0.37232   0.07174   0.31245   0.00000  Uiso   1.00
C31    C     0.14125   0.41402   0.67899   0.00000  Uiso   1.00
C32    C     0.44832   0.39274   0.27548   0.00000  Uiso   1.00
C33    C     0.05309   0.10930   0.71856   0.00000  Uiso   1.00
C34    C     0.10940   0.05343   0.71766   0.00000  Uiso   1.00
C35    C     0.01480   0.22009   0.54166   0.00000  Uiso   1.00
C36    C     0.39228   0.44854   0.27542   0.00000  Uiso   1.00
C37    C     0.08525   0.35857   0.67910   0.00000  Uiso   1.00
C38    C     0.42714   0.12907   0.31335   0.00000  Uiso   1.00
C39    C     0.39054   0.44646   0.71747   0.00000  Uiso   1.00
C40    C     0.12934   0.07304   0.31358   0.00000  Uiso   1.00
C41    C     0.41477   0.14131   0.67911   0.00000  Uiso   1.00
C42    C     0.07957   0.36448   0.31786   0.00000  Uiso   1.00
C43    C     0.39118   0.16417   0.82098   0.00000  Uiso   1.00
C44    C     0.11533   0.32903   0.18199   0.00000  Uiso   1.00
C45    C     0.30313   0.35938   0.78157   0.00000  Uiso   1.00
C46    C     0.01075   0.28096   0.45842   0.00000  Uiso   1.00
C47    C     0.17820   0.12229   0.18755   0.00000  Uiso   1.00
C48    C     0.10876   0.33597   0.82101   0.00000  Uiso   1.00
C49    C     0.37768   0.17824   0.18753   0.00000  Uiso   1.00
C50    C     0.19691   0.14070   0.78144   0.00000  Uiso   1.00
C51    C     0.30131   0.35673   0.22649   0.00000  Uiso   1.00
C52    C     0.35727   0.30073   0.22616   0.00000  Uiso   1.00
C53    C     0.14061   0.19657   0.78234   0.00000  Uiso   1.00
C54    C     0.32289   0.12089   0.18662   0.00000  Uiso   1.00
C55    C     0.16475   0.39142   0.82090   0.00000  Uiso   1.00
C56    C     0.12067   0.17697   0.18643   0.00000  Uiso   1.00
C57    C     0.28157   0.01046   0.54178   0.00000  Uiso   1.00
C58    C     0.35946   0.30354   0.78253   0.00000  Uiso   1.00
C59    C     0.17038   0.38568   0.18181   0.00000  Uiso   1.00
C60    C     0.33523   0.10869   0.82089   0.00000  Uiso   1.00
C61    C     0.27110   0.06629   0.10315   0.00000  Uiso   1.00
C62    C     0.27961   0.43734   0.89745   0.00000  Uiso   1.00
C63    C     0.06324   0.22216   0.10236   0.00000  Uiso   1.00
C64    C     0.06574   0.27114   0.89725   0.00000  Uiso   1.00
C65    C     0.22869   0.43433   0.10256   0.00000  Uiso   1.00
C66    C     0.22052   0.06307   0.89712   0.00000  Uiso   1.00
C67    C     0.43648   0.27833   0.10304   0.00000  Uiso   1.00
C68    C     0.28026   0.48561   0.45825   0.00000  Uiso   1.00
C69    C     0.43390   0.22921   0.89693   0.00000  Uiso   1.00
C70    C     0.47031   0.31266   0.60258   0.00000  Uiso   1.00
C71    C     0.47901   0.18373   0.39689   0.00000  Uiso   1.00
C72    C     0.18429   0.47877   0.60275   0.00000  Uiso   1.00
C73    C     0.18669   0.02765   0.39763   0.00000  Uiso   1.00
C74    C     0.02960   0.18702   0.60283   0.00000  Uiso   1.00
C75    C     0.02119   0.31577   0.39735   0.00000  Uiso   1.00
C76    C     0.31607   0.02088   0.60307   0.00000  Uiso   1.00
C77    C     0.31360   0.47183   0.39694   0.00000  Uiso   1.00
C78    C     0.26065   0.03218   0.08236   0.00000  Uiso   1.00
C79    C     0.26493   0.47010   0.91790   0.00000  Uiso   1.00
C80    C     0.03017   0.23597   0.08201   0.00000  Uiso   1.00
C81    C     0.26497   0.47083   0.95845   0.00000  Uiso   1.00
C82    C     0.03154   0.26090   0.91780   0.00000  Uiso   1.00
C83    C     0.23921   0.46852   0.08208   0.00000  Uiso   1.00
C84    C     0.23523   0.03046   0.91775   0.00000  Uiso   1.00
C85    C     0.46930   0.26431   0.08232   0.00000  Uiso   1.00
C86    C     0.46798   0.23954   0.91766   0.00000  Uiso   1.00
C87    C     0.48504   0.27994   0.58211   0.00000  Uiso   1.00
C88    C     0.48941   0.21787   0.41765   0.00000  Uiso   1.00
C89    C     0.21848   0.48905   0.58220   0.00000  Uiso   1.00
C90    C     0.21980   0.01394   0.41798   0.00000  Uiso   1.00
C91    C     0.01485   0.21963   0.58222   0.00000  Uiso   1.00
C92    C     0.02945   0.23601   0.04147   0.00000  Uiso   1.00
C93    C     0.01073   0.28158   0.41787   0.00000  Uiso   1.00
C94    C     0.28200   0.01050   0.58234   0.00000  Uiso   1.00
C95    C     0.28074   0.48577   0.41768   0.00000  Uiso   1.00
C96    C     0.24999   0.00049   0.02135   0.00000  Uiso   1.00
C97    C     0.25013   0.00048   0.97869   0.00000  Uiso   1.00
C98    C     0.49958   0.25029   0.02129   0.00000  Uiso   1.00
C99    C     0.49958   0.25041   0.97861   0.00000  Uiso   1.00
C100   C     0.49992   0.24963   0.52130   0.00000  Uiso   1.00
C101   C     0.00003   0.24962   0.47864   0.00000  Uiso   1.00
C102   C     0.25043   0.49958   0.52139   0.00000  Uiso   1.00
C103   C     0.03084   0.26118   0.95835   0.00000  Uiso   1.00
C104   C     0.25042   0.49970   0.47871   0.00000  Uiso   1.00
C105   C     0.25005   0.00000   0.35510   0.00000  Uiso   1.00
C106   C     0.25003   0.49998   0.64493   0.00000  Uiso   1.00
C107   C     0.00000   0.24992   0.35505   0.00000  Uiso   1.00
C108   C    -0.00000   0.24997   0.64493   0.00000  Uiso   1.00
C109   C     0.49997   0.25002   0.85507   0.00000  Uiso   1.00
C110   C     0.49995   0.25000   0.14490   0.00000  Uiso   1.00
C111   C     0.25000   0.00003   0.85507   0.00000  Uiso   1.00
C112   C     0.25000   0.00010   0.14494   0.00000  Uiso   1.00
C113   C     0.18007   0.07002   0.24988   0.00000  Uiso   1.00
C114   C     0.23919   0.46917   0.04154   0.00000  Uiso   1.00
C115   C     0.32015   0.43019   0.74982   0.00000  Uiso   1.00
C116   C     0.42999   0.18004   0.24981   0.00000  Uiso   1.00
C117   C     0.07007   0.31991   0.75029   0.00000  Uiso   1.00
C118   C     0.31993   0.42996   0.24997   0.00000  Uiso   1.00
C119   C     0.17985   0.06980   0.74983   0.00000  Uiso   1.00
C120   C     0.07007   0.31990   0.24973   0.00000  Uiso   1.00
C121   C     0.42993   0.18010   0.75029   0.00000  Uiso   1.00
C122   C     0.17993   0.43009   0.74971   0.00000  Uiso   1.00
C123   C     0.32001   0.06995   0.25019   0.00000  Uiso   1.00
C124   C     0.42985   0.31980   0.75018   0.00000  Uiso   1.00
C125   C     0.23530   0.03003   0.95832   0.00000  Uiso   1.00
C126   C     0.06993   0.17998   0.25012   0.00000  Uiso   1.00
C127   C     0.32007   0.06990   0.74971   0.00000  Uiso   1.00
C128   C     0.17999   0.43005   0.25020   0.00000  Uiso   1.00
C129   C     0.07015   0.18020   0.75017   0.00000  Uiso   1.00
C130   C     0.43006   0.31999   0.25002   0.00000  Uiso   1.00
C131   C     0.13067   0.39640   0.28357   0.00000  Uiso   1.00
C132   C     0.36633   0.10676   0.71509   0.00000  Uiso   1.00
C133   C     0.09977   0.12685   0.28103   0.00000  Uiso   1.00
C134   C     0.41006   0.38283   0.73487   0.00000  Uiso   1.00
C135   C     0.37317   0.09974   0.28104   0.00000  Uiso   1.00
C136   C     0.46978   0.26446   0.04174   0.00000  Uiso   1.00
C137   C     0.13370   0.39316   0.71508   0.00000  Uiso   1.00
C138   C     0.41093   0.38395   0.26145   0.00000  Uiso   1.00
C139   C     0.08992   0.11713   0.73494   0.00000  Uiso   1.00
C140   C     0.11685   0.08977   0.73542   0.00000  Uiso   1.00
C141   C     0.38384   0.41109   0.26116   0.00000  Uiso   1.00
C142   C     0.10594   0.36677   0.71534   0.00000  Uiso   1.00
C143   C     0.40065   0.12654   0.28066   0.00000  Uiso   1.00
C144   C     0.38312   0.41018   0.73532   0.00000  Uiso   1.00
C145   C     0.12667   0.09941   0.28075   0.00000  Uiso   1.00
C146   C     0.39407   0.13318   0.71534   0.00000  Uiso   1.00
C147   C     0.46841   0.23958   0.95822   0.00000  Uiso   1.00
C148   C     0.10314   0.36975   0.28317   0.00000  Uiso   1.00
C149   C     0.38367   0.14324   0.78491   0.00000  Uiso   1.00
C150   C     0.11954   0.35343   0.21631   0.00000  Uiso   1.00
C151   C     0.33994   0.36717   0.76513   0.00000  Uiso   1.00
C152   C     0.15024   0.12316   0.21897   0.00000  Uiso   1.00
C153   C     0.11630   0.35683   0.78492   0.00000  Uiso   1.00
C154   C     0.37684   0.15024   0.21895   0.00000  Uiso   1.00
C155   C     0.16008   0.13287   0.76506   0.00000  Uiso   1.00
C156   C     0.33892   0.36574   0.23936   0.00000  Uiso   1.00
C157   C     0.36610   0.33868   0.23898   0.00000  Uiso   1.00
C158   C     0.48503   0.27925   0.54156   0.00000  Uiso   1.00
C159   C     0.13315   0.16023   0.76458   0.00000  Uiso   1.00
C160   C     0.34936   0.12344   0.21933   0.00000  Uiso   1.00
C161   C     0.14406   0.38323   0.78466   0.00000  Uiso   1.00
C162   C     0.12334   0.15059   0.21925   0.00000  Uiso   1.00
C163   C     0.36688   0.33982   0.76467   0.00000  Uiso   1.00
C164   C     0.14705   0.38014   0.21666   0.00000  Uiso   1.00
C165   C     0.35593   0.11682   0.78466   0.00000  Uiso   1.00
C166   C     0.09777   0.34840   0.24960   0.00000  Uiso   1.00
C167   C     0.40238   0.15147   0.75024   0.00000  Uiso   1.00
C168   C     0.15167   0.09778   0.24972   0.00000  Uiso   1.00
H169   H     0.26923   0.05582   0.02588   0.00000  Uiso   1.00
H170   H     0.48088   0.19426   0.47415   0.00000  Uiso   1.00
H171   H     0.19530   0.48003   0.52564   0.00000  Uiso   1.00
H172   H     0.19766   0.02505   0.47460   0.00000  Uiso   1.00
H173   H     0.02649   0.19739   0.52569   0.00000  Uiso   1.00
H174   H     0.01928   0.30495   0.47448   0.00000  Uiso   1.00
H175   H     0.30555   0.01909   0.52587   0.00000  Uiso   1.00
H176   H     0.30318   0.47437   0.47412   0.00000  Uiso   1.00
H177   H     0.08560   0.44430   0.31050   0.00000  Uiso   1.00
H178   H     0.40499   0.05611   0.68353   0.00000  Uiso   1.00
H179   H     0.05283   0.07724   0.29990   0.00000  Uiso   1.00
H180   H     0.27664   0.44819   0.97451   0.00000  Uiso   1.00
H181   H     0.45685   0.43219   0.75550   0.00000  Uiso   1.00
H182   H     0.42243   0.05219   0.29951   0.00000  Uiso   1.00
H183   H     0.09506   0.44374   0.68343   0.00000  Uiso   1.00
H184   H     0.45726   0.43055   0.23395   0.00000  Uiso   1.00
H185   H     0.04313   0.06786   0.75574   0.00000  Uiso   1.00
H186   H     0.10703   0.02756   0.76921   0.00000  Uiso   1.00
H187   H     0.39497   0.46985   0.22161   0.00000  Uiso   1.00
H188   H     0.03638   0.37105   0.70275   0.00000  Uiso   1.00
H189   H     0.47126   0.12172   0.27908   0.00000  Uiso   1.00
H190   H     0.39293   0.47252   0.76894   0.00000  Uiso   1.00
H191   H     0.05227   0.22480   0.02539   0.00000  Uiso   1.00
H192   H     0.12257   0.02855   0.27956   0.00000  Uiso   1.00
H193   H     0.46364   0.12890   0.70279   0.00000  Uiso   1.00
H194   H     0.03338   0.37663   0.28885   0.00000  Uiso   1.00
H195   H     0.34499   0.19387   0.81648   0.00000  Uiso   1.00
H196   H     0.16495   0.30597   0.18910   0.00000  Uiso   1.00
H197   H     0.29315   0.31780   0.74450   0.00000  Uiso   1.00
H198   H     0.19719   0.17276   0.20012   0.00000  Uiso   1.00
H199   H     0.15497   0.30628   0.81658   0.00000  Uiso   1.00
H200   H     0.32750   0.19768   0.20036   0.00000  Uiso   1.00
H201   H     0.20687   0.18214   0.74425   0.00000  Uiso   1.00
H202   H     0.05474   0.26987   0.97436   0.00000  Uiso   1.00
H203   H     0.28187   0.35424   0.28110   0.00000  Uiso   1.00
H204   H     0.31993   0.29284   0.26835   0.00000  Uiso   1.00
H205   H     0.14297   0.22244   0.73079   0.00000  Uiso   1.00
H206   H     0.27876   0.12825   0.22086   0.00000  Uiso   1.00
H207   H     0.21362   0.37895   0.79725   0.00000  Uiso   1.00
H208   H     0.12742   0.22146   0.22045   0.00000  Uiso   1.00
H209   H     0.35707   0.27748   0.73106   0.00000  Uiso   1.00
H210   H     0.21703   0.37455   0.21048   0.00000  Uiso   1.00
H211   H     0.28636   0.12110   0.79721   0.00000  Uiso   1.00
H212   H     0.27003   0.06775   0.13451   0.00000  Uiso   1.00
H213   H     0.23061   0.44520   0.02546   0.00000  Uiso   1.00
H214   H     0.27739   0.43472   0.86625   0.00000  Uiso   1.00
H215   H     0.06550   0.22382   0.13363   0.00000  Uiso   1.00
H216   H     0.06773   0.26891   0.86598   0.00000  Uiso   1.00
H217   H     0.23030   0.43259   0.13385   0.00000  Uiso   1.00
H218   H     0.22262   0.06543   0.86589   0.00000  Uiso   1.00
H219   H     0.43423   0.27619   0.13429   0.00000  Uiso   1.00
H220   H     0.43213   0.23116   0.86563   0.00000  Uiso   1.00
H221   H     0.47253   0.31527   0.63379   0.00000  Uiso   1.00
H222   H     0.48006   0.18225   0.36553   0.00000  Uiso   1.00
H223   H     0.18229   0.48101   0.63401   0.00000  Uiso   1.00
H224   H     0.22365   0.05276   0.97427   0.00000  Uiso   1.00
H225   H     0.18448   0.02609   0.36635   0.00000  Uiso   1.00
H226   H     0.02746   0.18461   0.63405   0.00000  Uiso   1.00
H227   H     0.01966   0.31748   0.36605   0.00000  Uiso   1.00
H228   H     0.31785   0.01891   0.63436   0.00000  Uiso   1.00
H229   H     0.31583   0.47394   0.36569   0.00000  Uiso   1.00
H230   H     0.44689   0.27576   0.02587   0.00000  Uiso   1.00
H231   H     0.44442   0.23099   0.97413   0.00000  Uiso   1.00
H232   H     0.47332   0.30187   0.52551   0.00000  Uiso   1.00
O233   O     0.25000  -0.00000   0.25000   0.00000  Uiso   1.00
O234   O     0.25000   0.46964   0.66317   0.00000  Uiso   1.00
O235   O     0.27321   0.35178   0.25333   0.00000  Uiso   1.00
O236   O     0.37400   0.28712   0.19914   0.00000  Uiso   1.00
O237   O     0.33026   0.28017   0.24464   0.00000  Uiso   1.00
O238   O     0.14409   0.19902   0.81742   0.00000  Uiso   1.00
O239   O     0.14413   0.22795   0.75955   0.00000  Uiso   1.00
O240   O     0.33419   0.11751   0.15353   0.00000  Uiso   1.00
O241   O     0.28525   0.12257   0.19296   0.00000  Uiso   1.00
O242   O     0.14830   0.40040   0.85017   0.00000  Uiso   1.00
O243   O     0.20280   0.38894   0.82212   0.00000  Uiso   1.00
O244   O     0.11768   0.16544   0.15337   0.00000  Uiso   1.00
O245   O     0.46964   0.25000   0.33683   0.00000  Uiso   1.00
O246   O     0.12189   0.21475   0.19258   0.00000  Uiso   1.00
O247   O     0.35599   0.30121   0.81762   0.00000  Uiso   1.00
O248   O     0.35595   0.27208   0.75983   0.00000  Uiso   1.00
O249   O     0.15623   0.39269   0.15065   0.00000  Uiso   1.00
O250   O     0.20832   0.38260   0.18398   0.00000  Uiso   1.00
O251   O     0.35167   0.09978   0.85018   0.00000  Uiso   1.00
O252   O     0.29717   0.11115   0.82209   0.00000  Uiso   1.00
O253   O     0.28089   0.09345   0.08540   0.00000  Uiso   1.00
O254   O     0.29428   0.41253   0.91533   0.00000  Uiso   1.00
O255   O     0.08872   0.20896   0.08430   0.00000  Uiso   1.00
O256   O     0.03036   0.25000   0.66317   0.00000  Uiso   1.00
O257   O     0.09237   0.28207   0.91507   0.00000  Uiso   1.00
O258   O     0.21822   0.40749   0.08467   0.00000  Uiso   1.00
O259   O     0.20596   0.08804   0.91488   0.00000  Uiso   1.00
O260   O     0.41122   0.29236   0.08535   0.00000  Uiso   1.00
O261   O     0.40712   0.21850   0.91464   0.00000  Uiso   1.00
O262   O     0.45559   0.33745   0.58472   0.00000  Uiso   1.00
O263   O     0.46926   0.15656   0.41466   0.00000  Uiso   1.00
O264   O     0.15768   0.46779   0.58492   0.00000  Uiso   1.00
O265   O     0.16112   0.04068   0.41569   0.00000  Uiso   1.00
O266   O     0.04424   0.16210   0.58505   0.00000  Uiso   1.00
O267   O     0.00000   0.21964   0.83683   0.00000  Uiso   1.00
O268   O     0.03152   0.34268   0.41523   0.00000  Uiso   1.00
O269   O     0.34283   0.03163   0.58535   0.00000  Uiso   1.00
O270   O     0.33891   0.45791   0.41464   0.00000  Uiso   1.00
O271   O     0.00000   0.28036   0.16317   0.00000  Uiso   1.00
O272   O     0.28036  -0.00000   0.83683   0.00000  Uiso   1.00
O273   O     0.21964  -0.00000   0.16317   0.00000  Uiso   1.00
O274   O     0.00000   0.28036   0.83683   0.00000  Uiso   1.00
O275   O     0.00000   0.21964   0.16317   0.00000  Uiso   1.00
O276   O     0.21964  -0.00000   0.83683   0.00000  Uiso   1.00
O277   O     0.25000  -0.00000   0.75000   0.00000  Uiso   1.00
O278   O     0.28036  -0.00000   0.16317   0.00000  Uiso   1.00
O279   O     0.20726   0.07307   0.27282   0.00000  Uiso   1.00
O280   O     0.29275   0.42693   0.72718   0.00000  Uiso   1.00
O281   O     0.42693   0.20725   0.27282   0.00000  Uiso   1.00
O282   O     0.07307   0.29274   0.72718   0.00000  Uiso   1.00
O283   O     0.29275   0.42693   0.27282   0.00000  Uiso   1.00
O284   O     0.20726   0.07307   0.72718   0.00000  Uiso   1.00
O285   O     0.07307   0.29274   0.27282   0.00000  Uiso   1.00
O286   O     0.42693   0.20725   0.72718   0.00000  Uiso   1.00
O287   O     0.20726   0.42693   0.72718   0.00000  Uiso   1.00
O288   O     0.00000   0.25000   0.25000   0.00000  Uiso   1.00
O289   O     0.29275   0.07307   0.27282   0.00000  Uiso   1.00
O290   O     0.42693   0.29274   0.72718   0.00000  Uiso   1.00
O291   O     0.07307   0.20725   0.27282   0.00000  Uiso   1.00
O292   O     0.29275   0.07307   0.72718   0.00000  Uiso   1.00
O293   O     0.20726   0.42693   0.27282   0.00000  Uiso   1.00
O294   O     0.07307   0.20725   0.72718   0.00000  Uiso   1.00
O295   O     0.42693   0.29274   0.27282   0.00000  Uiso   1.00
O296   O     0.45726   0.32307   0.77282   0.00000  Uiso   1.00
O297   O     0.04275   0.17693   0.22718   0.00000  Uiso   1.00
O298   O     0.17693   0.45725   0.77282   0.00000  Uiso   1.00
O299   O     0.00000   0.25000   0.75000   0.00000  Uiso   1.00
O300   O     0.32307   0.04274   0.22718   0.00000  Uiso   1.00
O301   O     0.04275   0.17693   0.77282   0.00000  Uiso   1.00
O302   O     0.45726   0.32307   0.22718   0.00000  Uiso   1.00
O303   O     0.32307   0.04274   0.77282   0.00000  Uiso   1.00
O304   O     0.17693   0.45725   0.22718   0.00000  Uiso   1.00
O305   O     0.45726   0.17693   0.22718   0.00000  Uiso   1.00
O306   O     0.04275   0.32307   0.77282   0.00000  Uiso   1.00
O307   O     0.17693   0.04274   0.22718   0.00000  Uiso   1.00
O308   O     0.32307   0.45725   0.77282   0.00000  Uiso   1.00
O309   O     0.04275   0.32307   0.22718   0.00000  Uiso   1.00
O310   O     0.25000   0.46964   0.33683   0.00000  Uiso   1.00
O311   O     0.45726   0.17693   0.77282   0.00000  Uiso   1.00
O312   O     0.32307   0.45725   0.22718   0.00000  Uiso   1.00
O313   O     0.17693   0.04274   0.77282   0.00000  Uiso   1.00
O314   O     0.16284   0.41945   0.33718   0.00000  Uiso   1.00
O315   O     0.10709   0.44474   0.32898   0.00000  Uiso   1.00
O316   O     0.33127   0.09232   0.66036   0.00000  Uiso   1.00
O317   O     0.38328   0.05934   0.66566   0.00000  Uiso   1.00
O318   O     0.06860   0.15490   0.33273   0.00000  Uiso   1.00
O319   O     0.04919   0.09766   0.31939   0.00000  Uiso   1.00
O320   O     0.45886   0.37141   0.69241   0.00000  Uiso   1.00
O321   O     0.25000   0.03036   0.66317   0.00000  Uiso   1.00
O322   O     0.46813   0.41953   0.73228   0.00000  Uiso   1.00
O323   O     0.34530   0.06881   0.33289   0.00000  Uiso   1.00
O324   O     0.40216   0.04875   0.31914   0.00000  Uiso   1.00
O325   O     0.16881   0.40751   0.66037   0.00000  Uiso   1.00
O326   O     0.11678   0.44047   0.66559   0.00000  Uiso   1.00
O327   O     0.46089   0.37604   0.30305   0.00000  Uiso   1.00
O328   O     0.46935   0.41989   0.25781   0.00000  Uiso   1.00
O329   O     0.04109   0.12842   0.69250   0.00000  Uiso   1.00
O330   O     0.03184   0.08045   0.73251   0.00000  Uiso   1.00
O331   O     0.10591   0.05098   0.68258   0.00000  Uiso   1.00
O332   O     0.03036   0.25000   0.33683   0.00000  Uiso   1.00
O333   O     0.10587   0.02205   0.74045   0.00000  Uiso   1.00
O334   O     0.39554   0.45390   0.31017   0.00000  Uiso   1.00
O335   O     0.39688   0.47769   0.24971   0.00000  Uiso   1.00
O336   O     0.10170   0.34959   0.64983   0.00000  Uiso   1.00
O337   O     0.04720   0.36106   0.67788   0.00000  Uiso   1.00
O338   O     0.41586   0.13242   0.34646   0.00000  Uiso   1.00
O339   O     0.46478   0.12739   0.30699   0.00000  Uiso   1.00
O340   O     0.39401   0.44879   0.68237   0.00000  Uiso   1.00
O341   O     0.39405   0.47792   0.74017   0.00000  Uiso   1.00
O342   O     0.13235   0.08457   0.34663   0.00000  Uiso   1.00
O343   O     0.46964   0.25000   0.66317   0.00000  Uiso   1.00
O344   O     0.12811   0.03525   0.30743   0.00000  Uiso   1.00
O345   O     0.39833   0.15023   0.64982   0.00000  Uiso   1.00
O346   O     0.45283   0.13884   0.67791   0.00000  Uiso   1.00
O347   O     0.09342   0.35711   0.34907   0.00000  Uiso   1.00
O348   O     0.04172   0.36827   0.31540   0.00000  Uiso   1.00
O349   O     0.41873   0.15771   0.83964   0.00000  Uiso   1.00
O350   O     0.36670   0.19065   0.83434   0.00000  Uiso   1.00
O351   O     0.08729   0.32998   0.16294   0.00000  Uiso   1.00
O352   O     0.14336   0.30532   0.17077   0.00000  Uiso   1.00
O353   O     0.29114   0.37859   0.80759   0.00000  Uiso   1.00
O354   O     0.25000   0.03036   0.33683   0.00000  Uiso   1.00
O355   O     0.28187   0.33047   0.76772   0.00000  Uiso   1.00
O356   O     0.18140   0.09511   0.16727   0.00000  Uiso   1.00
O357   O     0.20082   0.15234   0.18062   0.00000  Uiso   1.00
O358   O     0.08119   0.34246   0.83963   0.00000  Uiso   1.00
O359   O     0.13324   0.30953   0.83442   0.00000  Uiso   1.00
O360   O     0.40473   0.18124   0.16715   0.00000  Uiso   1.00
O361   O     0.34779   0.20114   0.18075   0.00000  Uiso   1.00
O362   O     0.20892   0.12158   0.80749   0.00000  Uiso   1.00
O363   O     0.21817   0.16955   0.76749   0.00000  Uiso   1.00
O364   O     0.29493   0.35313   0.19198   0.00000  Uiso   1.00
Zn365  Zn    0.20660  -0.00000   0.21760   0.00000  Uiso   1.00
Zn366  Zn    0.04340   0.25000   0.28240   0.00000  Uiso   1.00
Zn367  Zn    0.25000   0.45660   0.71760   0.00000  Uiso   1.00
Zn368  Zn    0.25000   0.04340   0.28240   0.00000  Uiso   1.00
Zn369  Zn    0.04340   0.25000   0.71760   0.00000  Uiso   1.00
Zn370  Zn    0.45660   0.25000   0.28240   0.00000  Uiso   1.00
Zn371  Zn    0.25000   0.04340   0.71760   0.00000  Uiso   1.00
Zn372  Zn    0.25000   0.45660   0.28240   0.00000  Uiso   1.00
Zn373  Zn    0.29340  -0.00000   0.78240   0.00000  Uiso   1.00
Zn374  Zn    0.00000   0.20660   0.21760   0.00000  Uiso   1.00
Zn375  Zn    0.00000   0.29340   0.78240   0.00000  Uiso   1.00
Zn376  Zn    0.29340  -0.00000   0.21760   0.00000  Uiso   1.00
Zn377  Zn    0.20660  -0.00000   0.78240   0.00000  Uiso   1.00
Zn378  Zn    0.00000   0.29340   0.21760   0.00000  Uiso   1.00
Zn379  Zn    0.00000   0.20660   0.78240   0.00000  Uiso   1.00
Zn380  Zn    0.45660   0.25000   0.71760   0.00000  Uiso   1.00
C381   C     0.76067   0.03177   0.04178   0.00000  Uiso   1.00
C382   C     0.98940   0.21831   0.45823   0.00000  Uiso   1.00
C383   C     0.84827   0.40214   0.75038   0.00000  Uiso   1.00
C384   C     0.90230   0.15157   0.24961   0.00000  Uiso   1.00
C385   C     0.59761   0.34855   0.75025   0.00000  Uiso   1.00
C386   C     0.84802   0.40183   0.25008   0.00000  Uiso   1.00
C387   C     0.65173   0.09785   0.75040   0.00000  Uiso   1.00
C388   C     0.59828   0.15215   0.74960   0.00000  Uiso   1.00
C389   C     0.90195   0.34803   0.24999   0.00000  Uiso   1.00
C390   C     0.65240   0.40145   0.74975   0.00000  Uiso   1.00
C391   C     0.84771   0.09842   0.25039   0.00000  Uiso   1.00
C392   C     0.90173   0.34786   0.74962   0.00000  Uiso   1.00
C393   C     0.71918   0.48876   0.54165   0.00000  Uiso   1.00
C394   C     0.59834   0.15222   0.25028   0.00000  Uiso   1.00
C395   C     0.84762   0.09853   0.74976   0.00000  Uiso   1.00
C396   C     0.65239   0.40149   0.25026   0.00000  Uiso   1.00
C397   C     0.74998   0.00026   0.10260   0.00000  Uiso   1.00
C398   C     0.75003   0.00018   0.89743   0.00000  Uiso   1.00
C399   C     0.99978   0.25003   0.10255   0.00000  Uiso   1.00
C400   C     0.99984   0.25010   0.89738   0.00000  Uiso   1.00
C401   C     0.99998   0.24986   0.60256   0.00000  Uiso   1.00
C402   C     0.50002   0.24979   0.39739   0.00000  Uiso   1.00
C403   C     0.75016   0.49990   0.60262   0.00000  Uiso   1.00
C404   C     0.72051   0.01390   0.45852   0.00000  Uiso   1.00
C405   C     0.75023   0.49997   0.39744   0.00000  Uiso   1.00
C406   C     0.63493   0.42073   0.31794   0.00000  Uiso   1.00
C407   C     0.85881   0.08584   0.67902   0.00000  Uiso   1.00
C408   C     0.57181   0.12771   0.31246   0.00000  Uiso   1.00
C409   C     0.94687   0.39062   0.71843   0.00000  Uiso   1.00
C410   C     0.87232   0.07174   0.31245   0.00000  Uiso   1.00
C411   C     0.64125   0.41402   0.67899   0.00000  Uiso   1.00
C412   C     0.94832   0.39274   0.27548   0.00000  Uiso   1.00
C413   C     0.55309   0.10930   0.71856   0.00000  Uiso   1.00
C414   C     0.60940   0.05343   0.71766   0.00000  Uiso   1.00
C415   C     0.51480   0.22009   0.54166   0.00000  Uiso   1.00
C416   C     0.89228   0.44854   0.27542   0.00000  Uiso   1.00
C417   C     0.58525   0.35857   0.67910   0.00000  Uiso   1.00
C418   C     0.92714   0.12907   0.31335   0.00000  Uiso   1.00
C419   C     0.89054   0.44646   0.71747   0.00000  Uiso   1.00
C420   C     0.62934   0.07304   0.31358   0.00000  Uiso   1.00
C421   C     0.91477   0.14131   0.67911   0.00000  Uiso   1.00
C422   C     0.57957   0.36448   0.31786   0.00000  Uiso   1.00
C423   C     0.89118   0.16417   0.82098   0.00000  Uiso   1.00
C424   C     0.61533   0.32903   0.18199   0.00000  Uiso   1.00
C425   C     0.80313   0.35938   0.78157   0.00000  Uiso   1.00
C426   C     0.51075   0.28096   0.45842   0.00000  Uiso   1.00
C427   C     0.67820   0.12229   0.18755   0.00000  Uiso   1.00
C428   C     0.60876   0.33597   0.82101   0.00000  Uiso   1.00
C429   C     0.87768   0.17824   0.18753   0.00000  Uiso   1.00
C430   C     0.69691   0.14070   0.78144   0.00000  Uiso   1.00
C431   C     0.80131   0.35673   0.22649   0.00000  Uiso   1.00
C432   C     0.85727   0.30073   0.22616   0.00000  Uiso   1.00
C433   C     0.64061   0.19657   0.78234   0.00000  Uiso   1.00
C434   C     0.82289   0.12089   0.18662   0.00000  Uiso   1.00
C435   C     0.66475   0.39142   0.82090   0.00000  Uiso   1.00
C436   C     0.62067   0.17697   0.18643   0.00000  Uiso   1.00
C437   C     0.78157   0.01046   0.54178   0.00000  Uiso   1.00
C438   C     0.85946   0.30354   0.78253   0.00000  Uiso   1.00
C439   C     0.67038   0.38568   0.18181   0.00000  Uiso   1.00
C440   C     0.83523   0.10869   0.82089   0.00000  Uiso   1.00
C441   C     0.77110   0.06629   0.10315   0.00000  Uiso   1.00
C442   C     0.77961   0.43734   0.89745   0.00000  Uiso   1.00
C443   C     0.56324   0.22216   0.10236   0.00000  Uiso   1.00
C444   C     0.56574   0.27114   0.89725   0.00000  Uiso   1.00
C445   C     0.72869   0.43433   0.10256   0.00000  Uiso   1.00
C446   C     0.72052   0.06307   0.89712   0.00000  Uiso   1.00
C447   C     0.93648   0.27833   0.10304   0.00000  Uiso   1.00
C448   C     0.78026   0.48561   0.45825   0.00000  Uiso   1.00
C449   C     0.93390   0.22921   0.89693   0.00000  Uiso   1.00
C450   C     0.97031   0.31266   0.60258   0.00000  Uiso   1.00
C451   C     0.97901   0.18373   0.39689   0.00000  Uiso   1.00
C452   C     0.68429   0.47877   0.60275   0.00000  Uiso   1.00
C453   C     0.68669   0.02765   0.39763   0.00000  Uiso   1.00
C454   C     0.52960   0.18702   0.60283   0.00000  Uiso   1.00
C455   C     0.52119   0.31577   0.39735   0.00000  Uiso   1.00
C456   C     0.81607   0.02088   0.60307   0.00000  Uiso   1.00
C457   C     0.81360   0.47183   0.39694   0.00000  Uiso   1.00
C458   C     0.76065   0.03218   0.08236   0.00000  Uiso   1.00
C459   C     0.76493   0.47010   0.91790   0.00000  Uiso   1.00
C460   C     0.53017   0.23597   0.08201   0.00000  Uiso   1.00
C461   C     0.76497   0.47083   0.95845   0.00000  Uiso   1.00
C462   C     0.53154   0.26090   0.91780   0.00000  Uiso   1.00
C463   C     0.73921   0.46852   0.08208   0.00000  Uiso   1.00
C464   C     0.73523   0.03046   0.91775   0.00000  Uiso   1.00
C465   C     0.96930   0.26431   0.08232   0.00000  Uiso   1.00
C466   C     0.96798   0.23954   0.91766   0.00000  Uiso   1.00
C467   C     0.98504   0.27994   0.58211   0.00000  Uiso   1.00
C468   C     0.98941   0.21787   0.41765   0.00000  Uiso   1.00
C469   C     0.71848   0.48905   0.58220   0.00000  Uiso   1.00
C470   C     0.71980   0.01394   0.41798   0.00000  Uiso   1.00
C471   C     0.51485   0.21963   0.58222   0.00000  Uiso   1.00
C472   C     0.52945   0.23601   0.04147   0.00000  Uiso   1.00
C473   C     0.51073   0.28158   0.41787   0.00000  Uiso   1.00
C474   C     0.78200   0.01050   0.58234   0.00000  Uiso   1.00
C475   C     0.78074   0.48577   0.41768   0.00000  Uiso   1.00
C476   C     0.74999   0.00049   0.02135   0.00000  Uiso   1.00
C477   C     0.75013   0.00048   0.97869   0.00000  Uiso   1.00
C478   C     0.99958   0.25029   0.02129   0.00000  Uiso   1.00
C479   C     0.99958   0.25041   0.97861   0.00000  Uiso   1.00
C480   C     0.99992   0.24963   0.52130   0.00000  Uiso   1.00
C481   C     0.50003   0.24962   0.47864   0.00000  Uiso   1.00
C482   C     0.75043   0.49958   0.52139   0.00000  Uiso   1.00
C483   C     0.53084   0.26118   0.95835   0.00000  Uiso   1.00
C484   C     0.75042   0.49970   0.47871   0.00000  Uiso   1.00
C485   C     0.75005   0.00000   0.35510   0.00000  Uiso   1.00
C486   C     0.75003   0.49998   0.64493   0.00000  Uiso   1.00
C487   C     0.50000   0.24992   0.35505   0.00000  Uiso   1.00
C488   C     0.50000   0.24997   0.64493   0.00000  Uiso   1.00
C489   C     0.99997   0.25002   0.85507   0.00000  Uiso   1.00
C490   C     0.99995   0.25000   0.14490   0.00000  Uiso   1.00
C491   C     0.75000   0.00003   0.85507   0.00000  Uiso   1.00
C492   C     0.75000   0.00010   0.14494   0.00000  Uiso   1.00
C493   C     0.68007   0.07002   0.24988   0.00000  Uiso   1.00
C494   C     0.73919   0.46917   0.04154   0.00000  Uiso   1.00
C495   C     0.82015   0.43019   0.74982   0.00000  Uiso   1.00
C496   C     0.92999   0.18004   0.24981   0.00000  Uiso   1.00
C497   C     0.57007   0.31991   0.75029   0.00000  Uiso   1.00
C498   C     0.81993   0.42996   0.24997   0.00000  Uiso   1.00
C499   C     0.67985   0.06980   0.74983   0.00000  Uiso   1.00
C500   C     0.57007   0.31990   0.24973   0.00000  Uiso   1.00
C501   C     0.92993   0.18010   0.75029   0.00000  Uiso   1.00
C502   C     0.67993   0.43009   0.74971   0.00000  Uiso   1.00
C503   C     0.82001   0.06995   0.25019   0.00000  Uiso   1.00
C504   C     0.92985   0.31980   0.75018   0.00000  Uiso   1.00
C505   C     0.73530   0.03003   0.95832   0.00000  Uiso   1.00
C506   C     0.56993   0.17998   0.25012   0.00000  Uiso   1.00
C507   C     0.82007   0.06990   0.74971   0.00000  Uiso   1.00
C508   C     0.67999   0.43005   0.25020   0.00000  Uiso   1.00
C509   C     0.57015   0.18020   0.75017   0.00000  Uiso   1.00
C510   C     0.93006   0.31999   0.25002   0.00000  Uiso   1.00
C511   C     0.63067   0.39640   0.28357   0.00000  Uiso   1.00
C512   C     0.86633   0.10676   0.71509   0.00000  Uiso   1.00
C513   C     0.59977   0.12685   0.28103   0.00000  Uiso   1.00
C514   C     0.91006   0.38283   0.73487   0.00000  Uiso   1.00
C515   C     0.87317   0.09974   0.28104   0.00000  Uiso   1.00
C516   C     0.96978   0.26446   0.04174   0.00000  Uiso   1.00
C517   C     0.63370   0.39316   0.71508   0.00000  Uiso   1.00
C518   C     0.91093   0.38395   0.26145   0.00000  Uiso   1.00
C519   C     0.58992   0.11713   0.73494   0.00000  Uiso   1.00
C520   C     0.61685   0.08977   0.73542   0.00000  Uiso   1.00
C521   C     0.88384   0.41109   0.26116   0.00000  Uiso   1.00
C522   C     0.60594   0.36677   0.71534   0.00000  Uiso   1.00
C523   C     0.90065   0.12654   0.28066   0.00000  Uiso   1.00
C524   C     0.88312   0.41018   0.73532   0.00000  Uiso   1.00
C525   C     0.62667   0.09941   0.28075   0.00000  Uiso   1.00
C526   C     0.89407   0.13318   0.71534   0.00000  Uiso   1.00
C527   C     0.96841   0.23958   0.95822   0.00000  Uiso   1.00
C528   C     0.60314   0.36975   0.28317   0.00000  Uiso   1.00
C529   C     0.88367   0.14324   0.78491   0.00000  Uiso   1.00
C530   C     0.61954   0.35343   0.21631   0.00000  Uiso   1.00
C531   C     0.83994   0.36717   0.76513   0.00000  Uiso   1.00
C532   C     0.65024   0.12316   0.21897   0.00000  Uiso   1.00
C533   C     0.61630   0.35683   0.78492   0.00000  Uiso   1.00
C534   C     0.87684   0.15024   0.21895   0.00000  Uiso   1.00
C535   C     0.66008   0.13287   0.76506   0.00000  Uiso   1.00
C536   C     0.83892   0.36574   0.23936   0.00000  Uiso   1.00
C537   C     0.86610   0.33868   0.23898   0.00000  Uiso   1.00
C538   C     0.98503   0.27925   0.54156   0.00000  Uiso   1.00
C539   C     0.63315   0.16023   0.76458   0.00000  Uiso   1.00
C540   C     0.84936   0.12344   0.21933   0.00000  Uiso   1.00
C541   C     0.64406   0.38323   0.78466   0.00000  Uiso   1.00
C542   C     0.62334   0.15059   0.21925   0.00000  Uiso   1.00
C543   C     0.86688   0.33982   0.76467   0.00000  Uiso   1.00
C544   C     0.64705   0.38014   0.21666   0.00000  Uiso   1.00
C545   C     0.85593   0.11682   0.78466   0.00000  Uiso   1.00
C546   C     0.59777   0.34840   0.24960   0.00000  Uiso   1.00
C547   C     0.90238   0.15147   0.75024   0.00000  Uiso   1.00
C548   C     0.65167   0.09778   0.24972   0.00000  Uiso   1.00
H549   H     0.76923   0.05582   0.02588   0.00000  Uiso   1.00
H550   H     0.98088   0.19426   0.47415   0.00000  Uiso   1.00
H551   H     0.69530   0.48003   0.52564   0.00000  Uiso   1.00
H552   H     0.69766   0.02505   0.47460   0.00000  Uiso   1.00
H553   H     0.52649   0.19739   0.52569   0.00000  Uiso   1.00
H554   H     0.51928   0.30495   0.47448   0.00000  Uiso   1.00
H555   H     0.80555   0.01909   0.52587   0.00000  Uiso   1.00
H556   H     0.80318   0.47437   0.47412   0.00000  Uiso   1.00
H557   H     0.58560   0.44430   0.31050   0.00000  Uiso   1.00
H558   H     0.90499   0.05611   0.68353   0.00000  Uiso   1.00
H559   H     0.55283   0.07724   0.29990   0.00000  Uiso   1.00
H560   H     0.77664   0.44819   0.97451   0.00000  Uiso   1.00
H561   H     0.95685   0.43219   0.75550   0.00000  Uiso   1.00
H562   H     0.92243   0.05219   0.29951   0.00000  Uiso   1.00
H563   H     0.59506   0.44374   0.68343   0.00000  Uiso   1.00
H564   H     0.95726   0.43055   0.23395   0.00000  Uiso   1.00
H565   H     0.54313   0.06786   0.75574   0.00000  Uiso   1.00
H566   H     0.60703   0.02756   0.76921   0.00000  Uiso   1.00
H567   H     0.89497   0.46985   0.22161   0.00000  Uiso   1.00
H568   H     0.53638   0.37105   0.70275   0.00000  Uiso   1.00
H569   H     0.97126   0.12172   0.27908   0.00000  Uiso   1.00
H570   H     0.89293   0.47252   0.76894   0.00000  Uiso   1.00
H571   H     0.55227   0.22480   0.02539   0.00000  Uiso   1.00
H572   H     0.62257   0.02855   0.27956   0.00000  Uiso   1.00
H573   H     0.96364   0.12890   0.70279   0.00000  Uiso   1.00
H574   H     0.53338   0.37663   0.28885   0.00000  Uiso   1.00
H575   H     0.84499   0.19387   0.81648   0.00000  Uiso   1.00
H576   H     0.66495   0.30597   0.18910   0.00000  Uiso   1.00
H577   H     0.79315   0.31780   0.74450   0.00000  Uiso   1.00
H578   H     0.69719   0.17276   0.20012   0.00000  Uiso   1.00
H579   H     0.65497   0.30628   0.81658   0.00000  Uiso   1.00
H580   H     0.82750   0.19768   0.20036   0.00000  Uiso   1.00
H581   H     0.70687   0.18214   0.74425   0.00000  Uiso   1.00
H582   H     0.55474   0.26987   0.97436   0.00000  Uiso   1.00
H583   H     0.78187   0.35424   0.28110   0.00000  Uiso   1.00
H584   H     0.81993   0.29284   0.26835   0.00000  Uiso   1.00
H585   H     0.64297   0.22244   0.73079   0.00000  Uiso   1.00
H586   H     0.77876   0.12825   0.22086   0.00000  Uiso   1.00
H587   H     0.71362   0.37895   0.79725   0.00000  Uiso   1.00
H588   H     0.62742   0.22146   0.22045   0.00000  Uiso   1.00
H589   H     0.85707   0.27748   0.73106   0.00000  Uiso   1.00
H590   H     0.71703   0.37455   0.21048   0.00000  Uiso   1.00
H591   H     0.78636   0.12110   0.79721   0.00000  Uiso   1.00
H592   H     0.77003   0.06775   0.13451   0.00000  Uiso   1.00
H593   H     0.73061   0.44520   0.02546   0.00000  Uiso   1.00
H594   H     0.77739   0.43472   0.86625   0.00000  Uiso   1.00
H595   H     0.56550   0.22382   0.13363   0.00000  Uiso   1.00
H596   H     0.56773   0.26891   0.86598   0.00000  Uiso   1.00
H597   H     0.73030   0.43259   0.13385   0.00000  Uiso   1.00
H598   H     0.72262   0.06543   0.86589   0.00000  Uiso   1.00
H599   H     0.93423   0.27619   0.13429   0.00000  Uiso   1.00
H600   H     0.93213   0.23116   0.86563   0.00000  Uiso   1.00
H601   H     0.97253   0.31527   0.63379   0.00000  Uiso   1.00
H602   H     0.98006   0.18225   0.36553   0.00000  Uiso   1.00
H603   H     0.68229   0.48101   0.63401   0.00000  Uiso   1.00
H604   H     0.72365   0.05276   0.97427   0.00000  Uiso   1.00
H605   H     0.68448   0.02609   0.36635   0.00000  Uiso   1.00
H606   H     0.52746   0.18461   0.63405   0.00000  Uiso   1.00
H607   H     0.51966   0.31748   0.36605   0.00000  Uiso   1.00
H608   H     0.81785   0.01891   0.63436   0.00000  Uiso   1.00
H609   H     0.81583   0.47394   0.36569   0.00000  Uiso   1.00
H610   H     0.94689   0.27576   0.02587   0.00000  Uiso   1.00
H611   H     0.94442   0.23099   0.97413   0.00000  Uiso   1.00
H612   H     0.97332   0.30187   0.52551   0.00000  Uiso   1.00
O613   O     0.75000  -0.00000   0.25000   0.00000  Uiso   1.00
O614   O     0.75000   0.46964   0.66317   0.00000  Uiso   1.00
O615   O     0.77321   0.35178   0.25333   0.00000  Uiso   1.00
O616   O     0.87400   0.28712   0.19914   0.00000  Uiso   1.00
O617   O     0.83026   0.28017   0.24464   0.00000  Uiso   1.00
O618   O     0.64409   0.19902   0.81742   0.00000  Uiso   1.00
O619   O     0.64413   0.22795   0.75955   0.00000  Uiso   1.00
O620   O     0.83419   0.11751   0.15353   0.00000  Uiso   1.00
O621   O     0.78525   0.12257   0.19296   0.00000  Uiso   1.00
O622   O     0.64830   0.40040   0.85017   0.00000  Uiso   1.00
O623   O     0.70280   0.38894   0.82212   0.00000  Uiso   1.00
O624   O     0.61768   0.16544   0.15337   0.00000  Uiso   1.00
O625   O     0.96964   0.25000   0.33683   0.00000  Uiso   1.00
O626   O     0.62189   0.21475   0.19258   0.00000  Uiso   1.00
O627   O     0.85599   0.30121   0.81762   0.00000  Uiso   1.00
O628   O     0.85595   0.27208   0.75983   0.00000  Uiso   1.00
O629   O     0.65623   0.39269   0.15065   0.00000  Uiso   1.00
O630   O     0.70832   0.38260   0.18398   0.00000  Uiso   1.00
O631   O     0.85167   0.09978   0.85018   0.00000  Uiso   1.00
O632   O     0.79717   0.11115   0.82209   0.00000  Uiso   1.00
O633   O     0.78089   0.09345   0.08540   0.00000  Uiso   1.00
O634   O     0.79428   0.41253   0.91533   0.00000  Uiso   1.00
O635   O     0.58872   0.20896   0.08430   0.00000  Uiso   1.00
O636   O     0.53036   0.25000   0.66317   0.00000  Uiso   1.00
O637   O     0.59237   0.28207   0.91507   0.00000  Uiso   1.00
O638   O     0.71822   0.40749   0.08467   0.00000  Uiso   1.00
O639   O     0.70596   0.08804   0.91488   0.00000  Uiso   1.00
O640   O     0.91122   0.29236   0.08535   0.00000  Uiso   1.00
O641   O     0.90712   0.21850   0.91464   0.00000  Uiso   1.00
O642   O     0.95559   0.33745   0.58472   0.00000  Uiso   1.00
O643   O     0.96926   0.15656   0.41466   0.00000  Uiso   1.00
O644   O     0.65768   0.46779   0.58492   0.00000  Uiso   1.00
O645   O     0.66112   0.04068   0.41569   0.00000  Uiso   1.00
O646   O     0.54424   0.16210   0.58505   0.00000  Uiso   1.00
O647   O     0.50000   0.21964   0.83683   0.00000  Uiso   1.00
O648   O     0.53152   0.34268   0.41523   0.00000  Uiso   1.00
O649   O     0.84283   0.03163   0.58535   0.00000  Uiso   1.00
O650   O     0.83891   0.45791   0.41464   0.00000  Uiso   1.00
O651   O     0.50000   0.28036   0.16317   0.00000  Uiso   1.00
O652   O     0.78036  -0.00000   0.83683   0.00000  Uiso   1.00
O653   O     0.71964  -0.00000   0.16317   0.00000  Uiso   1.00
O654   O     0.50000   0.28036   0.83683   0.00000  Uiso   1.00
O655   O     0.50000   0.21964   0.16317   0.00000  Uiso   1.00
O656   O     0.71964  -0.00000   0.83683   0.00000  Uiso   1.00
O657   O     0.75000  -0.00000   0.75000   0.00000  Uiso   1.00
O658   O     0.78036  -0.00000   0.16317   0.00000  Uiso   1.00
O659   O     0.70726   0.07307   0.27282   0.00000  Uiso   1.00
O660   O     0.79275   0.42693   0.72718   0.00000  Uiso   1.00
O661   O     0.92693   0.20725   0.27282   0.00000  Uiso   1.00
O662   O     0.57307   0.29274   0.72718   0.00000  Uiso   1.00
O663   O     0.79275   0.42693   0.27282   0.00000  Uiso   1.00
O664   O     0.70726   0.07307   0.72718   0.00000  Uiso   1.00
O665   O     0.57307   0.29274   0.27282   0.00000  Uiso   1.00
O666   O     0.92693   0.20725   0.72718   0.00000  Uiso   1.00
O667   O     0.70726   0.42693   0.72718   0.00000  Uiso   1.00
O668   O     0.50000   0.25000   0.25000   0.00000  Uiso   1.00
O669   O     0.79275   0.07307   0.27282   0.00000  Uiso   1.00
O670   O     0.92693   0.29274   0.72718   0.00000  Uiso   1.00
O671   O     0.57307   0.20725   0.27282   0.00000  Uiso   1.00
O672   O     0.79275   0.07307   0.72718   0.00000  Uiso   1.00
O673   O     0.70726   0.42693   0.27282   0.00000  Uiso   1.00
O674   O     0.57307   0.20725   0.72718   0.00000  Uiso   1.00
O675   O     0.92693   0.29274   0.27282   0.00000  Uiso   1.00
O676   O     0.95726   0.32307   0.77282   0.00000  Uiso   1.00
O677   O     0.54275   0.17693   0.22718   0.00000  Uiso   1.00
O678   O     0.67693   0.45725   0.77282   0.00000  Uiso   1.00
O679   O     0.50000   0.25000   0.75000   0.00000  Uiso   1.00
O680   O     0.82307   0.04274   0.22718   0.00000  Uiso   1.00
O681   O     0.54275   0.17693   0.77282   0.00000  Uiso   1.00
O682   O     0.95726   0.32307   0.22718   0.00000  Uiso   1.00
O683   O     0.82307   0.04274   0.77282   0.00000  Uiso   1.00
O684   O     0.67693   0.45725   0.22718   0.00000  Uiso   1.00
O685   O     0.95726   0.17693   0.22718   0.00000  Uiso   1.00
O686   O     0.54275   0.32307   0.77282   0.00000  Uiso   1.00
O687   O     0.67693   0.04274   0.22718   0.00000  Uiso   1.00
O688   O     0.82307   0.45725   0.77282   0.00000  Uiso   1.00
O689   O     0.54275   0.32307   0.22718   0.00000  Uiso   1.00
O690   O     0.75000   0.46964   0.33683   0.00000  Uiso   1.00
O691   O     0.95726   0.17693   0.77282   0.00000  Uiso   1.00
O692   O     0.82307   0.45725   0.22718   0.00000  Uiso   1.00
O693   O     0.67693   0.04274   0.77282   0.00000  Uiso   1.00
O694   O     0.66284   0.41945   0.33718   0.00000  Uiso   1.00
O695   O     0.60709   0.44474   0.32898   0.00000  Uiso   1.00
O696   O     0.83127   0.09232   0.66036   0.00000  Uiso   1.00
O697   O     0.88328   0.05934   0.66566   0.00000  Uiso   1.00
O698   O     0.56860   0.15490   0.33273   0.00000  Uiso   1.00
O699   O     0.54919   0.09766   0.31939   0.00000  Uiso   1.00
O700   O     0.95886   0.37141   0.69241   0.00000  Uiso   1.00
O701   O     0.75000   0.03036   0.66317   0.00000  Uiso   1.00
O702   O     0.96813   0.41953   0.73228   0.00000  Uiso   1.00
O703   O     0.84530   0.06881   0.33289   0.00000  Uiso   1.00
O704   O     0.90216   0.04875   0.31914   0.00000  Uiso   1.00
O705   O     0.66881   0.40751   0.66037   0.00000  Uiso   1.00
O706   O     0.61678   0.44047   0.66559   0.00000  Uiso   1.00
O707   O     0.96089   0.37604   0.30305   0.00000  Uiso   1.00
O708   O     0.96935   0.41989   0.25781   0.00000  Uiso   1.00
O709   O     0.54109   0.12842   0.69250   0.00000  Uiso   1.00
O710   O     0.53184   0.08045   0.73251   0.00000  Uiso   1.00
O711   O     0.60591   0.05098   0.68258   0.00000  Uiso   1.00
O712   O     0.53036   0.25000   0.33683   0.00000  Uiso   1.00
O713   O     0.60587   0.02205   0.74045   0.00000  Uiso   1.00
O714   O     0.89554   0.45390   0.31017   0.00000  Uiso   1.00
O715   O     0.89688   0.47769   0.24971   0.00000  Uiso   1.00
O716   O     0.60170   0.34959   0.64983   0.00000  Uiso   1.00
O717   O     0.54720   0.36106   0.67788   0.00000  Uiso   1.00
O718   O     0.91586   0.13242   0.34646   0.00000  Uiso   1.00
O719   O     0.96478   0.12739   0.30699   0.00000  Uiso   1.00
O720   O     0.89401   0.44879   0.68237   0.00000  Uiso   1.00
O721   O     0.89405   0.47792   0.74017   0.00000  Uiso   1.00
O722   O     0.63235   0.08457   0.34663   0.00000  Uiso   1.00
O723   O     0.96964   0.25000   0.66317   0.00000  Uiso   1.00
O724   O     0.62811   0.03525   0.30743   0.00000  Uiso   1.00
O725   O     0.89833   0.15023   0.64982   0.00000  Uiso   1.00
O726   O     0.95283   0.13884   0.67791   0.00000  Uiso   1.00
O727   O     0.59342   0.35711   0.34907   0.00000  Uiso   1.00
O728   O     0.54172   0.36827   0.31540   0.00000  Uiso   1.00
O729   O     0.91873   0.15771   0.83964   0.00000  Uiso   1.00
O730   O     0.86670   0.19065   0.83434   0.00000  Uiso   1.00
O731   O     0.58729   0.32998   0.16294   0.00000  Uiso   1.00
O732   O     0.64336   0.30532   0.17077   0.00000  Uiso   1.00
O733   O     0.79114   0.37859   0.80759   0.00000  Uiso   1.00
O734   O     0.75000   0.03036   0.33683   0.00000  Uiso   1.00
O735   O     0.78187   0.33047   0.76772   0.00000  Uiso   1.00
O736   O     0.68140   0.09511   0.16727   0.00000  Uiso   1.00
O737   O     0.70082   0.15234   0.18062   0.00000  Uiso   1.00
O738   O     0.58119   0.34246   0.83963   0.00000  Uiso   1.00
O739   O     0.63324   0.30953   0.83442   0.00000  Uiso   1.00
O740   O     0.90473   0.18124   0.16715   0.00000  Uiso   1.00
O741   O     0.84779   0.20114   0.18075   0.00000  Uiso   1.00
O742   O     0.70892   0.12158   0.80749   0.00000  Uiso   1.00
O743   O     0.71817   0.16955   0.76749   0.00000  Uiso   1.00
O744   O     0.79493   0.35313   0.19198   0.00000  Uiso   1.00
Zn745  Zn    0.70660  -0.00000   0.21760   0.00000  Uiso   1.00
Zn746  Zn    0.54340   0.25000   0.28240   0.00000  Uiso   1.00
Zn747  Zn    0.75000   0.45660   0.71760   0.00000  Uiso   1.00
Zn748  Zn    0.75000   0.04340   0.28240   0.00000  Uiso   1.00
Zn749  Zn    0.54340   0.25000   0.71760   0.00000  Uiso   1.00
Zn750  Zn    0.95660   0.25000   0.28240   0.00000  Uiso   1.00
Zn751  Zn    0.75000   0.04340   0.71760   0.00000  Uiso   1.00
Zn752  Zn    0.75000   0.45660   0.28240   0.00000  Uiso   1.00
Zn753  Zn    0.79340  -0.00000   0.78240   0.00000  Uiso   1.00
Zn754  Zn    0.50000   0.20660   0.21760   0.00000  Uiso   1.00
Zn755  Zn    0.50000   0.29340   0.78240   0.00000  Uiso   1.00
Zn756  Zn    0.79340  -0.00000   0.21760   0.00000  Uiso   1.00
Zn757  Zn    0.70660  -0.00000   0.78240   0.00000  Uiso   1.00
Zn758  Zn    0.50000   0.29340   0.21760   0.00000  Uiso   1.00
Zn759  Zn    0.50000   0.20660   0.78240   0.00000  Uiso   1.00
Zn760  Zn    0.95660   0.25000   0.71760   0.00000  Uiso   1.00
C761   C     0.26067   0.53177   0.04178   0.00000  Uiso   1.00
C762   C     0.48940   0.71831   0.45823   0.00000  Uiso   1.00
C763   C     0.34827   0.90214   0.75038   0.00000  Uiso   1.00
C764   C     0.40230   0.65157   0.24961   0.00000  Uiso   1.00
C765   C     0.09761   0.84855   0.75025   0.00000  Uiso   1.00
C766   C     0.34802   0.90183   0.25008   0.00000  Uiso   1.00
C767   C     0.15173   0.59785   0.75040   0.00000  Uiso   1.00
C768   C     0.09828   0.65215   0.74960   0.00000  Uiso   1.00
C769   C     0.40195   0.84803   0.24999   0.00000  Uiso   1.00
C770   C     0.15240   0.90145   0.74975   0.00000  Uiso   1.00
C771   C     0.34771   0.59842   0.25039   0.00000  Uiso   1.00
C772   C     0.40173   0.84786   0.74962   0.00000  Uiso   1.00
C773   C     0.21918   0.98876   0.54165   0.00000  Uiso   1.00
C774   C     0.09834   0.65222   0.25028   0.00000  Uiso   1.00
C775   C     0.34762   0.59853   0.74976   0.00000  Uiso   1.00
C776   C     0.15239   0.90149   0.25026   0.00000  Uiso   1.00
C777   C     0.24998   0.50026   0.10260   0.00000  Uiso   1.00
C778   C     0.25003   0.50018   0.89743   0.00000  Uiso   1.00
C779   C     0.49978   0.75003   0.10255   0.00000  Uiso   1.00
C780   C     0.49984   0.75010   0.89738   0.00000  Uiso   1.00
C781   C     0.49998   0.74986   0.60256   0.00000  Uiso   1.00
C782   C     0.00002   0.74979   0.39739   0.00000  Uiso   1.00
C783   C     0.25016   0.99990   0.60262   0.00000  Uiso   1.00
C784   C     0.22051   0.51390   0.45852   0.00000  Uiso   1.00
C785   C     0.25023   0.99997   0.39744   0.00000  Uiso   1.00
C786   C     0.13493   0.92073   0.31794   0.00000  Uiso   1.00
C787   C     0.35881   0.58584   0.67902   0.00000  Uiso   1.00
C788   C     0.07181   0.62771   0.31246   0.00000  Uiso   1.00
C789   C     0.44687   0.89062   0.71843   0.00000  Uiso   1.00
C790   C     0.37232   0.57174   0.31245   0.00000  Uiso   1.00
C791   C     0.14125   0.91402   0.67899   0.00000  Uiso   1.00
C792   C     0.44832   0.89274   0.27548   0.00000  Uiso   1.00
C793   C     0.05309   0.60930   0.71856   0.00000  Uiso   1.00
C794   C     0.10940   0.55343   0.71766   0.00000  Uiso   1.00
C795   C     0.01480   0.72009   0.54166   0.00000  Uiso   1.00
C796   C     0.39228   0.94854   0.27542   0.00000  Uiso   1.00
C797   C     0.08525   0.85857   0.67910   0.00000  Uiso   1.00
C798   C     0.42714   0.62907   0.31335   0.00000  Uiso   1.00
C799   C     0.39054   0.94646   0.71747   0.00000  Uiso   1.00
C800   C     0.12934   0.57304   0.31358   0.00000  Uiso   1.00
C801   C     0.41477   0.64131   0.67911   0.00000  Uiso   1.00
C802   C     0.07957   0.86448   0.31786   0.00000  Uiso   1.00
C803   C     0.39118   0.66417   0.82098   0.00000  Uiso   1.00
C804   C     0.11533   0.82903   0.18199   0.00000  Uiso   1.00
C805   C     0.30313   0.85938   0.78157   0.00000  Uiso   1.00
C806   C     0.01075   0.78096   0.45842   0.00000  Uiso   1.00
C807   C     0.17820   0.62229   0.18755   0.00000  Uiso   1.00
C808   C     0.10876   0.83597   0.82101   0.00000  Uiso   1.00
C809   C     0.37768   0.67824   0.18753   0.00000  Uiso   1.00
C810   C     0.19691   0.64070   0.78144   0.00000  Uiso   1.00
C811   C     0.30131   0.85673   0.22649   0.00000  Uiso   1.00
C812   C     0.35727   0.80073   0.22616   0.00000  Uiso   1.00
C813   C     0.14061   0.69657   0.78234   0.00000  Uiso   1.00
C814   C     0.32289   0.62089   0.18662   0.00000  Uiso   1.00
C815   C     0.16475   0.89142   0.82090   0.00000  Uiso   1.00
C816   C     0.12067   0.67697   0.18643   0.00000  Uiso   1.00
C817   C     0.28157   0.51046   0.54178   0.00000  Uiso   1.00
C818   C     0.35946   0.80354   0.78253   0.00000  Uiso   1.00
C819   C     0.17038   0.88568   0.18181   0.00000  Uiso   1.00
C820   C     0.33523   0.60869   0.82089   0.00000  Uiso   1.00
C821   C     0.27110   0.56629   0.10315   0.00000  Uiso   1.00
C822   C     0.27961   0.93734   0.89745   0.00000  Uiso   1.00
C823   C     0.06324   0.72216   0.10236   0.00000  Uiso   1.00
C824   C     0.06574   0.77114   0.89725   0.00000  Uiso   1.00
C825   C     0.22869   0.93433   0.10256   0.00000  Uiso   1.00
C826   C     0.22052   0.56307   0.89712   0.00000  Uiso   1.00
C827   C     0.43648   0.77833   0.10304   0.00000  Uiso   1.00
C828   C     0.28026   0.98561   0.45825   0.00000  Uiso   1.00
C829   C     0.43390   0.72921   0.89693   0.00000  Uiso   1.00
C830   C     0.47031   0.81266   0.60258   0.00000  Uiso   1.00
C831   C     0.47901   0.68373   0.39689   0.00000  Uiso   1.00
C832   C     0.18429   0.97877   0.60275   0.00000  Uiso   1.00
C833   C     0.18669   0.52765   0.39763   0.00000  Uiso   1.00
C834   C     0.02960   0.68702   0.60283   0.00000  Uiso   1.00
C835   C     0.02119   0.81577   0.39735   0.00000  Uiso   1.00
C836   C     0.31607   0.52088   0.60307   0.00000  Uiso   1.00
C837   C     0.31360   0.97183   0.39694   0.00000  Uiso   1.00
C838   C     0.26065   0.53218   0.08236   0.00000  Uiso   1.00
C839   C     0.26493   0.97010   0.91790   0.00000  Uiso   1.00
C840   C     0.03017   0.73597   0.08201   0.00000  Uiso   1.00
C841   C     0.26497   0.97083   0.95845   0.00000  Uiso   1.00
C842   C     0.03154   0.76090   0.91780   0.00000  Uiso   1.00
C843   C     0.23921   0.96852   0.08208   0.00000  Uiso   1.00
C844   C     0.23523   0.53046   0.91775   0.00000  Uiso   1.00
C845   C     0.46930   0.76431   0.08232   0.00000  Uiso   1.00
C846   C     0.46798   0.73954   0.91766   0.00000  Uiso   1.00
C847   C     0.48504   0.77994   0.58211   0.00000  Uiso   1.00
C848   C     0.48941   0.71787   0.41765   0.00000  Uiso   1.00
C849   C     0.21848   0.98905   0.58220   0.00000  Uiso   1.00
C850   C     0.21980   0.51394   0.41798   0.00000  Uiso   1.00
C851   C     0.01485   0.71963   0.58222   0.00000  Uiso   1.00
C852   C     0.02945   0.73601   0.04147   0.00000  Uiso   1.00
C853   C     0.01073   0.78158   0.41787   0.00000  Uiso   1.00
C854   C     0.28200   0.51050   0.58234   0.00000  Uiso   1.00
C855   C     0.28074   0.98577   0.41768   0.00000  Uiso   1.00
C856   C     0.24999   0.50049   0.02135   0.00000  Uiso   1.00
C857   C     0.25013   0.50048   0.97869   0.00000  Uiso   1.00
C858   C     0.49958   0.75029   0.02129   0.00000  Uiso   1.00
C859   C     0.49958   0.75041   0.97861   0.00000  Uiso   1.00
C860   C     0.49992   0.74963   0.52130   0.00000  Uiso   1.00
C861   C     0.00003   0.74962   0.47864   0.00000  Uiso   1.00
C862   C     0.25043   0.99958   0.52139   0.00000  Uiso   1.00
C863   C     0.03084   0.76118   0.95835   0.00000  Uiso   1.00
C864   C     0.25042   0.99970   0.47871   0.00000  Uiso   1.00
C865   C     0.25005   0.50000   0.35510   0.00000  Uiso   1.00
C866   C     0.25003   0.99998   0.64493   0.00000  Uiso   1.00
C867   C     0.00000   0.74992   0.35505   0.00000  Uiso   1.00
C868   C    -0.00000   0.74997   0.64493   0.00000  Uiso   1.00
C869   C     0.49997   0.75002   0.85507   0.00000  Uiso   1.00
C870   C     0.49995   0.75000   0.14490   0.00000  Uiso   1.00
C871   C     0.25000   0.50003   0.85507   0.00000  Uiso   1.00
C872   C     0.25000   0.50010   0.14494   0.00000  Uiso   1.00
C873   C     0.18007   0.57002   0.24988   0.00000  Uiso   1.00
C874   C     0.23919   0.96917   0.04154   0.00000  Uiso   1.00
C875   C     0.32015   0.93019   0.74982   0.00000  Uiso   1.00
C876   C     0.42999   0.68004   0.24981   0.00000  Uiso   1.00
C877   C     0.07007   0.81991   0.75029   0.00000  Uiso   1.00
C878   C     0.31993   0.92996   0.24997   0.00000  Uiso   1.00
C879   C     0.17985   0.56980   0.74983   0.00000  Uiso   1.00
C880   C     0.07007   0.81990   0.24973   0.00000  Uiso   1.00
C881   C     0.42993   0.68010   0.75029   0.00000  Uiso   1.00
C882   C     0.17993   0.93009   0.74971   0.00000  Uiso   1.00
C883   C     0.32001   0.56995   0.25019   0.00000  Uiso   1.00
C884   C     0.42985   0.81980   0.75018   0.00000  Uiso   1.00
C885   C     0.23530   0.53003   0.95832   0.00000  Uiso   1.00
C886   C     0.06993   0.67998   0.25012   0.00000  Uiso   1.00
C887   C     0.32007   0.56990   0.74971   0.00000  Uiso   1.00
C888   C     0.17999   0.93005   0.25020   0.00000  Uiso   1.00
C889   C     0.07015   0.68020   0.75017   0.00000  Uiso   1.00
C890   C     0.43006   0.81999   0.25002   0.00000  Uiso   1.00
C891   C     0.13067   0.89640   0.28357   0.00000  Uiso   1.00
C892   C     0.36633   0.60676   0.71509   0.00000  Uiso   1.00
C893   C     0.09977   0.62685   0.28103   0.00000  Uiso   1.00
C894   C     0.41006   0.88283   0.73487   0.00000  Uiso   1.00
C895   C     0.37317   0.59974   0.28104   0.00000  Uiso   1.00
C896   C     0.46978   0.76446   0.04174   0.00000  Uiso   1.00
C897   C     0.13370   0.89316   0.71508   0.00000  Uiso   1.00
C898   C     0.41093   0.88395   0.26145   0.00000  Uiso   1.00
C899   C     0.08992   0.61713   0.73494   0.00000  Uiso   1.00
C900   C     0.11685   0.58977   0.73542   0.00000  Uiso   1.00
C901   C     0.38384   0.91109   0.26116   0.00000  Uiso   1.00
C902   C     0.10594   0.86677   0.71534   0.00000  Uiso   1.00
C903   C     0.40065   0.62654   0.28066   0.00000  Uiso   1.00
C904   C     0.38312   0.91018   0.73532   0.00000  Uiso   1.00
C905   C     0.12667   0.59941   0.28075   0.00000  Uiso   1.00
C906   C     0.39407   0.63318   0.71534   0.00000  Uiso   1.00
C907   C     0.46841   0.73958   0.95822   0.00000  Uiso   1.00
C908   C     0.10314   0.86975   0.28317   0.00000  Uiso   1.00
C909   C     0.38367   0.64324   0.78491   0.00000  Uiso   1.00
C910   C     0.11954   0.85343   0.21631   0.00000  Uiso   1.00
C911   C     0.33994   0.86717   0.76513   0.00000  Uiso   1.00
C912   C     0.15024   0.62316   0.21897   0.00000  Uiso   1.00
C913   C     0.11630   0.85683   0.78492   0.00000  Uiso   1.00
C914   C     0.37684   0.65024   0.21895   0.00000  Uiso   1.00
C915   C     0.16008   0.63287   0.76506   0.00000  Uiso   1.00
C916   C     0.33892   0.86574   0.23936   0.00000  Uiso   1.00
C917   C     0.36610   0.83868   0.23898   0.00000  Uiso   1.00
C918   C     0.48503   0.77925   0.54156   0.00000  Uiso   1.00
C919   C     0.13315   0.66023   0.76458   0.00000  Uiso   1.00
C920   C     0.34936   0.62344   0.21933   0.00000  Uiso   1.00
C921   C     0.14406   0.88323   0.78466   0.00000  Uiso   1.00
C922   C     0.12334   0.65059   0.21925   0.00000  Uiso   1.00
C923   C     0.36688   0.83982   0.76467   0.00000  Uiso   1.00
C924   C     0.14705   0.88014   0.21666   0.00000  Uiso   1.00
C925   C     0.35593   0.61682   0.78466   0.00000  Uiso   1.00
C926   C     0.09777   0.84840   0.24960   0.00000  Uiso   1.00
C927   C     0.40238   0.65147   0.75024   0.00000  Uiso   1.00
C928   C     0.15167   0.59778   0.24972   0.00000  Uiso   1.00
H929   H     0.26923   0.55582   0.02588   0.00000  Uiso   1.00
H930   H     0.48088   0.69426   0.47415   0.00000  Uiso   1.00
H931   H     0.19530   0.98003   0.52564   0.00000  Uiso   1.00
H932   H     0.19766   0.52505   0.47460   0.00000  Uiso   1.00
H933   H     0.02649   0.69739   0.52569   0.00000  Uiso   1.00
H934   H     0.01928   0.80495   0.47448   0.00000  Uiso   1.00
H935   H     0.30555   0.51909   0.52587   0.00000  Uiso   1.00
H936   H     0.30318   0.97437   0.47412   0.00000  Uiso   1.00
H937   H     0.08560   0.94430   0.31050   0.00000  Uiso   1.00
H938   H     0.40499   0.55611   0.68353   0.00000  Uiso   1.00
H939   H     0.05283   0.57724   0.29990   0.00000  Uiso   1.00
H940   H     0.27664   0.94819   0.97451   0.00000  Uiso   1.00
H941   H     0.45685   0.93219   0.75550   0.00000  Uiso   1.00
H942   H     0.42243   0.55219   0.29951   0.00000  Uiso   1.00
H943   H     0.09506   0.94374   0.68343   0.00000  Uiso   1.00
H944   H     0.45726   0.93055   0.23395   0.00000  Uiso   1.00
H945   H     0.04313   0.56786   0.75574   0.00000  Uiso   1.00
H946   H     0.10703   0.52756   0.76921   0.00000  Uiso   1.00
H947   H     0.39497   0.96985   0.22161   0.00000  Uiso   1.00
H948   H     0.03638   0.87105   0.70275   0.00000  Uiso   1.00
H949   H     0.47126   0.62172   0.27908   0.00000  Uiso   1.00
H950   H     0.39293   0.97252   0.76894   0.00000  Uiso   1.00
H951   H     0.05227   0.72480   0.02539   0.00000  Uiso   1.00
H952   H     0.12257   0.52855   0.27956   0.00000  Uiso   1.00
H953   H     0.46364   0.62890   0.70279   0.00000  Uiso   1.00
H954   H     0.03338   0.87663   0.28885   0.00000  Uiso   1.00
H955   H     0.34499   0.69387   0.81648   0.00000  Uiso   1.00
H956   H     0.16495   0.80597   0.18910   0.00000  Uiso   1.00
H957   H     0.29315   0.81780   0.74450   0.00000  Uiso   1.00
H958   H     0.19719   0.67276   0.20012   0.00000  Uiso   1.00
H959   H     0.15497   0.80628   0.81658   0.00000  Uiso   1.00
H960   H     0.32750   0.69768   0.20036   0.00000  Uiso   1.00
H961   H     0.20687   0.68214   0.74425   0.00000  Uiso   1.00
H962   H     0.05474   0.76987   0.97436   0.00000  Uiso   1.00
H963   H     0.28187   0.85424   0.28110   0.00000  Uiso   1.00
H964   H     0.31993   0.79284   0.26835   0.00000  Uiso   1.00
H965   H     0.14297   0.72244   0.73079   0.00000  Uiso   1.00
H966   H     0.27876   0.62825   0.22086   0.00000  Uiso   1.00
H967   H     0.21362   0.87895   0.79725   0.00000  Uiso   1.00
H968   H     0.12742   0.72146   0.22045   0.00000  Uiso   1.00
H969   H     0.35707   0.77748   0.73106   0.00000  Uiso   1.00
H970   H     0.21703   0.87455   0.21048   0.00000  Uiso   1.00
H971   H     0.28636   0.62110   0.79721   0.00000  Uiso   1.00
H972   H     0.27003   0.56775   0.13451   0.00000  Uiso   1.00
H973   H     0.23061   0.94520   0.02546   0.00000  Uiso   1.00
H974   H     0.27739   0.93472   0.86625   0.00000  Uiso   1.00
H975   H     0.06550   0.72382   0.13363   0.00000  Uiso   1.00
H976   H     0.06773   0.76891   0.86598   0.00000  Uiso   1.00
H977   H     0.23030   0.93259   0.13385   0.00000  Uiso   1.00
H978   H     0.22262   0.56543   0.86589   0.00000  Uiso   1.00
H979   H     0.43423   0.77619   0.13429   0.00000  Uiso   1.00
H980   H     0.43213   0.73116   0.86563   0.00000  Uiso   1.00
H981   H     0.47253   0.81527   0.63379   0.00000  Uiso   1.00
H982   H     0.48006   0.68225   0.36553   0.00000  Uiso   1.00
H983   H     0.18229   0.98101   0.63401   0.00000  Uiso   1.00
H984   H     0.22365   0.55276   0.97427   0.00000  Uiso   1.00
H985   H     0.18448   0.52609   0.36635   0.00000  Uiso   1.00
H986   H     0.02746   0.68461   0.63405   0.00000  Uiso   1.00
H987   H     0.01966   0.81748   0.36605   0.00000  Uiso   1.00
H988   H     0.31785   0.51891   0.63436   0.00000  Uiso   1.00
H989   H     0.31583   0.97394   0.36569   0.00000  Uiso   1.00
H990   H     0.44689   0.77576   0.02587   0.00000  Uiso   1.00
H991   H     0.44442   0.73099   0.97413   0.00000  Uiso   1.00
H992   H     0.47332   0.80187   0.52551   0.00000  Uiso   1.00
O993   O     0.25000   0.50000   0.25000   0.00000  Uiso   1.00
O994   O     0.25000   0.96964   0.66317   0.00000  Uiso   1.00
O995   O     0.27321   0.85178   0.25333   0.00000  Uiso   1.00
O996   O     0.37400   0.78712   0.19914   0.00000  Uiso   1.00
O997   O     0.33026   0.78017   0.24464   0.00000  Uiso   1.00
O998   O     0.14409   0.69902   0.81742   0.00000  Uiso   1.00
O999   O     0.14413   0.72795   0.75955   0.00000  Uiso   1.00
O1000  O     0.33419   0.61751   0.15353   0.00000  Uiso   1.00
O1001  O     0.28525   0.62257   0.19296   0.00000  Uiso   1.00
O1002  O     0.14830   0.90040   0.85017   0.00000  Uiso   1.00
O1003  O     0.20280   0.88894   0.82212   0.00000  Uiso   1.00
O1004  O     0.11768   0.66544   0.15337   0.00000  Uiso   1.00
O1005  O     0.46964   0.75000   0.33683   0.00000  Uiso   1.00
O1006  O     0.12189   0.71475   0.19258   0.00000  Uiso   1.00
O1007  O     0.35599   0.80121   0.81762   0.00000  Uiso   1.00
O1008  O     0.35595   0.77208   0.75983   0.00000  Uiso   1.00
O1009  O     0.15623   0.89269   0.15065   0.00000  Uiso   1.00
O1010  O     0.20832   0.88260   0.18398   0.00000  Uiso   1.00
O1011  O     0.35167   0.59978   0.85018   0.00000  Uiso   1.00
O1012  O     0.29717   0.61115   0.82209   0.00000  Uiso   1.00
O1013  O     0.28089   0.59345   0.08540   0.00000  Uiso   1.00
O1014  O     0.29428   0.91253   0.91533   0.00000  Uiso   1.00
O1015  O     0.08872   0.70896   0.08430   0.00000  Uiso   1.00
O1016  O     0.03036   0.75000   0.66317   0.00000  Uiso   1.00
O1017  O     0.09237   0.78207   0.91507   0.00000  Uiso   1.00
O1018  O     0.21822   0.90749   0.08467   0.00000  Uiso   1.00
O1019  O     0.20596   0.58804   0.91488   0.00000  Uiso   1.00
O1020  O     0.41122   0.79236   0.08535   0.00000  Uiso   1.00
O1021  O     0.40712   0.71850   0.91464   0.00000  Uiso   1.00
O1022  O     0.45559   0.83745   0.58472   0.00000  Uiso   1.00
O1023  O     0.46926   0.65656   0.41466   0.00000  Uiso   1.00
O1024  O     0.15768   0.96779   0.58492   0.00000  Uiso   1.00
O1025  O     0.16112   0.54068   0.41569   0.00000  Uiso   1.00
O1026  O     0.04424   0.66210   0.58505   0.00000  Uiso   1.00
O1027  O     0.00000   0.71964   0.83683   0.00000  Uiso   1.00
O1028  O     0.03152   0.84268   0.41523   0.00000  Uiso   1.00
O1029  O     0.34283   0.53163   0.58535   0.00000  Uiso   1.00
O1030  O     0.33891   0.95791   0.41464   0.00000  Uiso   1.00
O1031  O     0.00000   0.78036   0.16317   0.00000  Uiso   1.00
O1032  O     0.28036   0.50000   0.83683   0.00000  Uiso   1.00
O1033  O     0.21964   0.50000   0.16317   0.00000  Uiso   1.00
O1034  O     0.00000   0.78036   0.83683   0.00000  Uiso   1.00
O1035  O     0.00000   0.71964   0.16317   0.00000  Uiso   1.00
O1036  O     0.21964   0.50000   0.83683   0.00000  Uiso   1.00
O1037  O     0.25000   0.50000   0.75000   0.00000  Uiso   1.00
O1038  O     0.28036   0.50000   0.16317   0.00000  Uiso   1.00
O1039  O     0.20726   0.57307   0.27282   0.00000  Uiso   1.00
O1040  O     0.29275   0.92693   0.72718   0.00000  Uiso   1.00
O1041  O     0.42693   0.70725   0.27282   0.00000  Uiso   1.00
O1042  O     0.07307   0.79274   0.72718   0.00000  Uiso   1.00
O1043  O     0.29275   0.92693   0.27282   0.00000  Uiso   1.00
O1044  O     0.20726   0.57307   0.72718   0.00000  Uiso   1.00
O1045  O     0.07307   0.79274   0.27282   0.00000  Uiso   1.00
O1046  O     0.42693   0.70725   0.72718   0.00000  Uiso   1.00
O1047  O     0.20726   0.92693   0.72718   0.00000  Uiso   1.00
O1048  O     0.00000   0.75000   0.25000   0.00000  Uiso   1.00
O1049  O     0.29275   0.57307   0.27282   0.00000  Uiso   1.00
O1050  O     0.42693   0.79274   0.72718   0.00000  Uiso   1.00
O1051  O     0.07307   0.70725   0.27282   0.00000  Uiso   1.00
O1052  O     0.29275   0.57307   0.72718   0.00000  Uiso   1.00
O1053  O     0.20726   0.92693   0.27282   0.00000  Uiso   1.00
O1054  O     0.07307   0.70725   0.72718   0.00000  Uiso   1.00
O1055  O     0.42693   0.79274   0.27282   0.00000  Uiso   1.00
O1056  O     0.45726   0.82307   0.77282   0.00000  Uiso   1.00
O1057  O     0.04275   0.67693   0.22718   0.00000  Uiso   1.00
O1058  O     0.17693   0.95725   0.77282   0.00000  Uiso   1.00
O1059  O     0.00000   0.75000   0.75000   0.00000  Uiso   1.00
O1060  O     0.32307   0.54274   0.22718   0.00000  Uiso   1.00
O1061  O     0.04275   0.67693   0.77282   0.00000  Uiso   1.00
O1062  O     0.45726   0.82307   0.22718   0.00000  Uiso   1.00
O1063  O     0.32307   0.54274   0.77282   0.00000  Uiso   1.00
O1064  O     0.17693   0.95725   0.22718   0.00000  Uiso   1.00
O1065  O     0.45726   0.67693   0.22718   0.00000  Uiso   1.00
O1066  O     0.04275   0.82307   0.77282   0.00000  Uiso   1.00
O1067  O     0.17693   0.54274   0.22718   0.00000  Uiso   1.00
O1068  O     0.32307   0.95725   0.77282   0.00000  Uiso   1.00
O1069  O     0.04275   0.82307   0.22718   0.00000  Uiso   1.00
O1070  O     0.25000   0.96964   0.33683   0.00000  Uiso   1.00
O1071  O     0.45726   0.67693   0.77282   0.00000  Uiso   1.00
O1072  O     0.32307   0.95725   0.22718   0.00000  Uiso   1.00
O1073  O     0.17693   0.54274   0.77282   0.00000  Uiso   1.00
O1074  O     0.16284   0.91945   0.33718   0.00000  Uiso   1.00
O1075  O     0.10709   0.94474   0.32898   0.00000  Uiso   1.00
O1076  O     0.33127   0.59232   0.66036   0.00000  Uiso   1.00
O1077  O     0.38328   0.55934   0.66566   0.00000  Uiso   1.00
O1078  O     0.06860   0.65490   0.33273   0.00000  Uiso   1.00
O1079  O     0.04919   0.59766   0.31939   0.00000  Uiso   1.00
O1080  O     0.45886   0.87141   0.69241   0.00000  Uiso   1.00
O1081  O     0.25000   0.53036   0.66317   0.00000  Uiso   1.00
O1082  O     0.46813   0.91953   0.73228   0.00000  Uiso   1.00
O1083  O     0.34530   0.56881   0.33289   0.00000  Uiso   1.00
O1084  O     0.40216   0.54875   0.31914   0.00000  Uiso   1.00
O1085  O     0.16881   0.90751   0.66037   0.00000  Uiso   1.00
O1086  O     0.11678   0.94047   0.66559   0.00000  Uiso   1.00
O1087  O     0.46089   0.87604   0.30305   0.00000  Uiso   1.00
O1088  O     0.46935   0.91989   0.25781   0.00000  Uiso   1.00
O1089  O     0.04109   0.62842   0.69250   0.00000  Uiso   1.00
O1090  O     0.03184   0.58045   0.73251   0.00000  Uiso   1.00
O1091  O     0.10591   0.55098   0.68258   0.00000  Uiso   1.00
O1092  O     0.03036   0.75000   0.33683   0.00000  Uiso   1.00
O1093  O     0.10587   0.52205   0.74045   0.00000  Uiso   1.00
O1094  O     0.39554   0.95390   0.31017   0.00000  Uiso   1.00
O1095  O     0.39688   0.97769   0.24971   0.00000  Uiso   1.00
O1096  O     0.10170   0.84959   0.64983   0.00000  Uiso   1.00
O1097  O     0.04720   0.86106   0.67788   0.00000  Uiso   1.00
O1098  O     0.41586   0.63242   0.34646   0.00000  Uiso   1.00
O1099  O     0.46478   0.62739   0.30699   0.00000  Uiso   1.00
O1100  O     0.39401   0.94879   0.68237   0.00000  Uiso   1.00
O1101  O     0.39405   0.97792   0.74017   0.00000  Uiso   1.00
O1102  O     0.13235   0.58457   0.34663   0.00000  Uiso   1.00
O1103  O     0.46964   0.75000   0.66317   0.00000  Uiso   1.00
O1104  O     0.12811   0.53525   0.30743   0.00000  Uiso   1.00
O1105  O     0.39833   0.65023   0.64982   0.00000  Uiso   1.00
O1106  O     0.45283   0.63884   0.67791   0.00000  Uiso   1.00
O1107  O     0.09342   0.85711   0.34907   0.00000  Uiso   1.00
O1108  O     0.04172   0.86827   0.31540   0.00000  Uiso   1.00
O1109  O     0.41873   0.65771   0.83964   0.00000  Uiso   1.00
O1110  O     0.36670   0.69065   0.83434   0.00000  Uiso   1.00
O1111  O     0.08729   0.82998   0.16294   0.00000  Uiso   1.00
O1112  O     0.14336   0.80532   0.17077   0.00000  Uiso   1.00
O1113  O     0.29114   0.87859   0.80759   0.00000  Uiso   1.00
O1114  O     0.25000   0.53036   0.33683   0.00000  Uiso   1.00
O1115  O     0.28187   0.83047   0.76772   0.00000  Uiso   1.00
O1116  O     0.18140   0.59511   0.16727   0.00000  Uiso   1.00
O1117  O     0.20082   0.65234   0.18062   0.00000  Uiso   1.00
O1118  O     0.08119   0.84246   0.83963   0.00000  Uiso   1.00
O1119  O     0.13324   0.80953   0.83442   0.00000  Uiso   1.00
O1120  O     0.40473   0.68124   0.16715   0.00000  Uiso   1.00
O1121  O     0.34779   0.70114   0.18075   0.00000  Uiso   1.00
O1122  O     0.20892   0.62158   0.80749   0.00000  Uiso   1.00
O1123  O     0.21817   0.66955   0.76749   0.00000  Uiso   1.00
O1124  O     0.29493   0.85313   0.19198   0.00000  Uiso   1.00
Zn1125 Zn    0.20660   0.50000   0.21760   0.00000  Uiso   1.00
Zn1126 Zn    0.04340   0.75000   0.28240   0.00000  Uiso   1.00
Zn1127 Zn    0.25000   0.95660   0.71760   0.00000  Uiso   1.00
Zn1128 Zn    0.25000   0.54340   0.28240   0.00000  Uiso   1.00
Zn1129 Zn    0.04340   0.75000   0.71760   0.00000  Uiso   1.00
Zn1130 Zn    0.45660   0.75000   0.28240   0.00000  Uiso   1.00
Zn1131 Zn    0.25000   0.54340   0.71760   0.00000  Uiso   1.00
Zn1132 Zn    0.25000   0.95660   0.28240   0.00000  Uiso   1.00
Zn1133 Zn    0.29340   0.50000   0.78240   0.00000  Uiso   1.00
Zn1134 Zn    0.00000   0.70660   0.21760   0.00000  Uiso   1.00
Zn1135 Zn    0.00000   0.79340   0.78240   0.00000  Uiso   1.00
Zn1136 Zn    0.29340   0.50000   0.21760   0.00000  Uiso   1.00
Zn1137 Zn    0.20660   0.50000   0.78240   0.00000  Uiso   1.00
Zn1138 Zn    0.00000   0.79340   0.21760   0.00000  Uiso   1.00
Zn1139 Zn    0.00000   0.70660   0.78240   0.00000  Uiso   1.00
Zn1140 Zn    0.45660   0.75000   0.71760   0.00000  Uiso   1.00
C1141  C     0.76067   0.53177   0.04178   0.00000  Uiso   1.00
C1142  C     0.98940   0.71831   0.45823   0.00000  Uiso   1.00
C1143  C     0.84827   0.90214   0.75038   0.00000  Uiso   1.00
C1144  C     0.90230   0.65157   0.24961   0.00000  Uiso   1.00
C1145  C     0.59761   0.84855   0.75025   0.00000  Uiso   1.00
C1146  C     0.84802   0.90183   0.25008   0.00000  Uiso   1.00
C1147  C     0.65173   0.59785   0.75040   0.00000  Uiso   1.00
C1148  C     0.59828   0.65215   0.74960   0.00000  Uiso   1.00
C1149  C     0.90195   0.84803   0.24999   0.00000  Uiso   1.00
C1150  C     0.65240   0.90145   0.74975   0.00000  Uiso   1.00
C1151  C     0.84771   0.59842   0.25039   0.00000  Uiso   1.00
C1152  C     0.90173   0.84786   0.74962   0.00000  Uiso   1.00
C1153  C     0.71918   0.98876   0.54165   0.00000  Uiso   1.00
C1154  C     0.59834   0.65222   0.25028   0.00000  Uiso   1.00
C1155  C     0.84762   0.59853   0.74976   0.00000  Uiso   1.00
C1156  C     0.65239   0.90149   0.25026   0.00000  Uiso   1.00
C1157  C     0.74998   0.50026   0.10260   0.00000  Uiso   1.00
C1158  C     0.75003   0.50018   0.89743   0.00000  Uiso   1.00
C1159  C     0.99978   0.75003   0.10255   0.00000  Uiso   1.00
C1160  C     0.99984   0.75010   0.89738   0.00000  Uiso   1.00
C1161  C     0.99998   0.74986   0.60256   0.00000  Uiso   1.00
C1162  C     0.50002   0.74979   0.39739   0.00000  Uiso   1.00
C1163  C     0.75016   0.99990   0.60262   0.00000  Uiso   1.00
C1164  C     0.72051   0.51390   0.45852   0.00000  Uiso   1.00
C1165  C     0.75023   0.99997   0.39744   0.00000  Uiso   1.00
C1166  C     0.63493   0.92073   0.31794   0.00000  Uiso   1.00
C1167  C     0.85881   0.58584   0.67902   0.00000  Uiso   1.00
C1168  C     0.57181   0.62771   0.31246   0.00000  Uiso   1.00
C1169  C     0.94687   0.89062   0.71843   0.00000  Uiso   1.00
C1170  C     0.87232   0.57174   0.31245   0.00000  Uiso   1.00
C1171  C     0.64125   0.91402   0.67899   0.00000  Uiso   1.00
C1172  C     0.94832   0.89274   0.27548   0.00000  Uiso   1.00
C1173  C     0.55309   0.60930   0.71856   0.00000  Uiso   1.00
C1174  C     0.60940   0.55343   0.71766   0.00000  Uiso   1.00
C1175  C     0.51480   0.72009   0.54166   0.00000  Uiso   1.00
C1176  C     0.89228   0.94854   0.27542   0.00000  Uiso   1.00
C1177  C     0.58525   0.85857   0.67910   0.00000  Uiso   1.00
C1178  C     0.92714   0.62907   0.31335   0.00000  Uiso   1.00
C1179  C     0.89054   0.94646   0.71747   0.00000  Uiso   1.00
C1180  C     0.62934   0.57304   0.31358   0.00000  Uiso   1.00
C1181  C     0.91477   0.64131   0.67911   0.00000  Uiso   1.00
C1182  C     0.57957   0.86448   0.31786   0.00000  Uiso   1.00
C1183  C     0.89118   0.66417   0.82098   0.00000  Uiso   1.00
C1184  C     0.61533   0.82903   0.18199   0.00000  Uiso   1.00
C1185  C     0.80313   0.85938   0.78157   0.00000  Uiso   1.00
C1186  C     0.51075   0.78096   0.45842   0.00000  Uiso   1.00
C1187  C     0.67820   0.62229   0.18755   0.00000  Uiso   1.00
C1188  C     0.60876   0.83597   0.82101   0.00000  Uiso   1.00
C1189  C     0.87768   0.67824   0.18753   0.00000  Uiso   1.00
C1190  C     0.69691   0.64070   0.78144   0.00000  Uiso   1.00
C1191  C     0.80131   0.85673   0.22649   0.00000  Uiso   1.00
C1192  C     0.85727   0.80073   0.22616   0.00000  Uiso   1.00
C1193  C     0.64061   0.69657   0.78234   0.00000  Uiso   1.00
C1194  C     0.82289   0.62089   0.18662   0.00000  Uiso   1.00
C1195  C     0.66475   0.89142   0.82090   0.00000  Uiso   1.00
C1196  C     0.62067   0.67697   0.18643   0.00000  Uiso   1.00
C1197  C     0.78157   0.51046   0.54178   0.00000  Uiso   1.00
C1198  C     0.85946   0.80354   0.78253   0.00000  Uiso   1.00
C1199  C     0.67038   0.88568   0.18181   0.00000  Uiso   1.00
C1200  C     0.83523   0.60869   0.82089   0.00000  Uiso   1.00
C1201  C     0.77110   0.56629   0.10315   0.00000  Uiso   1.00
C1202  C     0.77961   0.93734   0.89745   0.00000  Uiso   1.00
C1203  C     0.56324   0.72216   0.10236   0.00000  Uiso   1.00
C1204  C     0.56574   0.77114   0.89725   0.00000  Uiso   1.00
C1205  C     0.72869   0.93433   0.10256   0.00000  Uiso   1.00
C1206  C     0.72052   0.56307   0.89712   0.00000  Uiso   1.00
C1207  C     0.93648   0.77833   0.10304   0.00000  Uiso   1.00
C1208  C     0.78026   0.98561   0.45825   0.00000  Uiso   1.00
C1209  C     0.93390   0.72921   0.89693   0.00000  Uiso   1.00
C1210  C     0.97031   0.81266   0.60258   0.00000  Uiso   1.00
C1211  C     0.97901   0.68373   0.39689   0.00000  Uiso   1.00
C1212  C     0.68429   0.97877   0.60275   0.00000  Uiso   1.00
C1213  C     0.68669   0.52765   0.39763   0.00000  Uiso   1.00
C1214  C     0.52960   0.68702   0.60283   0.00000  Uiso   1.00
C1215  C     0.52119   0.81577   0.39735   0.00000  Uiso   1.00
C1216  C     0.81607   0.52088   0.60307   0.00000  Uiso   1.00
C1217  C     0.81360   0.97183   0.39694   0.00000  Uiso   1.00
C1218  C     0.76065   0.53218   0.08236   0.00000  Uiso   1.00
C1219  C     0.76493   0.97010   0.91790   0.00000  Uiso   1.00
C1220  C     0.53017   0.73597   0.08201   0.00000  Uiso   1.00
C1221  C     0.76497   0.97083   0.95845   0.00000  Uiso   1.00
C1222  C     0.53154   0.76090   0.91780   0.00000  Uiso   1.00
C1223  C     0.73921   0.96852   0.08208   0.00000  Uiso   1.00
C1224  C     0.73523   0.53046   0.91775   0.00000  Uiso   1.00
C1225  C     0.96930   0.76431   0.08232   0.00000  Uiso   1.00
C1226  C     0.96798   0.73954   0.91766   0.00000  Uiso   1.00
C1227  C     0.98504   0.77994   0.58211   0.00000  Uiso   1.00
C1228  C     0.98941   0.71787   0.41765   0.00000  Uiso   1.00
C1229  C     0.71848   0.98905   0.58220   0.00000  Uiso   1.00
C1230  C     0.71980   0.51394   0.41798   0.00000  Uiso   1.00
C1231  C     0.51485   0.71963   0.58222   0.00000  Uiso   1.00
C1232  C     0.52945   0.73601   0.04147   0.00000  Uiso   1.00
C1233  C     0.51073   0.78158   0.41787   0.00000  Uiso   1.00
C1234  C     0.78200   0.51050   0.58234   0.00000  Uiso   1.00
C1235  C     0.78074   0.98577   0.41768   0.00000  Uiso   1.00
C1236  C     0.74999   0.50049   0.02135   0.00000  Uiso   1.00
C1237  C     0.75013   0.50048   0.97869   0.00000  Uiso   1.00
C1238  C     0.99958   0.75029   0.02129   0.00000  Uiso   1.00
C1239  C     0.99958   0.75041   0.97861   0.00000  Uiso   1.00
C1240  C     0.99992   0.74963   0.52130   0.00000  Uiso   1.00
C1241  C     0.50003   0.74962   0.47864   0.00000  Uiso   1.00
C1242  C     0.75043   0.99958   0.52139   0.00000  Uiso   1.00
C1243  C     0.53084   0.76118   0.95835   0.00000  Uiso   1.00
C1244  C     0.75042   0.99970   0.47871   0.00000  Uiso   1.00
C1245  C     0.75005   0.50000   0.35510   0.00000  Uiso   1.00
C1246  C     0.75003   0.99998   0.64493   0.00000  Uiso   1.00
C1247  C     0.50000   0.74992   0.35505   0.00000  Uiso   1.00
C1248  C     0.50000   0.74997   0.64493   0.00000  Uiso   1.00
C1249  C     0.99997   0.75002   0.85507   0.00000  Uiso   1.00
C1250  C     0.99995   0.75000   0.14490   0.00000  Uiso   1.00
C1251  C     0.75000   0.50003   0.85507   0.00000  Uiso   1.00
C1252  C     0.75000   0.50010   0.14494   0.00000  Uiso   1.00
C1253  C     0.68007   0.57002   0.24988   0.00000  Uiso   1.00
C1254  C     0.73919   0.96917   0.04154   0.00000  Uiso   1.00
C1255  C     0.82015   0.93019   0.74982   0.00000  Uiso   1.00
C1256  C     0.92999   0.68004   0.24981   0.00000  Uiso   1.00
C1257  C     0.57007   0.81991   0.75029   0.00000  Uiso   1.00
C1258  C     0.81993   0.92996   0.24997   0.00000  Uiso   1.00
C1259  C     0.67985   0.56980   0.74983   0.00000  Uiso   1.00
C1260  C     0.57007   0.81990   0.24973   0.00000  Uiso   1.00
C1261  C     0.92993   0.68010   0.75029   0.00000  Uiso   1.00
C1262  C     0.67993   0.93009   0.74971   0.00000  Uiso   1.00
C1263  C     0.82001   0.56995   0.25019   0.00000  Uiso   1.00
C1264  C     0.92985   0.81980   0.75018   0.00000  Uiso   1.00
C1265  C     0.73530   0.53003   0.95832   0.00000  Uiso   1.00
C1266  C     0.56993   0.67998   0.25012   0.00000  Uiso   1.00
C1267  C     0.82007   0.56990   0.74971   0.00000  Uiso   1.00
C1268  C     0.67999   0.93005   0.25020   0.00000  Uiso   1.00
C1269  C     0.57015   0.68020   0.75017   0.00000  Uiso   1.00
C1270  C     0.93006   0.81999   0.25002   0.00000  Uiso   1.00
C1271  C     0.63067   0.89640   0.28357   0.00000  Uiso   1.00
C1272  C     0.86633   0.60676   0.71509   0.00000  Uiso   1.00
C1273  C     0.59977   0.62685   0.28103   0.00000  Uiso   1.00
C1274  C     0.91006   0.88283   0.73487   0.00000  Uiso   1.00
C1275  C     0.87317   0.59974   0.28104   0.00000  Uiso   1.00
C1276  C     0.96978   0.76446   0.04174   0.00000  Uiso   1.00
C1277  C     0.63370   0.89316   0.71508   0.00000  Uiso   1.00
C1278  C     0.91093   0.88395   0.26145   0.00000  Uiso   1.00
C1279  C     0.58992   0.61713   0.73494   0.00000  Uiso   1.00
C1280  C     0.61685   0.58977   0.73542   0.00000  Uiso   1.00
C1281  C     0.88384   0.91109   0.26116   0.00000  Uiso   1.00
C1282  C     0.60594   0.86677   0.71534   0.00000  Uiso   1.00
C1283  C     0.90065   0.62654   0.28066   0.00000  Uiso   1.00
C1284  C     0.88312   0.91018   0.73532   0.00000  Uiso   1.00
C1285  C     0.62667   0.59941   0.28075   0.00000  Uiso   1.00
C1286  C     0.89407   0.63318   0.71534   0.00000  Uiso   1.00
C1287  C     0.96841   0.73958   0.95822   0.00000  Uiso   1.00
C1288  C     0.60314   0.86975   0.28317   0.00000  Uiso   1.00
C1289  C     0.88367   0.64324   0.78491   0.00000  Uiso   1.00
C1290  C     0.61954   0.85343   0.21631   0.00000  Uiso   1.00
C1291  C     0.83994   0.86717   0.76513   0.00000  Uiso   1.00
C1292  C     0.65024   0.62316   0.21897   0.00000  Uiso   1.00
C1293  C     0.61630   0.85683   0.78492   0.00000  Uiso   1.00
C1294  C     0.87684   0.65024   0.21895   0.00000  Uiso   1.00
C1295  C     0.66008   0.63287   0.76506   0.00000  Uiso   1.00
C1296  C     0.83892   0.86574   0.23936   0.00000  Uiso   1.00
C1297  C     0.86610   0.83868   0.23898   0.00000  Uiso   1.00
C1298  C     0.98503   0.77925   0.54156   0.00000  Uiso   1.00
C1299  C     0.63315   0.66023   0.76458   0.00000  Uiso   1.00
C1300  C     0.84936   0.62344   0.21933   0.00000  Uiso   1.00
C1301  C     0.64406   0.88323   0.78466   0.00000  Uiso   1.00
C1302  C     0.62334   0.65059   0.21925   0.00000  Uiso   1.00
C1303  C     0.86688   0.83982   0.76467   0.00000  Uiso   1.00
C1304  C     0.64705   0.88014   0.21666   0.00000  Uiso   1.00
C1305  C     0.85593   0.61682   0.78466   0.00000  Uiso   1.00
C1306  C     0.59777   0.84840   0.24960   0.00000  Uiso   1.00
C1307  C     0.90238   0.65147   0.75024   0.00000  Uiso   1.00
C1308  C     0.65167   0.59778   0.24972   0.00000  Uiso   1.00
H1309  H     0.76923   0.55582   0.02588   0.00000  Uiso   1.00
H1310  H     0.98088   0.69426   0.47415   0.00000  Uiso   1.00
H1311  H     0.69530   0.98003   0.52564   0.00000  Uiso   1.00
H1312  H     0.69766   0.52505   0.47460   0.00000  Uiso   1.00
H1313  H     0.52649   0.69739   0.52569   0.00000  Uiso   1.00
H1314  H     0.51928   0.80495   0.47448   0.00000  Uiso   1.00
H1315  H     0.80555   0.51909   0.52587   0.00000  Uiso   1.00
H1316  H     0.80318   0.97437   0.47412   0.00000  Uiso   1.00
H1317  H     0.58560   0.94430   0.31050   0.00000  Uiso   1.00
H1318  H     0.90499   0.55611   0.68353   0.00000  Uiso   1.00
H1319  H     0.55283   0.57724   0.29990   0.00000  Uiso   1.00
H1320  H     0.77664   0.94819   0.97451   0.00000  Uiso   1.00
H1321  H     0.95685   0.93219   0.75550   0.00000  Uiso   1.00
H1322  H     0.92243   0.55219   0.29951   0.00000  Uiso   1.00
H1323  H     0.59506   0.94374   0.68343   0.00000  Uiso   1.00
H1324  H     0.95726   0.93055   0.23395   0.00000  Uiso   1.00
H1325  H     0.54313   0.56786   0.75574   0.00000  Uiso   1.00
H1326  H     0.60703   0.52756   0.76921   0.00000  Uiso   1.00
H1327  H     0.89497   0.96985   0.22161   0.00000  Uiso   1.00
H1328  H     0.53638   0.87105   0.70275   0.00000  Uiso   1.00
H1329  H     0.97126   0.62172   0.27908   0.00000  Uiso   1.00
H1330  H     0.89293   0.97252   0.76894   0.00000  Uiso   1.00
H1331  H     0.55227   0.72480   0.02539   0.00000  Uiso   1.00
H1332  H     0.62257   0.52855   0.27956   0.00000  Uiso   1.00
H1333  H     0.96364   0.62890   0.70279   0.00000  Uiso   1.00
H1334  H     0.53338   0.87663   0.28885   0.00000  Uiso   1.00
H1335  H     0.84499   0.69387   0.81648   0.00000  Uiso   1.00
H1336  H     0.66495   0.80597   0.18910   0.00000  Uiso   1.00
H1337  H     0.79315   0.81780   0.74450   0.00000  Uiso   1.00
H1338  H     0.69719   0.67276   0.20012   0.00000  Uiso   1.00
H1339  H     0.65497   0.80628   0.81658   0.00000  Uiso   1.00
H1340  H     0.82750   0.69768   0.20036   0.00000  Uiso   1.00
H1341  H     0.70687   0.68214   0.74425   0.00000  Uiso   1.00
H1342  H     0.55474   0.76987   0.97436   0.00000  Uiso   1.00
H1343  H     0.78187   0.85424   0.28110   0.00000  Uiso   1.00
H1344  H     0.81993   0.79284   0.26835   0.00000  Uiso   1.00
H1345  H     0.64297   0.72244   0.73079   0.00000  Uiso   1.00
H1346  H     0.77876   0.62825   0.22086   0.00000  Uiso   1.00
H1347  H     0.71362   0.87895   0.79725   0.00000  Uiso   1.00
H1348  H     0.62742   0.72146   0.22045   0.00000  Uiso   1.00
H1349  H     0.85707   0.77748   0.73106   0.00000  Uiso   1.00
H1350  H     0.71703   0.87455   0.21048   0.00000  Uiso   1.00
H1351  H     0.78636   0.62110   0.79721   0.00000  Uiso   1.00
H1352  H     0.77003   0.56775   0.13451   0.00000  Uiso   1.00
H1353  H     0.73061   0.94520   0.02546   0.00000  Uiso   1.00
H1354  H     0.77739   0.93472   0.86625   0.00000  Uiso   1.00
H1355  H     0.56550   0.72382   0.13363   0.00000  Uiso   1.00
H1356  H     0.56773   0.76891   0.86598   0.00000  Uiso   1.00
H1357  H     0.73030   0.93259   0.13385   0.00000  Uiso   1.00
H1358  H     0.72262   0.56543   0.86589   0.00000  Uiso   1.00
H1359  H     0.93423   0.77619   0.13429   0.00000  Uiso   1.00
H1360  H     0.93213   0.73116   0.86563   0.00000  Uiso   1.00
H1361  H     0.97253   0.81527   0.63379   0.00000  Uiso   1.00
H1362  H     0.98006   0.68225   0.36553   0.00000  Uiso   1.00
H1363  H     0.68229   0.98101   0.63401   0.00000  Uiso   1.00
H1364  H     0.72365   0.55276   0.97427   0.00000  Uiso   1.00
H1365  H     0.68448   0.52609   0.36635   0.00000  Uiso   1.00
H1366  H     0.52746   0.68461   0.63405   0.00000  Uiso   1.00
H1367  H     0.51966   0.81748   0.36605   0.00000  Uiso   1.00
H1368  H     0.81785   0.51891   0.63436   0.00000  Uiso   1.00
H1369  H     0.81583   0.97394   0.36569   0.00000  Uiso   1.00
H1370  H     0.94689   0.77576   0.02587   0.00000  Uiso   1.00
H1371  H     0.94442   0.73099   0.97413   0.00000  Uiso   1.00
H1372  H     0.97332   0.80187   0.52551   0.00000  Uiso   1.00
O1373  O     0.75000   0.50000   0.25000   0.00000  Uiso   1.00
O1374  O     0.75000   0.96964   0.66317   0.00000  Uiso   1.00
O1375  O     0.77321   0.85178   0.25333   0.00000  Uiso   1.00
O1376  O     0.87400   0.78712   0.19914   0.00000  Uiso   1.00
O1377  O     0.83026   0.78017   0.24464   0.00000  Uiso   1.00
O1378  O     0.64409   0.69902   0.81742   0.00000  Uiso   1.00
O1379  O     0.64413   0.72795   0.75955   0.00000  Uiso   1.00
O1380  O     0.83419   0.61751   0.15353   0.00000  Uiso   1.00
O1381  O     0.78525   0.62257   0.19296   0.00000  Uiso   1.00
O1382  O     0.64830   0.90040   0.85017   0.00000  Uiso   1.00
O1383  O     0.70280   0.88894   0.82212   0.00000  Uiso   1.00
O1384  O     0.61768   0.66544   0.15337   0.00000  Uiso   1.00
O1385  O     0.96964   0.75000   0.33683   0.00000  Uiso   1.00
O1386  O     0.62189   0.71475   0.19258   0.00000  Uiso   1.00
O1387  O     0.85599   0.80121   0.81762   0.00000  Uiso   1.00
O1388  O     0.85595   0.77208   0.75983   0.00000  Uiso   1.00
O1389  O     0.65623   0.89269   0.15065   0.00000  Uiso   1.00
O1390  O     0.70832   0.88260   0.18398   0.00000  Uiso   1.00
O1391  O     0.85167   0.59978   0.85018   0.00000  Uiso   1.00
O1392  O     0.79717   0.61115   0.82209   0.00000  Uiso   1.00
O1393  O     0.78089   0.59345   0.08540   0.00000  Uiso   1.00
O1394  O     0.79428   0.91253   0.91533   0.00000  Uiso   1.00
O1395  O     0.58872   0.70896   0.08430   0.00000  Uiso   1.00
O1396  O     0.53036   0.75000   0.66317   0.00000  Uiso   1.00
O1397  O     0.59237   0.78207   0.91507   0.00000  Uiso   1.00
O1398  O     0.71822   0.90749   0.08467   0.00000  Uiso   1.00
O1399  O     0.70596   0.58804   0.91488   0.00000  Uiso   1.00
O1400  O     0.91122   0.79236   0.08535   0.00000  Uiso   1.00
O1401  O     0.90712   0.71850   0.91464   0.00000  Uiso   1.00
O1402  O     0.95559   0.83745   0.58472   0.00000  Uiso   1.00
O1403  O     0.96926   0.65656   0.41466   0.00000  Uiso   1.00
O1404  O     0.65768   0.96779   0.58492   0.00000  Uiso   1.00
O1405  O     0.66112   0.54068   0.41569   0.00000  Uiso   1.00
O1406  O     0.54424   0.66210   0.58505   0.00000  Uiso   1.00
O1407  O     0.50000   0.71964   0.83683   0.00000  Uiso   1.00
O1408  O     0.53152   0.84268   0.41523   0.00000  Uiso   1.00
O1409  O     0.84283   0.53163   0.58535   0.00000  Uiso   1.00
O1410  O     0.83891   0.95791   0.41464   0.00000  Uiso   1.00
O1411  O     0.50000   0.78036   0.16317   0.00000  Uiso   1.00
O1412  O     0.78036   0.50000   0.83683   0.00000  Uiso   1.00
O1413  O     0.71964   0.50000   0.16317   0.00000  Uiso   1.00
O1414  O     0.50000   0.78036   0.83683   0.00000  Uiso   1.00
O1415  O     0.50000   0.71964   0.16317   0.00000  Uiso   1.00
O1416  O     0.71964   0.50000   0.83683   0.00000  Uiso   1.00
O1417  O     0.75000   0.50000   0.75000   0.00000  Uiso   1.00
O1418  O     0.78036   0.50000   0.16317   0.00000  Uiso   1.00
O1419  O     0.70726   0.57307   0.27282   0.00000  Uiso   1.00
O1420  O     0.79275   0.92693   0.72718   0.00000  Uiso   1.00
O1421  O     0.92693   0.70725   0.27282   0.00000  Uiso   1.00
O1422  O     0.57307   0.79274   0.72718   0.00000  Uiso   1.00
O1423  O     0.79275   0.92693   0.27282   0.00000  Uiso   1.00
O1424  O     0.70726   0.57307   0.72718   0.00000  Uiso   1.00
O1425  O     0.57307   0.79274   0.27282   0.00000  Uiso   1.00
O1426  O     0.92693   0.70725   0.72718   0.00000  Uiso   1.00
O1427  O     0.70726   0.92693   0.72718   0.00000  Uiso   1.00
O1428  O     0.50000   0.75000   0.25000   0.00000  Uiso   1.00
O1429  O     0.79275   0.57307   0.27282   0.00000  Uiso   1.00
O1430  O     0.92693   0.79274   0.72718   0.00000  Uiso   1.00
O1431  O     0.57307   0.70725   0.27282   0.00000  Uiso   1.00
O1432  O     0.79275   0.57307   0.72718   0.00000  Uiso   1.00
O1433  O     0.70726   0.92693   0.27282   0.00000  Uiso   1.00
O1434  O     0.57307   0.70725   0.72718   0.00000  Uiso   1.00
O1435  O     0.92693   0.79274   0.27282   0.00000  Uiso   1.00
O1436  O     0.95726   0.82307   0.77282   0.00000  Uiso   1.00
O1437  O     0.54275   0.67693   0.22718   0.00000  Uiso   1.00
O1438  O     0.67693   0.95725   0.77282   0.00000  Uiso   1.00
O1439  O     0.50000   0.75000   0.75000   0.00000  Uiso   1.00
O1440  O     0.82307   0.54274   0.22718   0.00000  Uiso   1.00
O1441  O     0.54275   0.67693   0.77282   0.00000  Uiso   1.00
O1442  O     0.95726   0.82307   0.22718   0.00000  Uiso   1.00
O1443  O     0.82307   0.54274   0.77282   0.00000  Uiso   1.00
O1444  O     0.67693   0.95725   0.22718   0.00000  Uiso   1.00
O1445  O     0.95726   0.67693   0.22718   0.00000  Uiso   1.00
O1446  O     0.54275   0.82307   0.77282   0.00000  Uiso   1.00
O1447  O     0.67693   0.54274   0.22718   0.00000  Uiso   1.00
O1448  O     0.82307   0.95725   0.77282   0.00000  Uiso   1.00
O1449  O     0.54275   0.82307   0.22718   0.00000  Uiso   1.00
O1450  O     0.75000   0.96964   0.33683   0.00000  Uiso   1.00
O1451  O     0.95726   0.67693   0.77282   0.00000  Uiso   1.00
O1452  O     0.82307   0.95725   0.22718   0.00000  Uiso   1.00
O1453  O     0.67693   0.54274   0.77282   0.00000  Uiso   1.00
O1454  O     0.66284   0.91945   0.33718   0.00000  Uiso   1.00
O1455  O     0.60709   0.94474   0.32898   0.00000  Uiso   1.00
O1456  O     0.83127   0.59232   0.66036   0.00000  Uiso   1.00
O1457  O     0.88328   0.55934   0.66566   0.00000  Uiso   1.00
O1458  O     0.56860   0.65490   0.33273   0.00000  Uiso   1.00
O1459  O     0.54919   0.59766   0.31939   0.00000  Uiso   1.00
O1460  O     0.95886   0.87141   0.69241   0.00000  Uiso   1.00
O1461  O     0.75000   0.53036   0.66317   0.00000  Uiso   1.00
O1462  O     0.96813   0.91953   0.73228   0.00000  Uiso   1.00
O1463  O     0.84530   0.56881   0.33289   0.00000  Uiso   1.00
O1464  O     0.90216   0.54875   0.31914   0.00000  Uiso   1.00
O1465  O     0.66881   0.90751   0.66037   0.00000  Uiso   1.00
O1466  O     0.61678   0.94047   0.66559   0.00000  Uiso   1.00
O1467  O     0.96089   0.87604   0.30305   0.00000  Uiso   1.00
O1468  O     0.96935   0.91989   0.25781   0.00000  Uiso   1.00
O1469  O     0.54109   0.62842   0.69250   0.00000  Uiso   1.00
O1470  O     0.53184   0.58045   0.73251   0.00000  Uiso   1.00
O1471  O     0.60591   0.55098   0.68258   0.00000  Uiso   1.00
O1472  O     0.53036   0.75000   0.33683   0.00000  Uiso   1.00
O1473  O     0.60587   0.52205   0.74045   0.00000  Uiso   1.00
O1474  O     0.89554   0.95390   0.31017   0.00000  Uiso   1.00
O1475  O     0.89688   0.97769   0.24971   0.00000  Uiso   1.00
O1476  O     0.60170   0.84959   0.64983   0.00000  Uiso   1.00
O1477  O     0.54720   0.86106   0.67788   0.00000  Uiso   1.00
O1478  O     0.91586   0.63242   0.34646   0.00000  Uiso   1.00
O1479  O     0.96478   0.62739   0.30699   0.00000  Uiso   1.00
O1480  O     0.89401   0.94879   0.68237   0.00000  Uiso   1.00
O1481  O     0.89405   0.97792   0.74017   0.00000  Uiso   1.00
O1482  O     0.63235   0.58457   0.34663   0.00000  Uiso   1.00
O1483  O     0.96964   0.75000   0.66317   0.00000  Uiso   1.00
O1484  O     0.62811   0.53525   0.30743   0.00000  Uiso   1.00
O1485  O     0.89833   0.65023   0.64982   0.00000  Uiso   1.00
O1486  O     0.95283   0.63884   0.67791   0.00000  Uiso   1.00
O1487  O     0.59342   0.85711   0.34907   0.00000  Uiso   1.00
O1488  O     0.54172   0.86827   0.31540   0.00000  Uiso   1.00
O1489  O     0.91873   0.65771   0.83964   0.00000  Uiso   1.00
O1490  O     0.86670   0.69065   0.83434   0.00000  Uiso   1.00
O1491  O     0.58729   0.82998   0.16294   0.00000  Uiso   1.00
O1492  O     0.64336   0.80532   0.17077   0.00000  Uiso   1.00
O1493  O     0.79114   0.87859   0.80759   0.00000  Uiso   1.00
O1494  O     0.75000   0.53036   0.33683   0.00000  Uiso   1.00
O1495  O     0.78187   0.83047   0.76772   0.00000  Uiso   1.00
O1496  O     0.68140   0.59511   0.16727   0.00000  Uiso   1.00
O1497  O     0.70082   0.65234   0.18062   0.00000  Uiso   1.00
O1498  O     0.58119   0.84246   0.83963   0.00000  Uiso   1.00
O1499  O     0.63324   0.80953   0.83442   0.00000  Uiso   1.00
O1500  O     0.90473   0.68124   0.16715   0.00000  Uiso   1.00
O1501  O     0.84779   0.70114   0.18075   0.00000  Uiso   1.00
O1502  O     0.70892   0.62158   0.80749   0.00000  Uiso   1.00
O1503  O     0.71817   0.66955   0.76749   0.00000  Uiso   1.00
O1504  O     0.79493   0.85313   0.19198   0.00000  Uiso   1.00
Zn1505 Zn    0.70660   0.50000   0.21760   0.00000  Uiso   1.00
Zn1506 Zn    0.54340   0.75000   0.28240   0.00000  Uiso   1.00
Zn1507 Zn    0.75000   0.95660   0.71760   0.00000  Uiso   1.00
Zn1508 Zn    0.75000   0.54340   0.28240   0.00000  Uiso   1.00
Zn1509 Zn    0.54340   0.75000   0.71760   0.00000  Uiso   1.00
Zn1510 Zn    0.95660   0.75000   0.28240   0.00000  Uiso   1.00
Zn1511 Zn    0.75000   0.54340   0.71760   0.00000  Uiso   1.00
Zn1512 Zn    0.75000   0.95660   0.28240   0.00000  Uiso   1.00
Zn1513 Zn    0.79340   0.50000   0.78240   0.00000  Uiso   1.00
Zn1514 Zn    0.50000   0.70660   0.21760   0.00000  Uiso   1.00
Zn1515 Zn    0.50000   0.79340   0.78240   0.00000  Uiso   1.00
Zn1516 Zn    0.79340   0.50000   0.21760   0.00000  Uiso   1.00
Zn1517 Zn    0.70660   0.50000   0.78240   0.00000  Uiso   1.00
Zn1518 Zn    0.50000   0.79340   0.21760   0.00000  Uiso   1.00
Zn1519 Zn    0.50000   0.70660   0.78240   0.00000  Uiso   1.00
Zn1520 Zn    0.95660   0.75000   0.71760   0.00000  Uiso   1.00
loop_
_geom_bond_atom_site_label_1
_geom_bond_atom_site_label_2
_geom_bond_distance
_geom_bond_site_symmetry_2
_ccdc_geom_bond_type
C1     C78     1.400   .     A
C1     C96     1.399   .     A
C1     H169    1.084   .     S
C2     H170    1.084   .     S
C2     C88     1.400   .     A
C2     C481    1.399   .     S
C3     C144    1.411   .     A
C3     C115    1.453   .     S
C3     C151    1.410   .     A
C4     C154    1.411   .     A
C4     C116    1.455   .     S
C4     C143    1.411   .     A
C5     C142    1.410   .     A
C5     C117    1.455   .     S
C5     C153    1.412   .     A
C6     C141    1.409   .     A
C6     C156    1.410   .     A
C6     C118    1.454   .     S
C7     C119    1.453   .     S
C7     C140    1.411   .     A
C7     C155    1.410   .     A
C8     C129    1.453   .     S
C8     C159    1.411   .     A
C8     C139    1.410   .     A
C9     C138    1.411   .     A
C9     C130    1.453   .     S
C9     C157    1.410   .     A
C10    C122    1.455   .     S
C10    C137    1.412   .     A
C10    C161    1.410   .     A
C11    C160    1.411   .     A
C11    C135    1.411   .     A
C11    C123    1.455   .     S
C12    C163    1.411   .     A
C12    C124    1.453   .     S
C12    C134    1.410   .     A
C13    H171    1.084   .     S
C13    C102    1.399   .     A
C13    C89     1.399   .     A
C14    C126    1.453   .     S
C14    C133    1.411   .     A
C14    C162    1.410   .     A
C15    C132    1.412   .     A
C15    C127    1.455   .     S
C15    C165    1.410   .     A
C16    C164    1.411   .     A
C16    C131    1.411   .     A
C16    C128    1.455   .     S
C17    C78     1.416   .     A
C17    C112    1.461   .     S
C17    C843    1.416   1_545 S
C18    C84     1.417   .     A
C18    C111    1.462   .     S
C18    C839    1.417   1_545 S
C19    C85     1.417   .     A
C19    C110    1.461   .     S
C19    C460    1.416   .     S
C20    C86     1.416   .     A
C20    C109    1.460   .     S
C20    C462    1.415   .     S
C21    C488    1.462   .     S
C21    C87     1.417   .     A
C21    C471    1.417   .     S
C22    C107    1.461   .     S
C22    C93     1.416   .     A
C22    C468    1.416   1_455 S
C23    C106    1.460   .     S
C23    C89     1.415   .     A
C23    C854    1.416   .     S
C24    C90     1.399   .     A
C24    H172    1.084   .     S
C24    C864    1.399   1_545 S
C25    C95     1.417   .     A
C25    C850    1.416   .     S
C25    C865    1.461   .     S
C26    O314    1.220   .     D
C26    O315    1.398   .     S
C26    C131    1.490   .     S
C27    O317    1.397   .     S
C27    C132    1.487   .     S
C27    O316    1.220   .     D
C28    C133    1.492   .     S
C28    O319    1.398   .     S
C28    O318    1.221   .     D
C29    C134    1.491   .     S
C29    O322    1.398   .     S
C29    O320    1.221   .     D
C30    O324    1.398   .     S
C30    C135    1.492   .     S
C30    O323    1.221   .     D
C31    C137    1.487   .     S
C31    O325    1.220   .     D
C31    O326    1.397   .     S
C32    O328    1.398   .     S
C32    C138    1.489   .     S
C32    O327    1.221   .     D
C33    O330    1.398   .     S
C33    C139    1.491   .     S
C33    O329    1.221   .     D
C34    C140    1.488   .     S
C34    O331    1.221   .     D
C34    O333    1.397   .     S
C35    H173    1.084   .     S
C35    C91     1.400   .     A
C35    C480    1.399   1_455 S
C36    O335    1.397   .     S
C36    C141    1.488   .     S
C36    O334    1.220   .     D
C37    C142    1.493   .     S
C37    O337    1.398   .     S
C37    O336    1.221   .     D
C38    O338    1.221   .     D
C38    C143    1.491   .     S
C38    O339    1.398   .     S
C39    C144    1.488   .     S
C39    O341    1.397   .     S
C39    O340    1.221   .     D
C40    C145    1.491   .     S
C40    O342    1.221   .     D
C40    O344    1.398   .     S
C41    C146    1.493   .     S
C41    O346    1.398   .     S
C41    O345    1.221   .     D
C42    O347    1.221   .     D
C42    C148    1.489   .     S
C42    O348    1.397   .     S
C43    O349    1.220   .     D
C43    O350    1.397   .     S
C43    C149    1.487   .     S
C44    C150    1.490   .     S
C44    O351    1.220   .     D
C44    O352    1.398   .     S
C45    C151    1.491   .     S
C45    O353    1.221   .     D
C45    O355    1.398   .     S
C46    H174    1.084   .     S
C46    C101    1.399   .     A
C46    C93     1.399   .     A
C47    C152    1.492   .     S
C47    O357    1.398   .     S
C47    O356    1.221   .     D
C48    C153    1.487   .     S
C48    O358    1.220   .     D
C48    O359    1.397   .     S
C49    O361    1.398   .     S
C49    C154    1.492   .     S
C49    O360    1.221   .     D
C50    C155    1.491   .     S
C50    O363    1.398   .     S
C50    O362    1.221   .     D
C51    O235    1.397   .     S
C51    O364    1.220   .     D
C51    C156    1.486   .     S
C52    C157    1.492   .     S
C52    O236    1.221   .     D
C52    O237    1.398   .     S
C53    O239    1.397   .     S
C53    C159    1.488   .     S
C53    O238    1.221   .     D
C54    O241    1.398   .     S
C54    C160    1.491   .     S
C54    O240    1.221   .     D
C55    O242    1.221   .     D
C55    C161    1.493   .     S
C55    O243    1.398   .     S
C56    C162    1.491   .     S
C56    O244    1.221   .     D
C56    O246    1.398   .     S
C57    H175    1.084   .     S
C57    C94     1.400   .     A
C57    C862    1.399   1_545 S
C58    O247    1.221   .     D
C58    C163    1.488   .     S
C58    O248    1.397   .     S
C59    C164    1.490   .     S
C59    O250    1.397   .     S
C59    O249    1.221   .     D
C60    C165    1.493   .     S
C60    O251    1.221   .     D
C60    O252    1.398   .     S
C61    O253    1.221   .     D
C61    H212    1.084   .     S
C61    C78     1.489   .     S
C62    H214    1.084   .     S
C62    C79     1.490   .     S
C62    O254    1.221   .     D
C63    C80     1.489   .     S
C63    H215    1.084   .     S
C63    O255    1.221   .     D
C64    O257    1.221   .     D
C64    H216    1.084   .     S
C64    C82     1.489   .     S
C65    H217    1.083   .     S
C65    O258    1.221   .     D
C65    C83     1.488   .     S
C66    H218    1.084   .     S
C66    O259    1.221   .     D
C66    C84     1.489   .     S
C67    O260    1.221   .     D
C67    C85     1.490   .     S
C67    H219    1.084   .     S
C68    H176    1.084   .     S
C68    C95     1.400   .     A
C68    C104    1.399   .     A
C69    O261    1.221   .     D
C69    H220    1.084   .     S
C69    C86     1.488   .     S
C70    H221    1.084   .     S
C70    C87     1.490   .     S
C70    O262    1.221   .     D
C71    C88     1.489   .     S
C71    H222    1.084   .     S
C71    O263    1.221   .     D
C72    H223    1.084   .     S
C72    O264    1.221   .     D
C72    C89     1.489   .     S
C73    C90     1.489   .     S
C73    O265    1.221   .     D
C73    H225    1.084   .     S
C74    H226    1.084   .     S
C74    C91     1.490   .     S
C74    O266    1.221   .     D
C75    C93     1.488   .     S
C75    H227    1.083   .     S
C75    O268    1.221   .     D
C76    H228    1.084   .     S
C76    C94     1.488   .     S
C76    O269    1.221   .     D
C77    H229    1.084   .     S
C77    C95     1.490   .     S
C77    O270    1.221   .     D
C79    C81     1.399   .     A
C79    C778    1.417   .     S
C80    C92     1.399   .     A
C80    C399    1.416   1_455 S
C81    H180    1.084   .     S
C81    C857    1.399   .     S
C82    C103    1.399   .     A
C82    C400    1.415   1_455 S
C83    C114    1.399   .     A
C83    C777    1.416   .     S
C84    C125    1.400   .     A
C85    C136    1.400   .     A
C86    C147    1.400   .     A
C87    C158    1.400   .     A
C88    C402    1.416   .     S
C90    C785    1.416   1_545 S
C91    C401    1.417   1_455 S
C92    H191    1.084   .     S
C92    C478    1.399   1_455 S
C94    C783    1.416   1_545 S
C96    C97     1.472   1_554 S
C96    C874    1.399   1_545 S
C97    C125    1.399   .     A
C97    C96     1.472   1_556 S
C97    C841    1.399   1_545 S
C98    C136    1.399   .     A
C98    C472    1.399   .     S
C98    C99     1.473   1_554 S
C99    C147    1.399   .     A
C99    C98     1.473   1_556 S
C99    C483    1.399   .     S
C100   C158    1.399   .     A
C100   C415    1.399   .     S
C100   C481    1.472   .     S
C101   C382    1.399   1_455 S
C101   C480    1.472   1_455 S
C102   C104    1.473   .     S
C102   C817    1.399   .     S
C103   H202    1.084   .     S
C103   C479    1.399   1_455 S
C104   C784    1.399   .     S
C105   O354    1.277   .     A
C105   C785    1.461   1_545 S
C105   O1070   1.276   1_545 S
C106   O234    1.276   .     A
C106   O1081   1.276   .     S
C107   O332    1.278   .     A
C107   O625    1.278   1_455 S
C108   C401    1.462   1_455 S
C108   O723    1.278   1_455 A
C108   O256    1.279   .     S
C109   O647    1.276   .     S
C109   O654    1.276   .     S
C110   O651    1.276   .     S
C110   O655    1.277   .     S
C111   O272    1.278   .     S
C111   O276    1.279   .     S
C112   O273    1.278   .     S
C112   O278    1.278   .     S
C113   C168    1.453   .     S
C113   O279    1.277   .     A
C113   O307    1.273   .     A
C114   H213    1.084   .     S
C114   C856    1.399   .     S
C115   O308    1.273   .     A
C115   O280    1.278   .     A
C116   O305    1.273   .     A
C116   O281    1.277   .     A
C117   O282    1.278   .     A
C117   O306    1.273   .     A
C118   O283    1.276   .     A
C118   O312    1.276   .     A
C119   O284    1.278   .     A
C119   O313    1.273   .     A
C120   O309    1.274   .     A
C120   C166    1.456   .     S
C120   O285    1.278   .     A
C121   O286    1.278   .     A
C121   C167    1.455   .     S
C121   O311    1.273   .     A
C122   O287    1.273   .     A
C122   O298    1.278   .     A
C123   O289    1.273   .     A
C123   O300    1.277   .     A
C124   O290    1.273   .     A
C124   O296    1.278   .     A
C125   H224    1.084   .     S
C126   O297    1.277   .     A
C126   O291    1.273   .     A
C127   O292    1.273   .     A
C127   O303    1.278   .     A
C128   O293    1.273   .     A
C128   O304    1.278   .     A
C129   O301    1.278   .     A
C129   O294    1.273   .     A
C130   O295    1.275   .     A
C130   O302    1.276   .     A
C131   C148    1.404   .     A
C132   C146    1.403   .     A
C133   C145    1.406   .     A
C134   C144    1.404   .     A
C135   C143    1.406   .     A
C136   H230    1.084   .     S
C137   C142    1.403   .     A
C138   C141    1.403   .     A
C139   C140    1.404   .     A
C145   C168    1.410   .     A
C146   C167    1.410   .     A
C147   H231    1.084   .     S
C148   C166    1.410   .     A
C149   C165    1.403   .     A
C149   C167    1.412   .     A
C150   C166    1.411   .     A
C150   C164    1.405   .     A
C151   C163    1.404   .     A
C152   C168    1.411   .     A
C152   C162    1.406   .     A
C153   C161    1.403   .     A
C154   C160    1.406   .     A
C155   C159    1.404   .     A
C156   C157    1.403   .     A
C158   H232    1.084   .     S
H177   O315    1.013   .     S
H178   O317    1.014   .     S
H179   O319    1.013   .     S
H181   O322    1.013   .     S
H182   O324    1.013   .     S
H183   O326    1.013   .     S
H184   O328    1.013   .     S
H185   O330    1.013   .     S
H186   O333    1.013   .     S
H187   O335    1.013   .     S
H188   O337    1.013   .     S
H189   O339    1.013   .     S
H190   O341    1.013   .     S
H192   O344    1.013   .     S
H193   O346    1.013   .     S
H194   O348    1.013   .     S
H195   O350    1.013   .     S
H196   O352    1.013   .     S
H197   O355    1.013   .     S
H198   O357    1.013   .     S
H199   O359    1.013   .     S
H200   O361    1.013   .     S
H201   O363    1.013   .     S
H203   O235    1.013   .     S
H204   O237    1.013   .     S
H205   O239    1.013   .     S
H206   O241    1.013   .     S
H207   O243    1.013   .     S
H208   O246    1.013   .     S
H209   O248    1.013   .     S
H210   O250    1.012   .     S
H211   O252    1.013   .     S
O233   Zn1132  1.942   1_545 S
O233   Zn365   1.944   .     S
O233   Zn368   1.940   .     S
O233   Zn376   1.944   .     S
O234   Zn367   1.938   .     S
O245   Zn370   1.938   .     S
O245   C487    1.278   .     S
O256   Zn369   1.938   .     S
O267   C489    1.276   1_455 S
O267   Zn379   1.937   .     S
O271   C490    1.276   1_455 S
O271   Zn378   1.937   .     S
O272   Zn373   1.938   .     S
O273   Zn365   1.938   .     S
O274   C489    1.276   1_455 S
O274   Zn375   1.938   .     S
O275   Zn374   1.938   .     S
O275   C490    1.277   1_455 S
O276   Zn377   1.938   .     S
O277   Zn377   1.944   .     S
O277   Zn373   1.944   .     S
O277   Zn1127  1.940   1_545 S
O277   Zn371   1.942   .     S
O278   Zn376   1.938   .     S
O279   Zn368   1.933   .     S
O280   Zn367   1.933   .     S
O281   Zn370   1.933   .     S
O282   Zn369   1.933   .     S
O283   Zn372   1.933   .     S
O284   Zn371   1.933   .     S
O285   Zn366   1.934   .     S
O286   Zn380   1.934   .     S
O287   Zn367   1.935   .     S
O288   Zn366   1.944   .     S
O288   Zn374   1.940   .     S
O288   Zn750   1.944   1_455 S
O288   Zn378   1.942   .     S
O289   Zn368   1.935   .     S
O290   Zn380   1.931   .     S
O291   Zn366   1.931   .     S
O292   Zn371   1.935   .     S
O293   Zn372   1.935   .     S
O294   Zn369   1.931   .     S
O295   Zn370   1.931   .     S
O296   Zn755   1.933   .     S
O297   Zn374   1.933   .     S
O298   Zn1137  1.933   .     S
O299   Zn760   1.944   1_455 S
O299   Zn379   1.942   .     S
O299   Zn375   1.940   .     S
O299   Zn369   1.944   .     S
O300   Zn376   1.933   .     S
O301   Zn379   1.933   .     S
O302   Zn758   1.933   .     S
O303   Zn373   1.934   .     S
O304   Zn1125  1.934   .     S
O305   Zn754   1.935   .     S
O306   Zn375   1.935   .     S
O307   Zn365   1.931   .     S
O308   Zn1133  1.931   .     S
O309   Zn378   1.935   .     S
O310   Zn372   1.937   .     S
O310   C865    1.276   .     S
O311   Zn759   1.935   .     S
O312   Zn1136  1.931   .     S
O313   Zn377   1.931   .     S
O321   Zn371   1.937   .     S
O321   C866    1.276   1_545 S
O332   Zn366   1.938   .     S
O343   Zn380   1.938   .     S
O343   C488    1.278   .     A
O354   Zn368   1.938   .     S
Zn365  O1064   1.934   1_545 S
Zn367  O1037   1.940   .     S
Zn370  O668    1.944   .     S
Zn372  O993    1.942   .     S
Zn373  O1068   1.931   1_545 S
Zn374  O685    1.935   1_455 S
Zn375  O676    1.933   1_455 S
Zn376  O1072   1.931   1_545 S
Zn377  O1058   1.933   1_545 S
Zn378  O682    1.933   1_455 S
Zn379  O691    1.935   1_455 S
Zn380  O679    1.944   .     S
C381   C458    1.400   .     A
C381   C476    1.399   .     A
C381   H549    1.084   .     S
C382   H550    1.084   .     S
C382   C468    1.400   .     A
C382   C101    1.399   1_655 S
C383   C524    1.411   .     A
C383   C495    1.453   .     S
C383   C531    1.410   .     A
C384   C534    1.411   .     A
C384   C496    1.455   .     S
C384   C523    1.411   .     A
C385   C522    1.410   .     A
C385   C497    1.455   .     S
C385   C533    1.412   .     A
C386   C521    1.409   .     A
C386   C536    1.410   .     A
C386   C498    1.454   .     S
C387   C499    1.453   .     S
C387   C520    1.411   .     A
C387   C535    1.410   .     A
C388   C509    1.453   .     S
C388   C539    1.411   .     A
C388   C519    1.410   .     A
C389   C518    1.411   .     A
C389   C510    1.453   .     S
C389   C537    1.410   .     A
C390   C502    1.455   .     S
C390   C517    1.412   .     A
C390   C541    1.410   .     A
C391   C540    1.411   .     A
C391   C515    1.411   .     A
C391   C503    1.455   .     S
C392   C543    1.411   .     A
C392   C504    1.453   .     S
C392   C514    1.410   .     A
C393   H551    1.084   .     S
C393   C482    1.399   .     A
C393   C469    1.399   .     A
C394   C506    1.453   .     S
C394   C513    1.411   .     A
C394   C542    1.410   .     A
C395   C512    1.412   .     A
C395   C507    1.455   .     S
C395   C545    1.410   .     A
C396   C544    1.411   .     A
C396   C511    1.411   .     A
C396   C508    1.455   .     S
C397   C458    1.416   .     A
C397   C492    1.461   .     S
C397   C1223   1.416   1_545 S
C398   C464    1.417   .     A
C398   C491    1.462   .     S
C398   C1219   1.417   1_545 S
C399   C465    1.417   .     A
C399   C490    1.461   .     S
C399   C80     1.416   1_655 S
C400   C466    1.416   .     A
C400   C489    1.460   .     S
C400   C82     1.415   1_655 S
C401   C108    1.462   1_655 S
C401   C467    1.417   .     A
C401   C91     1.417   1_655 S
C402   C487    1.461   .     S
C402   C473    1.416   .     A
C403   C486    1.460   .     S
C403   C469    1.415   .     A
C403   C1234   1.416   .     S
C404   C470    1.399   .     A
C404   H552    1.084   .     S
C404   C1244   1.399   1_545 S
C405   C475    1.417   .     A
C405   C1230   1.416   .     S
C405   C1245   1.461   .     S
C406   O694    1.220   .     D
C406   O695    1.398   .     S
C406   C511    1.490   .     S
C407   O697    1.397   .     S
C407   C512    1.487   .     S
C407   O696    1.220   .     D
C408   C513    1.492   .     S
C408   O699    1.398   .     S
C408   O698    1.221   .     D
C409   C514    1.491   .     S
C409   O702    1.398   .     S
C409   O700    1.221   .     D
C410   O704    1.398   .     S
C410   C515    1.492   .     S
C410   O703    1.221   .     D
C411   C517    1.487   .     S
C411   O705    1.220   .     D
C411   O706    1.397   .     S
C412   O708    1.398   .     S
C412   C518    1.489   .     S
C412   O707    1.221   .     D
C413   O710    1.398   .     S
C413   C519    1.491   .     S
C413   O709    1.221   .     D
C414   C520    1.488   .     S
C414   O711    1.221   .     D
C414   O713    1.397   .     S
C415   H553    1.084   .     S
C415   C471    1.400   .     A
C416   O715    1.397   .     S
C416   C521    1.488   .     S
C416   O714    1.220   .     D
C417   C522    1.493   .     S
C417   O717    1.398   .     S
C417   O716    1.221   .     D
C418   O718    1.221   .     D
C418   C523    1.491   .     S
C418   O719    1.398   .     S
C419   C524    1.488   .     S
C419   O721    1.397   .     S
C419   O720    1.221   .     D
C420   C525    1.491   .     S
C420   O722    1.221   .     D
C420   O724    1.398   .     S
C421   C526    1.493   .     S
C421   O726    1.398   .     S
C421   O725    1.221   .     D
C422   O727    1.221   .     D
C422   C528    1.489   .     S
C422   O728    1.397   .     S
C423   O729    1.220   .     D
C423   O730    1.397   .     S
C423   C529    1.487   .     S
C424   C530    1.490   .     S
C424   O731    1.220   .     D
C424   O732    1.398   .     S
C425   C531    1.491   .     S
C425   O733    1.221   .     D
C425   O735    1.398   .     S
C426   H554    1.084   .     S
C426   C481    1.399   .     A
C426   C473    1.399   .     A
C427   C532    1.492   .     S
C427   O737    1.398   .     S
C427   O736    1.221   .     D
C428   C533    1.487   .     S
C428   O738    1.220   .     D
C428   O739    1.397   .     S
C429   O741    1.398   .     S
C429   C534    1.492   .     S
C429   O740    1.221   .     D
C430   C535    1.491   .     S
C430   O743    1.398   .     S
C430   O742    1.221   .     D
C431   O615    1.397   .     S
C431   O744    1.220   .     D
C431   C536    1.486   .     S
C432   C537    1.492   .     S
C432   O616    1.221   .     D
C432   O617    1.398   .     S
C433   O619    1.397   .     S
C433   C539    1.488   .     S
C433   O618    1.221   .     D
C434   O621    1.398   .     S
C434   C540    1.491   .     S
C434   O620    1.221   .     D
C435   O622    1.221   .     D
C435   C541    1.493   .     S
C435   O623    1.398   .     S
C436   C542    1.491   .     S
C436   O624    1.221   .     D
C436   O626    1.398   .     S
C437   H555    1.084   .     S
C437   C474    1.400   .     A
C437   C1242   1.399   1_545 S
C438   O627    1.221   .     D
C438   C543    1.488   .     S
C438   O628    1.397   .     S
C439   C544    1.490   .     S
C439   O630    1.397   .     S
C439   O629    1.221   .     D
C440   C545    1.493   .     S
C440   O631    1.221   .     D
C440   O632    1.398   .     S
C441   O633    1.221   .     D
C441   H592    1.084   .     S
C441   C458    1.489   .     S
C442   H594    1.084   .     S
C442   C459    1.490   .     S
C442   O634    1.221   .     D
C443   C460    1.489   .     S
C443   H595    1.084   .     S
C443   O635    1.221   .     D
C444   O637    1.221   .     D
C444   H596    1.084   .     S
C444   C462    1.489   .     S
C445   H597    1.083   .     S
C445   O638    1.221   .     D
C445   C463    1.488   .     S
C446   H598    1.084   .     S
C446   O639    1.221   .     D
C446   C464    1.489   .     S
C447   O640    1.221   .     D
C447   C465    1.490   .     S
C447   H599    1.084   .     S
C448   H556    1.084   .     S
C448   C475    1.400   .     A
C448   C484    1.399   .     A
C449   O641    1.221   .     D
C449   H600    1.084   .     S
C449   C466    1.488   .     S
C450   H601    1.084   .     S
C450   C467    1.490   .     S
C450   O642    1.221   .     D
C451   C468    1.489   .     S
C451   H602    1.084   .     S
C451   O643    1.221   .     D
C452   H603    1.084   .     S
C452   O644    1.221   .     D
C452   C469    1.489   .     S
C453   C470    1.489   .     S
C453   O645    1.221   .     D
C453   H605    1.084   .     S
C454   H606    1.084   .     S
C454   C471    1.490   .     S
C454   O646    1.221   .     D
C455   C473    1.488   .     S
C455   H607    1.083   .     S
C455   O648    1.221   .     D
C456   H608    1.084   .     S
C456   C474    1.488   .     S
C456   O649    1.221   .     D
C457   H609    1.084   .     S
C457   C475    1.490   .     S
C457   O650    1.221   .     D
C459   C461    1.399   .     A
C459   C1158   1.417   .     S
C460   C472    1.399   .     A
C461   H560    1.084   .     S
C461   C1237   1.399   .     S
C462   C483    1.399   .     A
C463   C494    1.399   .     A
C463   C1157   1.416   .     S
C464   C505    1.400   .     A
C465   C516    1.400   .     A
C466   C527    1.400   .     A
C467   C538    1.400   .     A
C468   C22     1.416   1_655 S
C470   C1165   1.416   1_545 S
C472   H571    1.084   .     S
C474   C1163   1.416   1_545 S
C476   C477    1.472   1_554 S
C476   C1254   1.399   1_545 S
C477   C505    1.399   .     A
C477   C476    1.472   1_556 S
C477   C1221   1.399   1_545 S
C478   C516    1.399   .     A
C478   C92     1.399   1_655 S
C478   C479    1.473   1_554 S
C479   C527    1.399   .     A
C479   C478    1.473   1_556 S
C479   C103    1.399   1_655 S
C480   C538    1.399   .     A
C480   C35     1.399   1_655 S
C480   C101    1.472   1_655 S
C482   C484    1.473   .     S
C482   C1197   1.399   .     S
C483   H582    1.084   .     S
C484   C1164   1.399   .     S
C485   O734    1.277   .     A
C485   C1165   1.461   1_545 S
C485   O1450   1.276   1_545 S
C486   O614    1.276   .     A
C486   O1461   1.276   .     S
C487   O712    1.278   .     A
C488   O636    1.279   .     S
C489   O267    1.276   1_655 S
C489   O274    1.276   1_655 S
C490   O271    1.276   1_655 S
C490   O275    1.277   1_655 S
C491   O652    1.278   .     S
C491   O656    1.279   .     S
C492   O653    1.278   .     S
C492   O658    1.278   .     S
C493   C548    1.453   .     S
C493   O659    1.277   .     A
C493   O687    1.273   .     A
C494   H593    1.084   .     S
C494   C1236   1.399   .     S
C495   O688    1.273   .     A
C495   O660    1.278   .     A
C496   O685    1.273   .     A
C496   O661    1.277   .     A
C497   O662    1.278   .     A
C497   O686    1.273   .     A
C498   O663    1.276   .     A
C498   O692    1.276   .     A
C499   O664    1.278   .     A
C499   O693    1.273   .     A
C500   O689    1.274   .     A
C500   C546    1.456   .     S
C500   O665    1.278   .     A
C501   O666    1.278   .     A
C501   C547    1.455   .     S
C501   O691    1.273   .     A
C502   O667    1.273   .     A
C502   O678    1.278   .     A
C503   O669    1.273   .     A
C503   O680    1.277   .     A
C504   O670    1.273   .     A
C504   O676    1.278   .     A
C505   H604    1.084   .     S
C506   O677    1.277   .     A
C506   O671    1.273   .     A
C507   O672    1.273   .     A
C507   O683    1.278   .     A
C508   O673    1.273   .     A
C508   O684    1.278   .     A
C509   O681    1.278   .     A
C509   O674    1.273   .     A
C510   O675    1.275   .     A
C510   O682    1.276   .     A
C511   C528    1.404   .     A
C512   C526    1.403   .     A
C513   C525    1.406   .     A
C514   C524    1.404   .     A
C515   C523    1.406   .     A
C516   H610    1.084   .     S
C517   C522    1.403   .     A
C518   C521    1.403   .     A
C519   C520    1.404   .     A
C525   C548    1.410   .     A
C526   C547    1.410   .     A
C527   H611    1.084   .     S
C528   C546    1.410   .     A
C529   C545    1.403   .     A
C529   C547    1.412   .     A
C530   C546    1.411   .     A
C530   C544    1.405   .     A
C531   C543    1.404   .     A
C532   C548    1.411   .     A
C532   C542    1.406   .     A
C533   C541    1.403   .     A
C534   C540    1.406   .     A
C535   C539    1.404   .     A
C536   C537    1.403   .     A
C538   H612    1.084   .     S
H557   O695    1.013   .     S
H558   O697    1.014   .     S
H559   O699    1.013   .     S
H561   O702    1.013   .     S
H562   O704    1.013   .     S
H563   O706    1.013   .     S
H564   O708    1.013   .     S
H565   O710    1.013   .     S
H566   O713    1.013   .     S
H567   O715    1.013   .     S
H568   O717    1.013   .     S
H569   O719    1.013   .     S
H570   O721    1.013   .     S
H572   O724    1.013   .     S
H573   O726    1.013   .     S
H574   O728    1.013   .     S
H575   O730    1.013   .     S
H576   O732    1.013   .     S
H577   O735    1.013   .     S
H578   O737    1.013   .     S
H579   O739    1.013   .     S
H580   O741    1.013   .     S
H581   O743    1.013   .     S
H583   O615    1.013   .     S
H584   O617    1.013   .     S
H585   O619    1.013   .     S
H586   O621    1.013   .     S
H587   O623    1.013   .     S
H588   O626    1.013   .     S
H589   O628    1.013   .     S
H590   O630    1.012   .     S
H591   O632    1.013   .     S
O613   Zn1512  1.942   1_545 S
O613   Zn745   1.944   .     S
O613   Zn748   1.940   .     S
O613   Zn756   1.944   .     S
O614   Zn747   1.938   .     S
O625   Zn750   1.938   .     S
O625   C107    1.278   1_655 S
O636   Zn749   1.938   .     S
O647   Zn759   1.937   .     S
O651   Zn758   1.937   .     S
O652   Zn753   1.938   .     S
O653   Zn745   1.938   .     S
O654   Zn755   1.938   .     S
O655   Zn754   1.938   .     S
O656   Zn757   1.938   .     S
O657   Zn757   1.944   .     S
O657   Zn753   1.944   .     S
O657   Zn1507  1.940   1_545 S
O657   Zn751   1.942   .     S
O658   Zn756   1.938   .     S
O659   Zn748   1.933   .     S
O660   Zn747   1.933   .     S
O661   Zn750   1.933   .     S
O662   Zn749   1.933   .     S
O663   Zn752   1.933   .     S
O664   Zn751   1.933   .     S
O665   Zn746   1.934   .     S
O666   Zn760   1.934   .     S
O667   Zn747   1.935   .     S
O668   Zn746   1.944   .     S
O668   Zn754   1.940   .     S
O668   Zn758   1.942   .     S
O669   Zn748   1.935   .     S
O670   Zn760   1.931   .     S
O671   Zn746   1.931   .     S
O672   Zn751   1.935   .     S
O673   Zn752   1.935   .     S
O674   Zn749   1.931   .     S
O675   Zn750   1.931   .     S
O676   Zn375   1.933   1_655 S
O677   Zn754   1.933   .     S
O678   Zn1517  1.933   .     S
O679   Zn759   1.942   .     S
O679   Zn755   1.940   .     S
O679   Zn749   1.944   .     S
O680   Zn756   1.933   .     S
O681   Zn759   1.933   .     S
O682   Zn378   1.933   1_655 S
O683   Zn753   1.934   .     S
O684   Zn1505  1.934   .     S
O685   Zn374   1.935   1_655 S
O686   Zn755   1.935   .     S
O687   Zn745   1.931   .     S
O688   Zn1513  1.931   .     S
O689   Zn758   1.935   .     S
O690   Zn752   1.937   .     S
O690   C1245   1.276   .     S
O691   Zn379   1.935   1_655 S
O692   Zn1516  1.931   .     S
O693   Zn757   1.931   .     S
O701   Zn751   1.937   .     S
O701   C1246   1.276   1_545 S
O712   Zn746   1.938   .     S
O723   Zn760   1.938   .     S
O723   C108    1.278   1_655 A
O734   Zn748   1.938   .     S
Zn745  O1444   1.934   1_545 S
Zn747  O1417   1.940   .     S
Zn750  O288    1.944   1_655 S
Zn752  O1373   1.942   .     S
Zn753  O1448   1.931   1_545 S
Zn756  O1452   1.931   1_545 S
Zn757  O1438   1.933   1_545 S
Zn760  O299    1.944   1_655 S
C761   C838    1.400   .     A
C761   C856    1.399   .     A
C761   H929    1.084   .     S
C762   H930    1.084   .     S
C762   C848    1.400   .     A
C762   C1241   1.399   .     S
C763   C904    1.411   .     A
C763   C875    1.453   .     S
C763   C911    1.410   .     A
C764   C914    1.411   .     A
C764   C876    1.455   .     S
C764   C903    1.411   .     A
C765   C902    1.410   .     A
C765   C877    1.455   .     S
C765   C913    1.412   .     A
C766   C901    1.409   .     A
C766   C916    1.410   .     A
C766   C878    1.454   .     S
C767   C879    1.453   .     S
C767   C900    1.411   .     A
C767   C915    1.410   .     A
C768   C889    1.453   .     S
C768   C919    1.411   .     A
C768   C899    1.410   .     A
C769   C898    1.411   .     A
C769   C890    1.453   .     S
C769   C917    1.410   .     A
C770   C882    1.455   .     S
C770   C897    1.412   .     A
C770   C921    1.410   .     A
C771   C920    1.411   .     A
C771   C895    1.411   .     A
C771   C883    1.455   .     S
C772   C923    1.411   .     A
C772   C884    1.453   .     S
C772   C894    1.410   .     A
C773   H931    1.084   .     S
C773   C862    1.399   .     A
C773   C849    1.399   .     A
C774   C886    1.453   .     S
C774   C893    1.411   .     A
C774   C922    1.410   .     A
C775   C892    1.412   .     A
C775   C887    1.455   .     S
C775   C925    1.410   .     A
C776   C924    1.411   .     A
C776   C891    1.411   .     A
C776   C888    1.455   .     S
C777   C838    1.416   .     A
C777   C872    1.461   .     S
C778   C844    1.417   .     A
C778   C871    1.462   .     S
C779   C845    1.417   .     A
C779   C870    1.461   .     S
C779   C1220   1.416   .     S
C780   C846    1.416   .     A
C780   C869    1.460   .     S
C780   C1222   1.415   .     S
C781   C1248   1.462   .     S
C781   C847    1.417   .     A
C781   C1231   1.417   .     S
C782   C867    1.461   .     S
C782   C853    1.416   .     A
C782   C1228   1.416   1_455 S
C783   C866    1.460   .     S
C783   C849    1.415   .     A
C783   C94     1.416   1_565 S
C784   C850    1.399   .     A
C784   H932    1.084   .     S
C785   C855    1.417   .     A
C785   C90     1.416   1_565 S
C785   C105    1.461   1_565 S
C786   O1074   1.220   .     D
C786   O1075   1.398   .     S
C786   C891    1.490   .     S
C787   O1077   1.397   .     S
C787   C892    1.487   .     S
C787   O1076   1.220   .     D
C788   C893    1.492   .     S
C788   O1079   1.398   .     S
C788   O1078   1.221   .     D
C789   C894    1.491   .     S
C789   O1082   1.398   .     S
C789   O1080   1.221   .     D
C790   O1084   1.398   .     S
C790   C895    1.492   .     S
C790   O1083   1.221   .     D
C791   C897    1.487   .     S
C791   O1085   1.220   .     D
C791   O1086   1.397   .     S
C792   O1088   1.398   .     S
C792   C898    1.489   .     S
C792   O1087   1.221   .     D
C793   O1090   1.398   .     S
C793   C899    1.491   .     S
C793   O1089   1.221   .     D
C794   C900    1.488   .     S
C794   O1091   1.221   .     D
C794   O1093   1.397   .     S
C795   H933    1.084   .     S
C795   C851    1.400   .     A
C795   C1240   1.399   1_455 S
C796   O1095   1.397   .     S
C796   C901    1.488   .     S
C796   O1094   1.220   .     D
C797   C902    1.493   .     S
C797   O1097   1.398   .     S
C797   O1096   1.221   .     D
C798   O1098   1.221   .     D
C798   C903    1.491   .     S
C798   O1099   1.398   .     S
C799   C904    1.488   .     S
C799   O1101   1.397   .     S
C799   O1100   1.221   .     D
C800   C905    1.491   .     S
C800   O1102   1.221   .     D
C800   O1104   1.398   .     S
C801   C906    1.493   .     S
C801   O1106   1.398   .     S
C801   O1105   1.221   .     D
C802   O1107   1.221   .     D
C802   C908    1.489   .     S
C802   O1108   1.397   .     S
C803   O1109   1.220   .     D
C803   O1110   1.397   .     S
C803   C909    1.487   .     S
C804   C910    1.490   .     S
C804   O1111   1.220   .     D
C804   O1112   1.398   .     S
C805   C911    1.491   .     S
C805   O1113   1.221   .     D
C805   O1115   1.398   .     S
C806   H934    1.084   .     S
C806   C861    1.399   .     A
C806   C853    1.399   .     A
C807   C912    1.492   .     S
C807   O1117   1.398   .     S
C807   O1116   1.221   .     D
C808   C913    1.487   .     S
C808   O1118   1.220   .     D
C808   O1119   1.397   .     S
C809   O1121   1.398   .     S
C809   C914    1.492   .     S
C809   O1120   1.221   .     D
C810   C915    1.491   .     S
C810   O1123   1.398   .     S
C810   O1122   1.221   .     D
C811   O995    1.397   .     S
C811   O1124   1.220   .     D
C811   C916    1.486   .     S
C812   C917    1.492   .     S
C812   O996    1.221   .     D
C812   O997    1.398   .     S
C813   O999    1.397   .     S
C813   C919    1.488   .     S
C813   O998    1.221   .     D
C814   O1001   1.398   .     S
C814   C920    1.491   .     S
C814   O1000   1.221   .     D
C815   O1002   1.221   .     D
C815   C921    1.493   .     S
C815   O1003   1.398   .     S
C816   C922    1.491   .     S
C816   O1004   1.221   .     D
C816   O1006   1.398   .     S
C817   H935    1.084   .     S
C817   C854    1.400   .     A
C818   O1007   1.221   .     D
C818   C923    1.488   .     S
C818   O1008   1.397   .     S
C819   C924    1.490   .     S
C819   O1010   1.397   .     S
C819   O1009   1.221   .     D
C820   C925    1.493   .     S
C820   O1011   1.221   .     D
C820   O1012   1.398   .     S
C821   O1013   1.221   .     D
C821   H972    1.084   .     S
C821   C838    1.489   .     S
C822   H974    1.084   .     S
C822   C839    1.490   .     S
C822   O1014   1.221   .     D
C823   C840    1.489   .     S
C823   H975    1.084   .     S
C823   O1015   1.221   .     D
C824   O1017   1.221   .     D
C824   H976    1.084   .     S
C824   C842    1.489   .     S
C825   H977    1.083   .     S
C825   O1018   1.221   .     D
C825   C843    1.488   .     S
C826   H978    1.084   .     S
C826   O1019   1.221   .     D
C826   C844    1.489   .     S
C827   O1020   1.221   .     D
C827   C845    1.490   .     S
C827   H979    1.084   .     S
C828   H936    1.084   .     S
C828   C855    1.400   .     A
C828   C864    1.399   .     A
C829   O1021   1.221   .     D
C829   H980    1.084   .     S
C829   C846    1.488   .     S
C830   H981    1.084   .     S
C830   C847    1.490   .     S
C830   O1022   1.221   .     D
C831   C848    1.489   .     S
C831   H982    1.084   .     S
C831   O1023   1.221   .     D
C832   H983    1.084   .     S
C832   O1024   1.221   .     D
C832   C849    1.489   .     S
C833   C850    1.489   .     S
C833   O1025   1.221   .     D
C833   H985    1.084   .     S
C834   H986    1.084   .     S
C834   C851    1.490   .     S
C834   O1026   1.221   .     D
C835   C853    1.488   .     S
C835   H987    1.083   .     S
C835   O1028   1.221   .     D
C836   H988    1.084   .     S
C836   C854    1.488   .     S
C836   O1029   1.221   .     D
C837   H989    1.084   .     S
C837   C855    1.490   .     S
C837   O1030   1.221   .     D
C839   C841    1.399   .     A
C839   C18     1.417   1_565 S
C840   C852    1.399   .     A
C840   C1159   1.416   1_455 S
C841   H940    1.084   .     S
C841   C97     1.399   1_565 S
C842   C863    1.399   .     A
C842   C1160   1.415   1_455 S
C843   C874    1.399   .     A
C843   C17     1.416   1_565 S
C844   C885    1.400   .     A
C845   C896    1.400   .     A
C846   C907    1.400   .     A
C847   C918    1.400   .     A
C848   C1162   1.416   .     S
C851   C1161   1.417   1_455 S
C852   H951    1.084   .     S
C852   C1238   1.399   1_455 S
C856   C857    1.472   1_554 S
C857   C885    1.399   .     A
C857   C856    1.472   1_556 S
C858   C896    1.399   .     A
C858   C1232   1.399   .     S
C858   C859    1.473   1_554 S
C859   C907    1.399   .     A
C859   C858    1.473   1_556 S
C859   C1243   1.399   .     S
C860   C918    1.399   .     A
C860   C1175   1.399   .     S
C860   C1241   1.472   .     S
C861   C1142   1.399   1_455 S
C861   C1240   1.472   1_455 S
C862   C864    1.473   .     S
C862   C57     1.399   1_565 S
C863   H962    1.084   .     S
C863   C1239   1.399   1_455 S
C864   C24     1.399   1_565 S
C865   O1114   1.277   .     A
C866   O994    1.276   .     A
C866   O321    1.276   1_565 S
C867   O1092   1.278   .     A
C867   O1385   1.278   1_455 S
C868   C1161   1.462   1_455 S
C868   O1483   1.278   1_455 A
C868   O1016   1.279   .     S
C869   O1407   1.276   .     S
C869   O1414   1.276   .     S
C870   O1411   1.276   .     S
C870   O1415   1.277   .     S
C871   O1032   1.278   .     S
C871   O1036   1.279   .     S
C872   O1033   1.278   .     S
C872   O1038   1.278   .     S
C873   C928    1.453   .     S
C873   O1039   1.277   .     A
C873   O1067   1.273   .     A
C874   H973    1.084   .     S
C874   C96     1.399   1_565 S
C875   O1068   1.273   .     A
C875   O1040   1.278   .     A
C876   O1065   1.273   .     A
C876   O1041   1.277   .     A
C877   O1042   1.278   .     A
C877   O1066   1.273   .     A
C878   O1043   1.276   .     A
C878   O1072   1.276   .     A
C879   O1044   1.278   .     A
C879   O1073   1.273   .     A
C880   O1069   1.274   .     A
C880   C926    1.456   .     S
C880   O1045   1.278   .     A
C881   O1046   1.278   .     A
C881   C927    1.455   .     S
C881   O1071   1.273   .     A
C882   O1047   1.273   .     A
C882   O1058   1.278   .     A
C883   O1049   1.273   .     A
C883   O1060   1.277   .     A
C884   O1050   1.273   .     A
C884   O1056   1.278   .     A
C885   H984    1.084   .     S
C886   O1057   1.277   .     A
C886   O1051   1.273   .     A
C887   O1052   1.273   .     A
C887   O1063   1.278   .     A
C888   O1053   1.273   .     A
C888   O1064   1.278   .     A
C889   O1061   1.278   .     A
C889   O1054   1.273   .     A
C890   O1055   1.275   .     A
C890   O1062   1.276   .     A
C891   C908    1.404   .     A
C892   C906    1.403   .     A
C893   C905    1.406   .     A
C894   C904    1.404   .     A
C895   C903    1.406   .     A
C896   H990    1.084   .     S
C897   C902    1.403   .     A
C898   C901    1.403   .     A
C899   C900    1.404   .     A
C905   C928    1.410   .     A
C906   C927    1.410   .     A
C907   H991    1.084   .     S
C908   C926    1.410   .     A
C909   C925    1.403   .     A
C909   C927    1.412   .     A
C910   C926    1.411   .     A
C910   C924    1.405   .     A
C911   C923    1.404   .     A
C912   C928    1.411   .     A
C912   C922    1.406   .     A
C913   C921    1.403   .     A
C914   C920    1.406   .     A
C915   C919    1.404   .     A
C916   C917    1.403   .     A
C918   H992    1.084   .     S
H937   O1075   1.013   .     S
H938   O1077   1.014   .     S
H939   O1079   1.013   .     S
H941   O1082   1.013   .     S
H942   O1084   1.013   .     S
H943   O1086   1.013   .     S
H944   O1088   1.013   .     S
H945   O1090   1.013   .     S
H946   O1093   1.013   .     S
H947   O1095   1.013   .     S
H948   O1097   1.013   .     S
H949   O1099   1.013   .     S
H950   O1101   1.013   .     S
H952   O1104   1.013   .     S
H953   O1106   1.013   .     S
H954   O1108   1.013   .     S
H955   O1110   1.013   .     S
H956   O1112   1.013   .     S
H957   O1115   1.013   .     S
H958   O1117   1.013   .     S
H959   O1119   1.013   .     S
H960   O1121   1.013   .     S
H961   O1123   1.013   .     S
H963   O995    1.013   .     S
H964   O997    1.013   .     S
H965   O999    1.013   .     S
H966   O1001   1.013   .     S
H967   O1003   1.013   .     S
H968   O1006   1.013   .     S
H969   O1008   1.013   .     S
H970   O1010   1.012   .     S
H971   O1012   1.013   .     S
O993   Zn1125  1.944   .     S
O993   Zn1128  1.940   .     S
O993   Zn1136  1.944   .     S
O994   Zn1127  1.938   .     S
O1005  Zn1130  1.938   .     S
O1005  C1247   1.278   .     S
O1016  Zn1129  1.938   .     S
O1027  C1249   1.276   1_455 S
O1027  Zn1139  1.937   .     S
O1031  C1250   1.276   1_455 S
O1031  Zn1138  1.937   .     S
O1032  Zn1133  1.938   .     S
O1033  Zn1125  1.938   .     S
O1034  C1249   1.276   1_455 S
O1034  Zn1135  1.938   .     S
O1035  Zn1134  1.938   .     S
O1035  C1250   1.277   1_455 S
O1036  Zn1137  1.938   .     S
O1037  Zn1137  1.944   .     S
O1037  Zn1133  1.944   .     S
O1037  Zn1131  1.942   .     S
O1038  Zn1136  1.938   .     S
O1039  Zn1128  1.933   .     S
O1040  Zn1127  1.933   .     S
O1041  Zn1130  1.933   .     S
O1042  Zn1129  1.933   .     S
O1043  Zn1132  1.933   .     S
O1044  Zn1131  1.933   .     S
O1045  Zn1126  1.934   .     S
O1046  Zn1140  1.934   .     S
O1047  Zn1127  1.935   .     S
O1048  Zn1126  1.944   .     S
O1048  Zn1134  1.940   .     S
O1048  Zn1510  1.944   1_455 S
O1048  Zn1138  1.942   .     S
O1049  Zn1128  1.935   .     S
O1050  Zn1140  1.931   .     S
O1051  Zn1126  1.931   .     S
O1052  Zn1131  1.935   .     S
O1053  Zn1132  1.935   .     S
O1054  Zn1129  1.931   .     S
O1055  Zn1130  1.931   .     S
O1056  Zn1515  1.933   .     S
O1057  Zn1134  1.933   .     S
O1058  Zn377   1.933   1_565 S
O1059  Zn1520  1.944   1_455 S
O1059  Zn1139  1.942   .     S
O1059  Zn1135  1.940   .     S
O1059  Zn1129  1.944   .     S
O1060  Zn1136  1.933   .     S
O1061  Zn1139  1.933   .     S
O1062  Zn1518  1.933   .     S
O1063  Zn1133  1.934   .     S
O1064  Zn365   1.934   1_565 S
O1065  Zn1514  1.935   .     S
O1066  Zn1135  1.935   .     S
O1067  Zn1125  1.931   .     S
O1068  Zn373   1.931   1_565 S
O1069  Zn1138  1.935   .     S
O1070  Zn1132  1.937   .     S
O1070  C105    1.276   1_565 S
O1071  Zn1519  1.935   .     S
O1072  Zn376   1.931   1_565 S
O1073  Zn1137  1.931   .     S
O1081  Zn1131  1.937   .     S
O1092  Zn1126  1.938   .     S
O1103  Zn1140  1.938   .     S
O1103  C1248   1.278   .     A
O1114  Zn1128  1.938   .     S
Zn1127 O277    1.940   1_565 S
Zn1130 O1428   1.944   .     S
Zn1132 O233    1.942   1_565 S
Zn1134 O1445   1.935   1_455 S
Zn1135 O1436   1.933   1_455 S
Zn1138 O1442   1.933   1_455 S
Zn1139 O1451   1.935   1_455 S
Zn1140 O1439   1.944   .     S
C1141  C1218   1.400   .     A
C1141  C1236   1.399   .     A
C1141  H1309   1.084   .     S
C1142  H1310   1.084   .     S
C1142  C1228   1.400   .     A
C1142  C861    1.399   1_655 S
C1143  C1284   1.411   .     A
C1143  C1255   1.453   .     S
C1143  C1291   1.410   .     A
C1144  C1294   1.411   .     A
C1144  C1256   1.455   .     S
C1144  C1283   1.411   .     A
C1145  C1282   1.410   .     A
C1145  C1257   1.455   .     S
C1145  C1293   1.412   .     A
C1146  C1281   1.409   .     A
C1146  C1296   1.410   .     A
C1146  C1258   1.454   .     S
C1147  C1259   1.453   .     S
C1147  C1280   1.411   .     A
C1147  C1295   1.410   .     A
C1148  C1269   1.453   .     S
C1148  C1299   1.411   .     A
C1148  C1279   1.410   .     A
C1149  C1278   1.411   .     A
C1149  C1270   1.453   .     S
C1149  C1297   1.410   .     A
C1150  C1262   1.455   .     S
C1150  C1277   1.412   .     A
C1150  C1301   1.410   .     A
C1151  C1300   1.411   .     A
C1151  C1275   1.411   .     A
C1151  C1263   1.455   .     S
C1152  C1303   1.411   .     A
C1152  C1264   1.453   .     S
C1152  C1274   1.410   .     A
C1153  H1311   1.084   .     S
C1153  C1242   1.399   .     A
C1153  C1229   1.399   .     A
C1154  C1266   1.453   .     S
C1154  C1273   1.411   .     A
C1154  C1302   1.410   .     A
C1155  C1272   1.412   .     A
C1155  C1267   1.455   .     S
C1155  C1305   1.410   .     A
C1156  C1304   1.411   .     A
C1156  C1271   1.411   .     A
C1156  C1268   1.455   .     S
C1157  C1218   1.416   .     A
C1157  C1252   1.461   .     S
C1158  C1224   1.417   .     A
C1158  C1251   1.462   .     S
C1159  C1225   1.417   .     A
C1159  C1250   1.461   .     S
C1159  C840    1.416   1_655 S
C1160  C1226   1.416   .     A
C1160  C1249   1.460   .     S
C1160  C842    1.415   1_655 S
C1161  C868    1.462   1_655 S
C1161  C1227   1.417   .     A
C1161  C851    1.417   1_655 S
C1162  C1247   1.461   .     S
C1162  C1233   1.416   .     A
C1163  C1246   1.460   .     S
C1163  C1229   1.415   .     A
C1163  C474    1.416   1_565 S
C1164  C1230   1.399   .     A
C1164  H1312   1.084   .     S
C1165  C1235   1.417   .     A
C1165  C470    1.416   1_565 S
C1165  C485    1.461   1_565 S
C1166  O1454   1.220   .     D
C1166  O1455   1.398   .     S
C1166  C1271   1.490   .     S
C1167  O1457   1.397   .     S
C1167  C1272   1.487   .     S
C1167  O1456   1.220   .     D
C1168  C1273   1.492   .     S
C1168  O1459   1.398   .     S
C1168  O1458   1.221   .     D
C1169  C1274   1.491   .     S
C1169  O1462   1.398   .     S
C1169  O1460   1.221   .     D
C1170  O1464   1.398   .     S
C1170  C1275   1.492   .     S
C1170  O1463   1.221   .     D
C1171  C1277   1.487   .     S
C1171  O1465   1.220   .     D
C1171  O1466   1.397   .     S
C1172  O1468   1.398   .     S
C1172  C1278   1.489   .     S
C1172  O1467   1.221   .     D
C1173  O1470   1.398   .     S
C1173  C1279   1.491   .     S
C1173  O1469   1.221   .     D
C1174  C1280   1.488   .     S
C1174  O1471   1.221   .     D
C1174  O1473   1.397   .     S
C1175  H1313   1.084   .     S
C1175  C1231   1.400   .     A
C1176  O1475   1.397   .     S
C1176  C1281   1.488   .     S
C1176  O1474   1.220   .     D
C1177  C1282   1.493   .     S
C1177  O1477   1.398   .     S
C1177  O1476   1.221   .     D
C1178  O1478   1.221   .     D
C1178  C1283   1.491   .     S
C1178  O1479   1.398   .     S
C1179  C1284   1.488   .     S
C1179  O1481   1.397   .     S
C1179  O1480   1.221   .     D
C1180  C1285   1.491   .     S
C1180  O1482   1.221   .     D
C1180  O1484   1.398   .     S
C1181  C1286   1.493   .     S
C1181  O1486   1.398   .     S
C1181  O1485   1.221   .     D
C1182  O1487   1.221   .     D
C1182  C1288   1.489   .     S
C1182  O1488   1.397   .     S
C1183  O1489   1.220   .     D
C1183  O1490   1.397   .     S
C1183  C1289   1.487   .     S
C1184  C1290   1.490   .     S
C1184  O1491   1.220   .     D
C1184  O1492   1.398   .     S
C1185  C1291   1.491   .     S
C1185  O1493   1.221   .     D
C1185  O1495   1.398   .     S
C1186  H1314   1.084   .     S
C1186  C1241   1.399   .     A
C1186  C1233   1.399   .     A
C1187  C1292   1.492   .     S
C1187  O1497   1.398   .     S
C1187  O1496   1.221   .     D
C1188  C1293   1.487   .     S
C1188  O1498   1.220   .     D
C1188  O1499   1.397   .     S
C1189  O1501   1.398   .     S
C1189  C1294   1.492   .     S
C1189  O1500   1.221   .     D
C1190  C1295   1.491   .     S
C1190  O1503   1.398   .     S
C1190  O1502   1.221   .     D
C1191  O1375   1.397   .     S
C1191  O1504   1.220   .     D
C1191  C1296   1.486   .     S
C1192  C1297   1.492   .     S
C1192  O1376   1.221   .     D
C1192  O1377   1.398   .     S
C1193  O1379   1.397   .     S
C1193  C1299   1.488   .     S
C1193  O1378   1.221   .     D
C1194  O1381   1.398   .     S
C1194  C1300   1.491   .     S
C1194  O1380   1.221   .     D
C1195  O1382   1.221   .     D
C1195  C1301   1.493   .     S
C1195  O1383   1.398   .     S
C1196  C1302   1.491   .     S
C1196  O1384   1.221   .     D
C1196  O1386   1.398   .     S
C1197  H1315   1.084   .     S
C1197  C1234   1.400   .     A
C1198  O1387   1.221   .     D
C1198  C1303   1.488   .     S
C1198  O1388   1.397   .     S
C1199  C1304   1.490   .     S
C1199  O1390   1.397   .     S
C1199  O1389   1.221   .     D
C1200  C1305   1.493   .     S
C1200  O1391   1.221   .     D
C1200  O1392   1.398   .     S
C1201  O1393   1.221   .     D
C1201  H1352   1.084   .     S
C1201  C1218   1.489   .     S
C1202  H1354   1.084   .     S
C1202  C1219   1.490   .     S
C1202  O1394   1.221   .     D
C1203  C1220   1.489   .     S
C1203  H1355   1.084   .     S
C1203  O1395   1.221   .     D
C1204  O1397   1.221   .     D
C1204  H1356   1.084   .     S
C1204  C1222   1.489   .     S
C1205  H1357   1.083   .     S
C1205  O1398   1.221   .     D
C1205  C1223   1.488   .     S
C1206  H1358   1.084   .     S
C1206  O1399   1.221   .     D
C1206  C1224   1.489   .     S
C1207  O1400   1.221   .     D
C1207  C1225   1.490   .     S
C1207  H1359   1.084   .     S
C1208  H1316   1.084   .     S
C1208  C1235   1.400   .     A
C1208  C1244   1.399   .     A
C1209  O1401   1.221   .     D
C1209  H1360   1.084   .     S
C1209  C1226   1.488   .     S
C1210  H1361   1.084   .     S
C1210  C1227   1.490   .     S
C1210  O1402   1.221   .     D
C1211  C1228   1.489   .     S
C1211  H1362   1.084   .     S
C1211  O1403   1.221   .     D
C1212  H1363   1.084   .     S
C1212  O1404   1.221   .     D
C1212  C1229   1.489   .     S
C1213  C1230   1.489   .     S
C1213  O1405   1.221   .     D
C1213  H1365   1.084   .     S
C1214  H1366   1.084   .     S
C1214  C1231   1.490   .     S
C1214  O1406   1.221   .     D
C1215  C1233   1.488   .     S
C1215  H1367   1.083   .     S
C1215  O1408   1.221   .     D
C1216  H1368   1.084   .     S
C1216  C1234   1.488   .     S
C1216  O1409   1.221   .     D
C1217  H1369   1.084   .     S
C1217  C1235   1.490   .     S
C1217  O1410   1.221   .     D
C1219  C1221   1.399   .     A
C1219  C398    1.417   1_565 S
C1220  C1232   1.399   .     A
C1221  H1320   1.084   .     S
C1221  C477    1.399   1_565 S
C1222  C1243   1.399   .     A
C1223  C1254   1.399   .     A
C1223  C397    1.416   1_565 S
C1224  C1265   1.400   .     A
C1225  C1276   1.400   .     A
C1226  C1287   1.400   .     A
C1227  C1298   1.400   .     A
C1228  C782    1.416   1_655 S
C1232  H1331   1.084   .     S
C1236  C1237   1.472   1_554 S
C1237  C1265   1.399   .     A
C1237  C1236   1.472   1_556 S
C1238  C1276   1.399   .     A
C1238  C852    1.399   1_655 S
C1238  C1239   1.473   1_554 S
C1239  C1287   1.399   .     A
C1239  C1238   1.473   1_556 S
C1239  C863    1.399   1_655 S
C1240  C1298   1.399   .     A
C1240  C795    1.399   1_655 S
C1240  C861    1.472   1_655 S
C1242  C1244   1.473   .     S
C1242  C437    1.399   1_565 S
C1243  H1342   1.084   .     S
C1244  C404    1.399   1_565 S
C1245  O1494   1.277   .     A
C1246  O1374   1.276   .     A
C1246  O701    1.276   1_565 S
C1247  O1472   1.278   .     A
C1248  O1396   1.279   .     S
C1249  O1027   1.276   1_655 S
C1249  O1034   1.276   1_655 S
C1250  O1031   1.276   1_655 S
C1250  O1035   1.277   1_655 S
C1251  O1412   1.278   .     S
C1251  O1416   1.279   .     S
C1252  O1413   1.278   .     S
C1252  O1418   1.278   .     S
C1253  C1308   1.453   .     S
C1253  O1419   1.277   .     A
C1253  O1447   1.273   .     A
C1254  H1353   1.084   .     S
C1254  C476    1.399   1_565 S
C1255  O1448   1.273   .     A
C1255  O1420   1.278   .     A
C1256  O1445   1.273   .     A
C1256  O1421   1.277   .     A
C1257  O1422   1.278   .     A
C1257  O1446   1.273   .     A
C1258  O1423   1.276   .     A
C1258  O1452   1.276   .     A
C1259  O1424   1.278   .     A
C1259  O1453   1.273   .     A
C1260  O1449   1.274   .     A
C1260  C1306   1.456   .     S
C1260  O1425   1.278   .     A
C1261  O1426   1.278   .     A
C1261  C1307   1.455   .     S
C1261  O1451   1.273   .     A
C1262  O1427   1.273   .     A
C1262  O1438   1.278   .     A
C1263  O1429   1.273   .     A
C1263  O1440   1.277   .     A
C1264  O1430   1.273   .     A
C1264  O1436   1.278   .     A
C1265  H1364   1.084   .     S
C1266  O1437   1.277   .     A
C1266  O1431   1.273   .     A
C1267  O1432   1.273   .     A
C1267  O1443   1.278   .     A
C1268  O1433   1.273   .     A
C1268  O1444   1.278   .     A
C1269  O1441   1.278   .     A
C1269  O1434   1.273   .     A
C1270  O1435   1.275   .     A
C1270  O1442   1.276   .     A
C1271  C1288   1.404   .     A
C1272  C1286   1.403   .     A
C1273  C1285   1.406   .     A
C1274  C1284   1.404   .     A
C1275  C1283   1.406   .     A
C1276  H1370   1.084   .     S
C1277  C1282   1.403   .     A
C1278  C1281   1.403   .     A
C1279  C1280   1.404   .     A
C1285  C1308   1.410   .     A
C1286  C1307   1.410   .     A
C1287  H1371   1.084   .     S
C1288  C1306   1.410   .     A
C1289  C1305   1.403   .     A
C1289  C1307   1.412   .     A
C1290  C1306   1.411   .     A
C1290  C1304   1.405   .     A
C1291  C1303   1.404   .     A
C1292  C1308   1.411   .     A
C1292  C1302   1.406   .     A
C1293  C1301   1.403   .     A
C1294  C1300   1.406   .     A
C1295  C1299   1.404   .     A
C1296  C1297   1.403   .     A
C1298  H1372   1.084   .     S
H1317  O1455   1.013   .     S
H1318  O1457   1.014   .     S
H1319  O1459   1.013   .     S
H1321  O1462   1.013   .     S
H1322  O1464   1.013   .     S
H1323  O1466   1.013   .     S
H1324  O1468   1.013   .     S
H1325  O1470   1.013   .     S
H1326  O1473   1.013   .     S
H1327  O1475   1.013   .     S
H1328  O1477   1.013   .     S
H1329  O1479   1.013   .     S
H1330  O1481   1.013   .     S
H1332  O1484   1.013   .     S
H1333  O1486   1.013   .     S
H1334  O1488   1.013   .     S
H1335  O1490   1.013   .     S
H1336  O1492   1.013   .     S
H1337  O1495   1.013   .     S
H1338  O1497   1.013   .     S
H1339  O1499   1.013   .     S
H1340  O1501   1.013   .     S
H1341  O1503   1.013   .     S
H1343  O1375   1.013   .     S
H1344  O1377   1.013   .     S
H1345  O1379   1.013   .     S
H1346  O1381   1.013   .     S
H1347  O1383   1.013   .     S
H1348  O1386   1.013   .     S
H1349  O1388   1.013   .     S
H1350  O1390   1.012   .     S
H1351  O1392   1.013   .     S
O1373  Zn1505  1.944   .     S
O1373  Zn1508  1.940   .     S
O1373  Zn1516  1.944   .     S
O1374  Zn1507  1.938   .     S
O1385  Zn1510  1.938   .     S
O1385  C867    1.278   1_655 S
O1396  Zn1509  1.938   .     S
O1407  Zn1519  1.937   .     S
O1411  Zn1518  1.937   .     S
O1412  Zn1513  1.938   .     S
O1413  Zn1505  1.938   .     S
O1414  Zn1515  1.938   .     S
O1415  Zn1514  1.938   .     S
O1416  Zn1517  1.938   .     S
O1417  Zn1517  1.944   .     S
O1417  Zn1513  1.944   .     S
O1417  Zn1511  1.942   .     S
O1418  Zn1516  1.938   .     S
O1419  Zn1508  1.933   .     S
O1420  Zn1507  1.933   .     S
O1421  Zn1510  1.933   .     S
O1422  Zn1509  1.933   .     S
O1423  Zn1512  1.933   .     S
O1424  Zn1511  1.933   .     S
O1425  Zn1506  1.934   .     S
O1426  Zn1520  1.934   .     S
O1427  Zn1507  1.935   .     S
O1428  Zn1506  1.944   .     S
O1428  Zn1514  1.940   .     S
O1428  Zn1518  1.942   .     S
O1429  Zn1508  1.935   .     S
O1430  Zn1520  1.931   .     S
O1431  Zn1506  1.931   .     S
O1432  Zn1511  1.935   .     S
O1433  Zn1512  1.935   .     S
O1434  Zn1509  1.931   .     S
O1435  Zn1510  1.931   .     S
O1436  Zn1135  1.933   1_655 S
O1437  Zn1514  1.933   .     S
O1438  Zn757   1.933   1_565 S
O1439  Zn1519  1.942   .     S
O1439  Zn1515  1.940   .     S
O1439  Zn1509  1.944   .     S
O1440  Zn1516  1.933   .     S
O1441  Zn1519  1.933   .     S
O1442  Zn1138  1.933   1_655 S
O1443  Zn1513  1.934   .     S
O1444  Zn745   1.934   1_565 S
O1445  Zn1134  1.935   1_655 S
O1446  Zn1515  1.935   .     S
O1447  Zn1505  1.931   .     S
O1448  Zn753   1.931   1_565 S
O1449  Zn1518  1.935   .     S
O1450  Zn1512  1.937   .     S
O1450  C485    1.276   1_565 S
O1451  Zn1139  1.935   1_655 S
O1452  Zn756   1.931   1_565 S
O1453  Zn1517  1.931   .     S
O1461  Zn1511  1.937   .     S
O1472  Zn1506  1.938   .     S
O1483  Zn1520  1.938   .     S
O1483  C868    1.278   1_655 A
O1494  Zn1508  1.938   .     S
Zn1507 O657    1.940   1_565 S
Zn1510 O1048   1.944   1_655 S
Zn1512 O613    1.942   1_565 S
Zn1520 O1059   1.944   1_655 S
