data_str_m3_o1_o10_pcu_sym.23
_audit_creation_date              2020-01-03
_audit_creation_method            'Materials Studio'
_symmetry_space_group_name_H-M    'P1'
_symmetry_Int_Tables_number       1
_symmetry_cell_setting            triclinic
loop_
_symmetry_equiv_pos_as_xyz
  x,y,z
_cell_length_a                    25.7415
_cell_length_b                    31.8371
_cell_length_c                    29.6995
_cell_angle_alpha                 89.5178
_cell_angle_beta                  98.4561
_cell_angle_gamma                 90.7442
loop_
_atom_site_label
_atom_site_type_symbol
_atom_site_fract_x
_atom_site_fract_y
_atom_site_fract_z
_atom_site_U_iso_or_equiv
_atom_site_adp_type
_atom_site_occupancy
C1     C     0.16693   0.08683   0.16683   0.00000  Uiso   1.00
C2     C     0.12337   0.02137   0.17850   0.00000  Uiso   1.00
C3     C     0.16598   0.29062   0.16623   0.00000  Uiso   1.00
C4     C     0.16735   0.04271   0.16710   0.00000  Uiso   1.00
C5     C     0.19947   0.19299   0.02753   0.00000  Uiso   1.00
C6     C     0.13387   0.14034   0.30580   0.00000  Uiso   1.00
C7     C     0.19938   0.19289   0.31306   0.00000  Uiso   1.00
C8     C     0.13396   0.14044   0.02027   0.00000  Uiso   1.00
C9     C     0.16640   0.24651   0.16651   0.00000  Uiso   1.00
C10    C     0.06712   0.16656   0.15476   0.00000  Uiso   1.00
C11    C     0.26622   0.16677   0.17857   0.00000  Uiso   1.00
C12    C     0.01207   0.16631   0.14838   0.00000  Uiso   1.00
C13    C     0.32126   0.16702   0.18496   0.00000  Uiso   1.00
C14    C     0.21084   0.02187   0.15519   0.00000  Uiso   1.00
C15    C     0.12249   0.31146   0.17814   0.00000  Uiso   1.00
C16    C     0.20996   0.31197   0.15484   0.00000  Uiso   1.00
Cl17   Cl    0.26706   0.04908   0.14216   0.00000  Uiso   1.00
Cl18   Cl    0.06626   0.28426   0.19117   0.00000  Uiso   1.00
Cl19   Cl    0.24253   0.22768   0.06053   0.00000  Uiso   1.00
Cl20   Cl    0.09080   0.10566   0.27281   0.00000  Uiso   1.00
F21    F     0.25216   0.29068   0.14472   0.00000  Uiso   1.00
F22    F     0.08117   0.04265   0.18861   0.00000  Uiso   1.00
F23    F     0.23214   0.21912   0.29412   0.00000  Uiso   1.00
F24    F     0.10119   0.11421   0.03921   0.00000  Uiso   1.00
H25    H     0.32490   0.16544   0.11365   0.00000  Uiso   1.00
H26    H     0.00844   0.16789   0.21969   0.00000  Uiso   1.00
N27    N     0.16665   0.16666   0.28573   0.00000  Uiso   1.00
N28    N     0.16668   0.16668   0.04760   0.00000  Uiso   1.00
O29    O     0.16666   0.10558   0.20487   0.00000  Uiso   1.00
O30    O     0.16667   0.22775   0.12846   0.00000  Uiso   1.00
O31    O     0.16666   0.10559   0.12843   0.00000  Uiso   1.00
O32    O     0.16667   0.22774   0.20490   0.00000  Uiso   1.00
O33    O     0.09058   0.16666   0.19595   0.00000  Uiso   1.00
O34    O     0.24275   0.16667   0.13739   0.00000  Uiso   1.00
O35    O     0.09058   0.16667   0.11950   0.00000  Uiso   1.00
O36    O     0.24275   0.16666   0.21383   0.00000  Uiso   1.00
Zn37   Zn    0.16667   0.16666   0.21771   0.00000  Uiso   1.00
Zn38   Zn    0.16667   0.16667   0.11563   0.00000  Uiso   1.00
C39    C     0.50027   0.08683   0.16683   0.00000  Uiso   1.00
C40    C     0.45671   0.02137   0.17850   0.00000  Uiso   1.00
C41    C     0.49931   0.29062   0.16623   0.00000  Uiso   1.00
C42    C     0.50069   0.04271   0.16710   0.00000  Uiso   1.00
C43    C     0.53280   0.19299   0.02753   0.00000  Uiso   1.00
C44    C     0.46720   0.14034   0.30580   0.00000  Uiso   1.00
C45    C     0.53271   0.19289   0.31306   0.00000  Uiso   1.00
C46    C     0.46729   0.14044   0.02027   0.00000  Uiso   1.00
C47    C     0.49973   0.24651   0.16651   0.00000  Uiso   1.00
C48    C     0.40045   0.16656   0.15476   0.00000  Uiso   1.00
C49    C     0.59955   0.16677   0.17857   0.00000  Uiso   1.00
C50    C     0.34540   0.16631   0.14838   0.00000  Uiso   1.00
C51    C     0.65460   0.16702   0.18496   0.00000  Uiso   1.00
C52    C     0.54418   0.02187   0.15519   0.00000  Uiso   1.00
C53    C     0.45582   0.31146   0.17814   0.00000  Uiso   1.00
C54    C     0.54329   0.31197   0.15484   0.00000  Uiso   1.00
Cl55   Cl    0.60040   0.04908   0.14216   0.00000  Uiso   1.00
Cl56   Cl    0.39960   0.28426   0.19117   0.00000  Uiso   1.00
Cl57   Cl    0.57587   0.22768   0.06053   0.00000  Uiso   1.00
Cl58   Cl    0.42413   0.10566   0.27281   0.00000  Uiso   1.00
F59    F     0.58549   0.29068   0.14472   0.00000  Uiso   1.00
F60    F     0.41451   0.04265   0.18861   0.00000  Uiso   1.00
F61    F     0.56548   0.21912   0.29412   0.00000  Uiso   1.00
F62    F     0.43452   0.11421   0.03921   0.00000  Uiso   1.00
H63    H     0.65823   0.16544   0.11365   0.00000  Uiso   1.00
H64    H     0.34177   0.16789   0.21969   0.00000  Uiso   1.00
N65    N     0.49999   0.16666   0.28573   0.00000  Uiso   1.00
N66    N     0.50001   0.16668   0.04760   0.00000  Uiso   1.00
O67    O     0.50000   0.10558   0.20487   0.00000  Uiso   1.00
O68    O     0.50000   0.22775   0.12846   0.00000  Uiso   1.00
O69    O     0.50000   0.10559   0.12843   0.00000  Uiso   1.00
O70    O     0.50000   0.22774   0.20490   0.00000  Uiso   1.00
O71    O     0.42392   0.16666   0.19595   0.00000  Uiso   1.00
O72    O     0.57608   0.16667   0.13739   0.00000  Uiso   1.00
O73    O     0.42392   0.16667   0.11950   0.00000  Uiso   1.00
O74    O     0.57608   0.16666   0.21383   0.00000  Uiso   1.00
Zn75   Zn    0.50000   0.16666   0.21771   0.00000  Uiso   1.00
Zn76   Zn    0.50000   0.16667   0.11563   0.00000  Uiso   1.00
C77    C     0.83360   0.08683   0.16683   0.00000  Uiso   1.00
C78    C     0.79004   0.02137   0.17850   0.00000  Uiso   1.00
C79    C     0.83265   0.29062   0.16623   0.00000  Uiso   1.00
C80    C     0.83402   0.04271   0.16710   0.00000  Uiso   1.00
C81    C     0.86613   0.19299   0.02753   0.00000  Uiso   1.00
C82    C     0.80053   0.14034   0.30580   0.00000  Uiso   1.00
C83    C     0.86604   0.19289   0.31306   0.00000  Uiso   1.00
C84    C     0.80062   0.14044   0.02027   0.00000  Uiso   1.00
C85    C     0.83307   0.24651   0.16651   0.00000  Uiso   1.00
C86    C     0.73378   0.16656   0.15476   0.00000  Uiso   1.00
C87    C     0.93288   0.16677   0.17857   0.00000  Uiso   1.00
C88    C     0.67874   0.16631   0.14838   0.00000  Uiso   1.00
C89    C     0.98793   0.16702   0.18496   0.00000  Uiso   1.00
C90    C     0.87751   0.02187   0.15519   0.00000  Uiso   1.00
C91    C     0.78916   0.31146   0.17814   0.00000  Uiso   1.00
C92    C     0.87663   0.31197   0.15484   0.00000  Uiso   1.00
Cl93   Cl    0.93373   0.04908   0.14216   0.00000  Uiso   1.00
Cl94   Cl    0.73293   0.28426   0.19117   0.00000  Uiso   1.00
Cl95   Cl    0.90920   0.22768   0.06053   0.00000  Uiso   1.00
Cl96   Cl    0.75747   0.10566   0.27281   0.00000  Uiso   1.00
F97    F     0.91883   0.29068   0.14472   0.00000  Uiso   1.00
F98    F     0.74784   0.04265   0.18861   0.00000  Uiso   1.00
F99    F     0.89881   0.21912   0.29412   0.00000  Uiso   1.00
F100   F     0.76786   0.11421   0.03921   0.00000  Uiso   1.00
H101   H     0.99156   0.16544   0.11365   0.00000  Uiso   1.00
H102   H     0.67510   0.16789   0.21969   0.00000  Uiso   1.00
N103   N     0.83332   0.16666   0.28573   0.00000  Uiso   1.00
N104   N     0.83335   0.16668   0.04760   0.00000  Uiso   1.00
O105   O     0.83333   0.10558   0.20487   0.00000  Uiso   1.00
O106   O     0.83334   0.22775   0.12846   0.00000  Uiso   1.00
O107   O     0.83333   0.10559   0.12843   0.00000  Uiso   1.00
O108   O     0.83334   0.22774   0.20490   0.00000  Uiso   1.00
O109   O     0.75725   0.16666   0.19595   0.00000  Uiso   1.00
O110   O     0.90942   0.16667   0.13739   0.00000  Uiso   1.00
O111   O     0.75725   0.16667   0.11950   0.00000  Uiso   1.00
O112   O     0.90942   0.16666   0.21383   0.00000  Uiso   1.00
Zn113  Zn    0.83333   0.16666   0.21771   0.00000  Uiso   1.00
Zn114  Zn    0.83333   0.16667   0.11563   0.00000  Uiso   1.00
C115   C     0.16693   0.42016   0.16683   0.00000  Uiso   1.00
C116   C     0.12337   0.35470   0.17850   0.00000  Uiso   1.00
C117   C     0.16598   0.62396   0.16623   0.00000  Uiso   1.00
C118   C     0.16735   0.37604   0.16710   0.00000  Uiso   1.00
C119   C     0.19947   0.52632   0.02753   0.00000  Uiso   1.00
C120   C     0.13387   0.47368   0.30580   0.00000  Uiso   1.00
C121   C     0.19938   0.52622   0.31306   0.00000  Uiso   1.00
C122   C     0.13396   0.47378   0.02027   0.00000  Uiso   1.00
C123   C     0.16640   0.57984   0.16651   0.00000  Uiso   1.00
C124   C     0.06712   0.49990   0.15476   0.00000  Uiso   1.00
C125   C     0.26622   0.50010   0.17857   0.00000  Uiso   1.00
C126   C     0.01207   0.49964   0.14838   0.00000  Uiso   1.00
C127   C     0.32126   0.50035   0.18496   0.00000  Uiso   1.00
C128   C     0.21084   0.35520   0.15519   0.00000  Uiso   1.00
C129   C     0.12249   0.64480   0.17814   0.00000  Uiso   1.00
C130   C     0.20996   0.64530   0.15484   0.00000  Uiso   1.00
Cl131  Cl    0.26706   0.38241   0.14216   0.00000  Uiso   1.00
Cl132  Cl    0.06626   0.61759   0.19117   0.00000  Uiso   1.00
Cl133  Cl    0.24253   0.56101   0.06053   0.00000  Uiso   1.00
Cl134  Cl    0.09080   0.43899   0.27281   0.00000  Uiso   1.00
F135   F     0.25216   0.62401   0.14472   0.00000  Uiso   1.00
F136   F     0.08117   0.37599   0.18861   0.00000  Uiso   1.00
F137   F     0.23214   0.55245   0.29412   0.00000  Uiso   1.00
F138   F     0.10119   0.44755   0.03921   0.00000  Uiso   1.00
H139   H     0.32490   0.49878   0.11365   0.00000  Uiso   1.00
H140   H     0.00844   0.50122   0.21969   0.00000  Uiso   1.00
N141   N     0.16665   0.49999   0.28573   0.00000  Uiso   1.00
N142   N     0.16668   0.50001   0.04760   0.00000  Uiso   1.00
O143   O     0.16666   0.43892   0.20487   0.00000  Uiso   1.00
O144   O     0.16667   0.56108   0.12846   0.00000  Uiso   1.00
O145   O     0.16666   0.43893   0.12843   0.00000  Uiso   1.00
O146   O     0.16667   0.56107   0.20490   0.00000  Uiso   1.00
O147   O     0.09058   0.50000   0.19595   0.00000  Uiso   1.00
O148   O     0.24275   0.50000   0.13739   0.00000  Uiso   1.00
O149   O     0.09058   0.50000   0.11950   0.00000  Uiso   1.00
O150   O     0.24275   0.50000   0.21383   0.00000  Uiso   1.00
Zn151  Zn    0.16667   0.49999   0.21771   0.00000  Uiso   1.00
Zn152  Zn    0.16667   0.50001   0.11563   0.00000  Uiso   1.00
C153   C     0.50027   0.42016   0.16683   0.00000  Uiso   1.00
C154   C     0.45671   0.35470   0.17850   0.00000  Uiso   1.00
C155   C     0.49931   0.62396   0.16623   0.00000  Uiso   1.00
C156   C     0.50069   0.37604   0.16710   0.00000  Uiso   1.00
C157   C     0.53280   0.52632   0.02753   0.00000  Uiso   1.00
C158   C     0.46720   0.47368   0.30580   0.00000  Uiso   1.00
C159   C     0.53271   0.52622   0.31306   0.00000  Uiso   1.00
C160   C     0.46729   0.47378   0.02027   0.00000  Uiso   1.00
C161   C     0.49973   0.57984   0.16651   0.00000  Uiso   1.00
C162   C     0.40045   0.49990   0.15476   0.00000  Uiso   1.00
C163   C     0.59955   0.50010   0.17857   0.00000  Uiso   1.00
C164   C     0.34540   0.49964   0.14838   0.00000  Uiso   1.00
C165   C     0.65460   0.50035   0.18496   0.00000  Uiso   1.00
C166   C     0.54418   0.35520   0.15519   0.00000  Uiso   1.00
C167   C     0.45582   0.64480   0.17814   0.00000  Uiso   1.00
C168   C     0.54329   0.64530   0.15484   0.00000  Uiso   1.00
Cl169  Cl    0.60040   0.38241   0.14216   0.00000  Uiso   1.00
Cl170  Cl    0.39960   0.61759   0.19117   0.00000  Uiso   1.00
Cl171  Cl    0.57587   0.56101   0.06053   0.00000  Uiso   1.00
Cl172  Cl    0.42413   0.43899   0.27281   0.00000  Uiso   1.00
F173   F     0.58549   0.62401   0.14472   0.00000  Uiso   1.00
F174   F     0.41451   0.37599   0.18861   0.00000  Uiso   1.00
F175   F     0.56548   0.55245   0.29412   0.00000  Uiso   1.00
F176   F     0.43452   0.44755   0.03921   0.00000  Uiso   1.00
H177   H     0.65823   0.49878   0.11365   0.00000  Uiso   1.00
H178   H     0.34177   0.50122   0.21969   0.00000  Uiso   1.00
N179   N     0.49999   0.49999   0.28573   0.00000  Uiso   1.00
N180   N     0.50001   0.50001   0.04760   0.00000  Uiso   1.00
O181   O     0.50000   0.43892   0.20487   0.00000  Uiso   1.00
O182   O     0.50000   0.56108   0.12846   0.00000  Uiso   1.00
O183   O     0.50000   0.43893   0.12843   0.00000  Uiso   1.00
O184   O     0.50000   0.56107   0.20490   0.00000  Uiso   1.00
O185   O     0.42392   0.50000   0.19595   0.00000  Uiso   1.00
O186   O     0.57608   0.50000   0.13739   0.00000  Uiso   1.00
O187   O     0.42392   0.50000   0.11950   0.00000  Uiso   1.00
O188   O     0.57608   0.50000   0.21383   0.00000  Uiso   1.00
Zn189  Zn    0.50000   0.49999   0.21771   0.00000  Uiso   1.00
Zn190  Zn    0.50000   0.50001   0.11563   0.00000  Uiso   1.00
C191   C     0.83360   0.42016   0.16683   0.00000  Uiso   1.00
C192   C     0.79004   0.35470   0.17850   0.00000  Uiso   1.00
C193   C     0.83265   0.62396   0.16623   0.00000  Uiso   1.00
C194   C     0.83402   0.37604   0.16710   0.00000  Uiso   1.00
C195   C     0.86613   0.52632   0.02753   0.00000  Uiso   1.00
C196   C     0.80053   0.47368   0.30580   0.00000  Uiso   1.00
C197   C     0.86604   0.52622   0.31306   0.00000  Uiso   1.00
C198   C     0.80062   0.47378   0.02027   0.00000  Uiso   1.00
C199   C     0.83307   0.57984   0.16651   0.00000  Uiso   1.00
C200   C     0.73378   0.49990   0.15476   0.00000  Uiso   1.00
C201   C     0.93288   0.50010   0.17857   0.00000  Uiso   1.00
C202   C     0.67874   0.49964   0.14838   0.00000  Uiso   1.00
C203   C     0.98793   0.50035   0.18496   0.00000  Uiso   1.00
C204   C     0.87751   0.35520   0.15519   0.00000  Uiso   1.00
C205   C     0.78916   0.64480   0.17814   0.00000  Uiso   1.00
C206   C     0.87663   0.64530   0.15484   0.00000  Uiso   1.00
Cl207  Cl    0.93373   0.38241   0.14216   0.00000  Uiso   1.00
Cl208  Cl    0.73293   0.61759   0.19117   0.00000  Uiso   1.00
Cl209  Cl    0.90920   0.56101   0.06053   0.00000  Uiso   1.00
Cl210  Cl    0.75747   0.43899   0.27281   0.00000  Uiso   1.00
F211   F     0.91883   0.62401   0.14472   0.00000  Uiso   1.00
F212   F     0.74784   0.37599   0.18861   0.00000  Uiso   1.00
F213   F     0.89881   0.55245   0.29412   0.00000  Uiso   1.00
F214   F     0.76786   0.44755   0.03921   0.00000  Uiso   1.00
H215   H     0.99156   0.49878   0.11365   0.00000  Uiso   1.00
H216   H     0.67510   0.50122   0.21969   0.00000  Uiso   1.00
N217   N     0.83332   0.49999   0.28573   0.00000  Uiso   1.00
N218   N     0.83335   0.50001   0.04760   0.00000  Uiso   1.00
O219   O     0.83333   0.43892   0.20487   0.00000  Uiso   1.00
O220   O     0.83334   0.56108   0.12846   0.00000  Uiso   1.00
O221   O     0.83333   0.43893   0.12843   0.00000  Uiso   1.00
O222   O     0.83334   0.56107   0.20490   0.00000  Uiso   1.00
O223   O     0.75725   0.50000   0.19595   0.00000  Uiso   1.00
O224   O     0.90942   0.50000   0.13739   0.00000  Uiso   1.00
O225   O     0.75725   0.50000   0.11950   0.00000  Uiso   1.00
O226   O     0.90942   0.50000   0.21383   0.00000  Uiso   1.00
Zn227  Zn    0.83333   0.49999   0.21771   0.00000  Uiso   1.00
Zn228  Zn    0.83333   0.50001   0.11563   0.00000  Uiso   1.00
C229   C     0.16693   0.75349   0.16683   0.00000  Uiso   1.00
C230   C     0.12337   0.68803   0.17850   0.00000  Uiso   1.00
C231   C     0.16598   0.95729   0.16623   0.00000  Uiso   1.00
C232   C     0.16735   0.70938   0.16710   0.00000  Uiso   1.00
C233   C     0.19947   0.85966   0.02753   0.00000  Uiso   1.00
C234   C     0.13387   0.80701   0.30580   0.00000  Uiso   1.00
C235   C     0.19938   0.85956   0.31306   0.00000  Uiso   1.00
C236   C     0.13396   0.80711   0.02027   0.00000  Uiso   1.00
C237   C     0.16640   0.91317   0.16651   0.00000  Uiso   1.00
C238   C     0.06712   0.83323   0.15476   0.00000  Uiso   1.00
C239   C     0.26622   0.83344   0.17857   0.00000  Uiso   1.00
C240   C     0.01207   0.83298   0.14838   0.00000  Uiso   1.00
C241   C     0.32126   0.83369   0.18496   0.00000  Uiso   1.00
C242   C     0.21084   0.68854   0.15519   0.00000  Uiso   1.00
C243   C     0.12249   0.97813   0.17814   0.00000  Uiso   1.00
C244   C     0.20996   0.97863   0.15484   0.00000  Uiso   1.00
Cl245  Cl    0.26706   0.71574   0.14216   0.00000  Uiso   1.00
Cl246  Cl    0.06626   0.95092   0.19117   0.00000  Uiso   1.00
Cl247  Cl    0.24253   0.89434   0.06053   0.00000  Uiso   1.00
Cl248  Cl    0.09080   0.77232   0.27281   0.00000  Uiso   1.00
F249   F     0.25216   0.95735   0.14472   0.00000  Uiso   1.00
F250   F     0.08117   0.70932   0.18861   0.00000  Uiso   1.00
F251   F     0.23214   0.88579   0.29412   0.00000  Uiso   1.00
F252   F     0.10119   0.78088   0.03921   0.00000  Uiso   1.00
H253   H     0.32490   0.83211   0.11365   0.00000  Uiso   1.00
H254   H     0.00844   0.83456   0.21969   0.00000  Uiso   1.00
N255   N     0.16665   0.83332   0.28573   0.00000  Uiso   1.00
N256   N     0.16668   0.83334   0.04760   0.00000  Uiso   1.00
O257   O     0.16666   0.77225   0.20487   0.00000  Uiso   1.00
O258   O     0.16667   0.89442   0.12846   0.00000  Uiso   1.00
O259   O     0.16666   0.77226   0.12843   0.00000  Uiso   1.00
O260   O     0.16667   0.89441   0.20490   0.00000  Uiso   1.00
O261   O     0.09058   0.83333   0.19595   0.00000  Uiso   1.00
O262   O     0.24275   0.83334   0.13739   0.00000  Uiso   1.00
O263   O     0.09058   0.83334   0.11950   0.00000  Uiso   1.00
O264   O     0.24275   0.83333   0.21383   0.00000  Uiso   1.00
Zn265  Zn    0.16667   0.83333   0.21771   0.00000  Uiso   1.00
Zn266  Zn    0.16667   0.83334   0.11563   0.00000  Uiso   1.00
C267   C     0.50027   0.75349   0.16683   0.00000  Uiso   1.00
C268   C     0.45671   0.68803   0.17850   0.00000  Uiso   1.00
C269   C     0.49931   0.95729   0.16623   0.00000  Uiso   1.00
C270   C     0.50069   0.70938   0.16710   0.00000  Uiso   1.00
C271   C     0.53280   0.85966   0.02753   0.00000  Uiso   1.00
C272   C     0.46720   0.80701   0.30580   0.00000  Uiso   1.00
C273   C     0.53271   0.85956   0.31306   0.00000  Uiso   1.00
C274   C     0.46729   0.80711   0.02027   0.00000  Uiso   1.00
C275   C     0.49973   0.91317   0.16651   0.00000  Uiso   1.00
C276   C     0.40045   0.83323   0.15476   0.00000  Uiso   1.00
C277   C     0.59955   0.83344   0.17857   0.00000  Uiso   1.00
C278   C     0.34540   0.83298   0.14838   0.00000  Uiso   1.00
C279   C     0.65460   0.83369   0.18496   0.00000  Uiso   1.00
C280   C     0.54418   0.68854   0.15519   0.00000  Uiso   1.00
C281   C     0.45582   0.97813   0.17814   0.00000  Uiso   1.00
C282   C     0.54329   0.97863   0.15484   0.00000  Uiso   1.00
Cl283  Cl    0.60040   0.71574   0.14216   0.00000  Uiso   1.00
Cl284  Cl    0.39960   0.95092   0.19117   0.00000  Uiso   1.00
Cl285  Cl    0.57587   0.89434   0.06053   0.00000  Uiso   1.00
Cl286  Cl    0.42413   0.77232   0.27281   0.00000  Uiso   1.00
F287   F     0.58549   0.95735   0.14472   0.00000  Uiso   1.00
F288   F     0.41451   0.70932   0.18861   0.00000  Uiso   1.00
F289   F     0.56548   0.88579   0.29412   0.00000  Uiso   1.00
F290   F     0.43452   0.78088   0.03921   0.00000  Uiso   1.00
H291   H     0.65823   0.83211   0.11365   0.00000  Uiso   1.00
H292   H     0.34177   0.83456   0.21969   0.00000  Uiso   1.00
N293   N     0.49999   0.83332   0.28573   0.00000  Uiso   1.00
N294   N     0.50001   0.83334   0.04760   0.00000  Uiso   1.00
O295   O     0.50000   0.77225   0.20487   0.00000  Uiso   1.00
O296   O     0.50000   0.89442   0.12846   0.00000  Uiso   1.00
O297   O     0.50000   0.77226   0.12843   0.00000  Uiso   1.00
O298   O     0.50000   0.89441   0.20490   0.00000  Uiso   1.00
O299   O     0.42392   0.83333   0.19595   0.00000  Uiso   1.00
O300   O     0.57608   0.83334   0.13739   0.00000  Uiso   1.00
O301   O     0.42392   0.83334   0.11950   0.00000  Uiso   1.00
O302   O     0.57608   0.83333   0.21383   0.00000  Uiso   1.00
Zn303  Zn    0.50000   0.83333   0.21771   0.00000  Uiso   1.00
Zn304  Zn    0.50000   0.83334   0.11563   0.00000  Uiso   1.00
C305   C     0.83360   0.75349   0.16683   0.00000  Uiso   1.00
C306   C     0.79004   0.68803   0.17850   0.00000  Uiso   1.00
C307   C     0.83265   0.95729   0.16623   0.00000  Uiso   1.00
C308   C     0.83402   0.70938   0.16710   0.00000  Uiso   1.00
C309   C     0.86613   0.85966   0.02753   0.00000  Uiso   1.00
C310   C     0.80053   0.80701   0.30580   0.00000  Uiso   1.00
C311   C     0.86604   0.85956   0.31306   0.00000  Uiso   1.00
C312   C     0.80062   0.80711   0.02027   0.00000  Uiso   1.00
C313   C     0.83307   0.91317   0.16651   0.00000  Uiso   1.00
C314   C     0.73378   0.83323   0.15476   0.00000  Uiso   1.00
C315   C     0.93288   0.83344   0.17857   0.00000  Uiso   1.00
C316   C     0.67874   0.83298   0.14838   0.00000  Uiso   1.00
C317   C     0.98793   0.83369   0.18496   0.00000  Uiso   1.00
C318   C     0.87751   0.68854   0.15519   0.00000  Uiso   1.00
C319   C     0.78916   0.97813   0.17814   0.00000  Uiso   1.00
C320   C     0.87663   0.97863   0.15484   0.00000  Uiso   1.00
Cl321  Cl    0.93373   0.71574   0.14216   0.00000  Uiso   1.00
Cl322  Cl    0.73293   0.95092   0.19117   0.00000  Uiso   1.00
Cl323  Cl    0.90920   0.89434   0.06053   0.00000  Uiso   1.00
Cl324  Cl    0.75747   0.77232   0.27281   0.00000  Uiso   1.00
F325   F     0.91883   0.95735   0.14472   0.00000  Uiso   1.00
F326   F     0.74784   0.70932   0.18861   0.00000  Uiso   1.00
F327   F     0.89881   0.88579   0.29412   0.00000  Uiso   1.00
F328   F     0.76786   0.78088   0.03921   0.00000  Uiso   1.00
H329   H     0.99156   0.83211   0.11365   0.00000  Uiso   1.00
H330   H     0.67510   0.83456   0.21969   0.00000  Uiso   1.00
N331   N     0.83332   0.83332   0.28573   0.00000  Uiso   1.00
N332   N     0.83335   0.83334   0.04760   0.00000  Uiso   1.00
O333   O     0.83333   0.77225   0.20487   0.00000  Uiso   1.00
O334   O     0.83334   0.89442   0.12846   0.00000  Uiso   1.00
O335   O     0.83333   0.77226   0.12843   0.00000  Uiso   1.00
O336   O     0.83334   0.89441   0.20490   0.00000  Uiso   1.00
O337   O     0.75725   0.83333   0.19595   0.00000  Uiso   1.00
O338   O     0.90942   0.83334   0.13739   0.00000  Uiso   1.00
O339   O     0.75725   0.83334   0.11950   0.00000  Uiso   1.00
O340   O     0.90942   0.83333   0.21383   0.00000  Uiso   1.00
Zn341  Zn    0.83333   0.83333   0.21771   0.00000  Uiso   1.00
Zn342  Zn    0.83333   0.83334   0.11563   0.00000  Uiso   1.00
C343   C     0.16693   0.08683   0.50016   0.00000  Uiso   1.00
C344   C     0.12337   0.02137   0.51183   0.00000  Uiso   1.00
C345   C     0.16598   0.29062   0.49957   0.00000  Uiso   1.00
C346   C     0.16735   0.04271   0.50044   0.00000  Uiso   1.00
C347   C     0.19947   0.19299   0.36087   0.00000  Uiso   1.00
C348   C     0.13387   0.14034   0.63913   0.00000  Uiso   1.00
C349   C     0.19938   0.19289   0.64640   0.00000  Uiso   1.00
C350   C     0.13396   0.14044   0.35360   0.00000  Uiso   1.00
C351   C     0.16640   0.24651   0.49984   0.00000  Uiso   1.00
C352   C     0.06712   0.16656   0.48810   0.00000  Uiso   1.00
C353   C     0.26622   0.16677   0.51190   0.00000  Uiso   1.00
C354   C     0.01207   0.16631   0.48171   0.00000  Uiso   1.00
C355   C     0.32126   0.16702   0.51829   0.00000  Uiso   1.00
C356   C     0.21084   0.02187   0.48852   0.00000  Uiso   1.00
C357   C     0.12249   0.31146   0.51148   0.00000  Uiso   1.00
C358   C     0.20996   0.31197   0.48817   0.00000  Uiso   1.00
Cl359  Cl    0.26706   0.04908   0.47549   0.00000  Uiso   1.00
Cl360  Cl    0.06626   0.28426   0.52450   0.00000  Uiso   1.00
Cl361  Cl    0.24253   0.22768   0.39386   0.00000  Uiso   1.00
Cl362  Cl    0.09080   0.10566   0.60614   0.00000  Uiso   1.00
F363   F     0.25216   0.29068   0.47805   0.00000  Uiso   1.00
F364   F     0.08117   0.04265   0.52195   0.00000  Uiso   1.00
F365   F     0.23214   0.21912   0.62745   0.00000  Uiso   1.00
F366   F     0.10119   0.11421   0.37255   0.00000  Uiso   1.00
H367   H     0.32490   0.16544   0.44698   0.00000  Uiso   1.00
H368   H     0.00844   0.16789   0.55302   0.00000  Uiso   1.00
N369   N     0.16665   0.16666   0.61907   0.00000  Uiso   1.00
N370   N     0.16668   0.16668   0.38093   0.00000  Uiso   1.00
O371   O     0.16666   0.10558   0.53821   0.00000  Uiso   1.00
O372   O     0.16667   0.22775   0.46179   0.00000  Uiso   1.00
O373   O     0.16666   0.10559   0.46176   0.00000  Uiso   1.00
O374   O     0.16667   0.22774   0.53824   0.00000  Uiso   1.00
O375   O     0.09058   0.16666   0.52928   0.00000  Uiso   1.00
O376   O     0.24275   0.16667   0.47072   0.00000  Uiso   1.00
O377   O     0.09058   0.16667   0.45284   0.00000  Uiso   1.00
O378   O     0.24275   0.16666   0.54716   0.00000  Uiso   1.00
Zn379  Zn    0.16667   0.16666   0.55104   0.00000  Uiso   1.00
Zn380  Zn    0.16667   0.16667   0.44896   0.00000  Uiso   1.00
C381   C     0.50027   0.08683   0.50016   0.00000  Uiso   1.00
C382   C     0.45671   0.02137   0.51183   0.00000  Uiso   1.00
C383   C     0.49931   0.29062   0.49957   0.00000  Uiso   1.00
C384   C     0.50069   0.04271   0.50044   0.00000  Uiso   1.00
C385   C     0.53280   0.19299   0.36087   0.00000  Uiso   1.00
C386   C     0.46720   0.14034   0.63913   0.00000  Uiso   1.00
C387   C     0.53271   0.19289   0.64640   0.00000  Uiso   1.00
C388   C     0.46729   0.14044   0.35360   0.00000  Uiso   1.00
C389   C     0.49973   0.24651   0.49984   0.00000  Uiso   1.00
C390   C     0.40045   0.16656   0.48810   0.00000  Uiso   1.00
C391   C     0.59955   0.16677   0.51190   0.00000  Uiso   1.00
C392   C     0.34540   0.16631   0.48171   0.00000  Uiso   1.00
C393   C     0.65460   0.16702   0.51829   0.00000  Uiso   1.00
C394   C     0.54418   0.02187   0.48852   0.00000  Uiso   1.00
C395   C     0.45582   0.31146   0.51148   0.00000  Uiso   1.00
C396   C     0.54329   0.31197   0.48817   0.00000  Uiso   1.00
Cl397  Cl    0.60040   0.04908   0.47549   0.00000  Uiso   1.00
Cl398  Cl    0.39960   0.28426   0.52450   0.00000  Uiso   1.00
Cl399  Cl    0.57587   0.22768   0.39386   0.00000  Uiso   1.00
Cl400  Cl    0.42413   0.10566   0.60614   0.00000  Uiso   1.00
F401   F     0.58549   0.29068   0.47805   0.00000  Uiso   1.00
F402   F     0.41451   0.04265   0.52195   0.00000  Uiso   1.00
F403   F     0.56548   0.21912   0.62745   0.00000  Uiso   1.00
F404   F     0.43452   0.11421   0.37255   0.00000  Uiso   1.00
H405   H     0.65823   0.16544   0.44698   0.00000  Uiso   1.00
H406   H     0.34177   0.16789   0.55302   0.00000  Uiso   1.00
N407   N     0.49999   0.16666   0.61907   0.00000  Uiso   1.00
N408   N     0.50001   0.16668   0.38093   0.00000  Uiso   1.00
O409   O     0.50000   0.10558   0.53821   0.00000  Uiso   1.00
O410   O     0.50000   0.22775   0.46179   0.00000  Uiso   1.00
O411   O     0.50000   0.10559   0.46176   0.00000  Uiso   1.00
O412   O     0.50000   0.22774   0.53824   0.00000  Uiso   1.00
O413   O     0.42392   0.16666   0.52928   0.00000  Uiso   1.00
O414   O     0.57608   0.16667   0.47072   0.00000  Uiso   1.00
O415   O     0.42392   0.16667   0.45284   0.00000  Uiso   1.00
O416   O     0.57608   0.16666   0.54716   0.00000  Uiso   1.00
Zn417  Zn    0.50000   0.16666   0.55104   0.00000  Uiso   1.00
Zn418  Zn    0.50000   0.16667   0.44896   0.00000  Uiso   1.00
C419   C     0.83360   0.08683   0.50016   0.00000  Uiso   1.00
C420   C     0.79004   0.02137   0.51183   0.00000  Uiso   1.00
C421   C     0.83265   0.29062   0.49957   0.00000  Uiso   1.00
C422   C     0.83402   0.04271   0.50044   0.00000  Uiso   1.00
C423   C     0.86613   0.19299   0.36087   0.00000  Uiso   1.00
C424   C     0.80053   0.14034   0.63913   0.00000  Uiso   1.00
C425   C     0.86604   0.19289   0.64640   0.00000  Uiso   1.00
C426   C     0.80062   0.14044   0.35360   0.00000  Uiso   1.00
C427   C     0.83307   0.24651   0.49984   0.00000  Uiso   1.00
C428   C     0.73378   0.16656   0.48810   0.00000  Uiso   1.00
C429   C     0.93288   0.16677   0.51190   0.00000  Uiso   1.00
C430   C     0.67874   0.16631   0.48171   0.00000  Uiso   1.00
C431   C     0.98793   0.16702   0.51829   0.00000  Uiso   1.00
C432   C     0.87751   0.02187   0.48852   0.00000  Uiso   1.00
C433   C     0.78916   0.31146   0.51148   0.00000  Uiso   1.00
C434   C     0.87663   0.31197   0.48817   0.00000  Uiso   1.00
Cl435  Cl    0.93373   0.04908   0.47549   0.00000  Uiso   1.00
Cl436  Cl    0.73293   0.28426   0.52450   0.00000  Uiso   1.00
Cl437  Cl    0.90920   0.22768   0.39386   0.00000  Uiso   1.00
Cl438  Cl    0.75747   0.10566   0.60614   0.00000  Uiso   1.00
F439   F     0.91883   0.29068   0.47805   0.00000  Uiso   1.00
F440   F     0.74784   0.04265   0.52195   0.00000  Uiso   1.00
F441   F     0.89881   0.21912   0.62745   0.00000  Uiso   1.00
F442   F     0.76786   0.11421   0.37255   0.00000  Uiso   1.00
H443   H     0.99156   0.16544   0.44698   0.00000  Uiso   1.00
H444   H     0.67510   0.16789   0.55302   0.00000  Uiso   1.00
N445   N     0.83332   0.16666   0.61907   0.00000  Uiso   1.00
N446   N     0.83335   0.16668   0.38093   0.00000  Uiso   1.00
O447   O     0.83333   0.10558   0.53821   0.00000  Uiso   1.00
O448   O     0.83334   0.22775   0.46179   0.00000  Uiso   1.00
O449   O     0.83333   0.10559   0.46176   0.00000  Uiso   1.00
O450   O     0.83334   0.22774   0.53824   0.00000  Uiso   1.00
O451   O     0.75725   0.16666   0.52928   0.00000  Uiso   1.00
O452   O     0.90942   0.16667   0.47072   0.00000  Uiso   1.00
O453   O     0.75725   0.16667   0.45284   0.00000  Uiso   1.00
O454   O     0.90942   0.16666   0.54716   0.00000  Uiso   1.00
Zn455  Zn    0.83333   0.16666   0.55104   0.00000  Uiso   1.00
Zn456  Zn    0.83333   0.16667   0.44896   0.00000  Uiso   1.00
C457   C     0.16693   0.42016   0.50016   0.00000  Uiso   1.00
C458   C     0.12337   0.35470   0.51183   0.00000  Uiso   1.00
C459   C     0.16598   0.62396   0.49957   0.00000  Uiso   1.00
C460   C     0.16735   0.37604   0.50044   0.00000  Uiso   1.00
C461   C     0.19947   0.52632   0.36087   0.00000  Uiso   1.00
C462   C     0.13387   0.47368   0.63913   0.00000  Uiso   1.00
C463   C     0.19938   0.52622   0.64640   0.00000  Uiso   1.00
C464   C     0.13396   0.47378   0.35360   0.00000  Uiso   1.00
C465   C     0.16640   0.57984   0.49984   0.00000  Uiso   1.00
C466   C     0.06712   0.49990   0.48810   0.00000  Uiso   1.00
C467   C     0.26622   0.50010   0.51190   0.00000  Uiso   1.00
C468   C     0.01207   0.49964   0.48171   0.00000  Uiso   1.00
C469   C     0.32126   0.50035   0.51829   0.00000  Uiso   1.00
C470   C     0.21084   0.35520   0.48852   0.00000  Uiso   1.00
C471   C     0.12249   0.64480   0.51148   0.00000  Uiso   1.00
C472   C     0.20996   0.64530   0.48817   0.00000  Uiso   1.00
Cl473  Cl    0.26706   0.38241   0.47549   0.00000  Uiso   1.00
Cl474  Cl    0.06626   0.61759   0.52450   0.00000  Uiso   1.00
Cl475  Cl    0.24253   0.56101   0.39386   0.00000  Uiso   1.00
Cl476  Cl    0.09080   0.43899   0.60614   0.00000  Uiso   1.00
F477   F     0.25216   0.62401   0.47805   0.00000  Uiso   1.00
F478   F     0.08117   0.37599   0.52195   0.00000  Uiso   1.00
F479   F     0.23214   0.55245   0.62745   0.00000  Uiso   1.00
F480   F     0.10119   0.44755   0.37255   0.00000  Uiso   1.00
H481   H     0.32490   0.49878   0.44698   0.00000  Uiso   1.00
H482   H     0.00844   0.50122   0.55302   0.00000  Uiso   1.00
N483   N     0.16665   0.49999   0.61907   0.00000  Uiso   1.00
N484   N     0.16668   0.50001   0.38093   0.00000  Uiso   1.00
O485   O     0.16666   0.43892   0.53821   0.00000  Uiso   1.00
O486   O     0.16667   0.56108   0.46179   0.00000  Uiso   1.00
O487   O     0.16666   0.43893   0.46176   0.00000  Uiso   1.00
O488   O     0.16667   0.56107   0.53824   0.00000  Uiso   1.00
O489   O     0.09058   0.50000   0.52928   0.00000  Uiso   1.00
O490   O     0.24275   0.50000   0.47072   0.00000  Uiso   1.00
O491   O     0.09058   0.50000   0.45284   0.00000  Uiso   1.00
O492   O     0.24275   0.50000   0.54716   0.00000  Uiso   1.00
Zn493  Zn    0.16667   0.49999   0.55104   0.00000  Uiso   1.00
Zn494  Zn    0.16667   0.50001   0.44896   0.00000  Uiso   1.00
C495   C     0.50027   0.42016   0.50016   0.00000  Uiso   1.00
C496   C     0.45671   0.35470   0.51183   0.00000  Uiso   1.00
C497   C     0.49931   0.62396   0.49957   0.00000  Uiso   1.00
C498   C     0.50069   0.37604   0.50044   0.00000  Uiso   1.00
C499   C     0.53280   0.52632   0.36087   0.00000  Uiso   1.00
C500   C     0.46720   0.47368   0.63913   0.00000  Uiso   1.00
C501   C     0.53271   0.52622   0.64640   0.00000  Uiso   1.00
C502   C     0.46729   0.47378   0.35360   0.00000  Uiso   1.00
C503   C     0.49973   0.57984   0.49984   0.00000  Uiso   1.00
C504   C     0.40045   0.49990   0.48810   0.00000  Uiso   1.00
C505   C     0.59955   0.50010   0.51190   0.00000  Uiso   1.00
C506   C     0.34540   0.49964   0.48171   0.00000  Uiso   1.00
C507   C     0.65460   0.50035   0.51829   0.00000  Uiso   1.00
C508   C     0.54418   0.35520   0.48852   0.00000  Uiso   1.00
C509   C     0.45582   0.64480   0.51148   0.00000  Uiso   1.00
C510   C     0.54329   0.64530   0.48817   0.00000  Uiso   1.00
Cl511  Cl    0.60040   0.38241   0.47549   0.00000  Uiso   1.00
Cl512  Cl    0.39960   0.61759   0.52450   0.00000  Uiso   1.00
Cl513  Cl    0.57587   0.56101   0.39386   0.00000  Uiso   1.00
Cl514  Cl    0.42413   0.43899   0.60614   0.00000  Uiso   1.00
F515   F     0.58549   0.62401   0.47805   0.00000  Uiso   1.00
F516   F     0.41451   0.37599   0.52195   0.00000  Uiso   1.00
F517   F     0.56548   0.55245   0.62745   0.00000  Uiso   1.00
F518   F     0.43452   0.44755   0.37255   0.00000  Uiso   1.00
H519   H     0.65823   0.49878   0.44698   0.00000  Uiso   1.00
H520   H     0.34177   0.50122   0.55302   0.00000  Uiso   1.00
N521   N     0.49999   0.49999   0.61907   0.00000  Uiso   1.00
N522   N     0.50001   0.50001   0.38093   0.00000  Uiso   1.00
O523   O     0.50000   0.43892   0.53821   0.00000  Uiso   1.00
O524   O     0.50000   0.56108   0.46179   0.00000  Uiso   1.00
O525   O     0.50000   0.43893   0.46176   0.00000  Uiso   1.00
O526   O     0.50000   0.56107   0.53824   0.00000  Uiso   1.00
O527   O     0.42392   0.50000   0.52928   0.00000  Uiso   1.00
O528   O     0.57608   0.50000   0.47072   0.00000  Uiso   1.00
O529   O     0.42392   0.50000   0.45284   0.00000  Uiso   1.00
O530   O     0.57608   0.50000   0.54716   0.00000  Uiso   1.00
Zn531  Zn    0.50000   0.49999   0.55104   0.00000  Uiso   1.00
Zn532  Zn    0.50000   0.50001   0.44896   0.00000  Uiso   1.00
C533   C     0.83360   0.42016   0.50016   0.00000  Uiso   1.00
C534   C     0.79004   0.35470   0.51183   0.00000  Uiso   1.00
C535   C     0.83265   0.62396   0.49957   0.00000  Uiso   1.00
C536   C     0.83402   0.37604   0.50044   0.00000  Uiso   1.00
C537   C     0.86613   0.52632   0.36087   0.00000  Uiso   1.00
C538   C     0.80053   0.47368   0.63913   0.00000  Uiso   1.00
C539   C     0.86604   0.52622   0.64640   0.00000  Uiso   1.00
C540   C     0.80062   0.47378   0.35360   0.00000  Uiso   1.00
C541   C     0.83307   0.57984   0.49984   0.00000  Uiso   1.00
C542   C     0.73378   0.49990   0.48810   0.00000  Uiso   1.00
C543   C     0.93288   0.50010   0.51190   0.00000  Uiso   1.00
C544   C     0.67874   0.49964   0.48171   0.00000  Uiso   1.00
C545   C     0.98793   0.50035   0.51829   0.00000  Uiso   1.00
C546   C     0.87751   0.35520   0.48852   0.00000  Uiso   1.00
C547   C     0.78916   0.64480   0.51148   0.00000  Uiso   1.00
C548   C     0.87663   0.64530   0.48817   0.00000  Uiso   1.00
Cl549  Cl    0.93373   0.38241   0.47549   0.00000  Uiso   1.00
Cl550  Cl    0.73293   0.61759   0.52450   0.00000  Uiso   1.00
Cl551  Cl    0.90920   0.56101   0.39386   0.00000  Uiso   1.00
Cl552  Cl    0.75747   0.43899   0.60614   0.00000  Uiso   1.00
F553   F     0.91883   0.62401   0.47805   0.00000  Uiso   1.00
F554   F     0.74784   0.37599   0.52195   0.00000  Uiso   1.00
F555   F     0.89881   0.55245   0.62745   0.00000  Uiso   1.00
F556   F     0.76786   0.44755   0.37255   0.00000  Uiso   1.00
H557   H     0.99156   0.49878   0.44698   0.00000  Uiso   1.00
H558   H     0.67510   0.50122   0.55302   0.00000  Uiso   1.00
N559   N     0.83332   0.49999   0.61907   0.00000  Uiso   1.00
N560   N     0.83335   0.50001   0.38093   0.00000  Uiso   1.00
O561   O     0.83333   0.43892   0.53821   0.00000  Uiso   1.00
O562   O     0.83334   0.56108   0.46179   0.00000  Uiso   1.00
O563   O     0.83333   0.43893   0.46176   0.00000  Uiso   1.00
O564   O     0.83334   0.56107   0.53824   0.00000  Uiso   1.00
O565   O     0.75725   0.50000   0.52928   0.00000  Uiso   1.00
O566   O     0.90942   0.50000   0.47072   0.00000  Uiso   1.00
O567   O     0.75725   0.50000   0.45284   0.00000  Uiso   1.00
O568   O     0.90942   0.50000   0.54716   0.00000  Uiso   1.00
Zn569  Zn    0.83333   0.49999   0.55104   0.00000  Uiso   1.00
Zn570  Zn    0.83333   0.50001   0.44896   0.00000  Uiso   1.00
C571   C     0.16693   0.75349   0.50016   0.00000  Uiso   1.00
C572   C     0.12337   0.68803   0.51183   0.00000  Uiso   1.00
C573   C     0.16598   0.95729   0.49957   0.00000  Uiso   1.00
C574   C     0.16735   0.70938   0.50044   0.00000  Uiso   1.00
C575   C     0.19947   0.85966   0.36087   0.00000  Uiso   1.00
C576   C     0.13387   0.80701   0.63913   0.00000  Uiso   1.00
C577   C     0.19938   0.85956   0.64640   0.00000  Uiso   1.00
C578   C     0.13396   0.80711   0.35360   0.00000  Uiso   1.00
C579   C     0.16640   0.91317   0.49984   0.00000  Uiso   1.00
C580   C     0.06712   0.83323   0.48810   0.00000  Uiso   1.00
C581   C     0.26622   0.83344   0.51190   0.00000  Uiso   1.00
C582   C     0.01207   0.83298   0.48171   0.00000  Uiso   1.00
C583   C     0.32126   0.83369   0.51829   0.00000  Uiso   1.00
C584   C     0.21084   0.68854   0.48852   0.00000  Uiso   1.00
C585   C     0.12249   0.97813   0.51148   0.00000  Uiso   1.00
C586   C     0.20996   0.97863   0.48817   0.00000  Uiso   1.00
Cl587  Cl    0.26706   0.71574   0.47549   0.00000  Uiso   1.00
Cl588  Cl    0.06626   0.95092   0.52450   0.00000  Uiso   1.00
Cl589  Cl    0.24253   0.89434   0.39386   0.00000  Uiso   1.00
Cl590  Cl    0.09080   0.77232   0.60614   0.00000  Uiso   1.00
F591   F     0.25216   0.95735   0.47805   0.00000  Uiso   1.00
F592   F     0.08117   0.70932   0.52195   0.00000  Uiso   1.00
F593   F     0.23214   0.88579   0.62745   0.00000  Uiso   1.00
F594   F     0.10119   0.78088   0.37255   0.00000  Uiso   1.00
H595   H     0.32490   0.83211   0.44698   0.00000  Uiso   1.00
H596   H     0.00844   0.83456   0.55302   0.00000  Uiso   1.00
N597   N     0.16665   0.83332   0.61907   0.00000  Uiso   1.00
N598   N     0.16668   0.83334   0.38093   0.00000  Uiso   1.00
O599   O     0.16666   0.77225   0.53821   0.00000  Uiso   1.00
O600   O     0.16667   0.89442   0.46179   0.00000  Uiso   1.00
O601   O     0.16666   0.77226   0.46176   0.00000  Uiso   1.00
O602   O     0.16667   0.89441   0.53824   0.00000  Uiso   1.00
O603   O     0.09058   0.83333   0.52928   0.00000  Uiso   1.00
O604   O     0.24275   0.83334   0.47072   0.00000  Uiso   1.00
O605   O     0.09058   0.83334   0.45284   0.00000  Uiso   1.00
O606   O     0.24275   0.83333   0.54716   0.00000  Uiso   1.00
Zn607  Zn    0.16667   0.83333   0.55104   0.00000  Uiso   1.00
Zn608  Zn    0.16667   0.83334   0.44896   0.00000  Uiso   1.00
C609   C     0.50027   0.75349   0.50016   0.00000  Uiso   1.00
C610   C     0.45671   0.68803   0.51183   0.00000  Uiso   1.00
C611   C     0.49931   0.95729   0.49957   0.00000  Uiso   1.00
C612   C     0.50069   0.70938   0.50044   0.00000  Uiso   1.00
C613   C     0.53280   0.85966   0.36087   0.00000  Uiso   1.00
C614   C     0.46720   0.80701   0.63913   0.00000  Uiso   1.00
C615   C     0.53271   0.85956   0.64640   0.00000  Uiso   1.00
C616   C     0.46729   0.80711   0.35360   0.00000  Uiso   1.00
C617   C     0.49973   0.91317   0.49984   0.00000  Uiso   1.00
C618   C     0.40045   0.83323   0.48810   0.00000  Uiso   1.00
C619   C     0.59955   0.83344   0.51190   0.00000  Uiso   1.00
C620   C     0.34540   0.83298   0.48171   0.00000  Uiso   1.00
C621   C     0.65460   0.83369   0.51829   0.00000  Uiso   1.00
C622   C     0.54418   0.68854   0.48852   0.00000  Uiso   1.00
C623   C     0.45582   0.97813   0.51148   0.00000  Uiso   1.00
C624   C     0.54329   0.97863   0.48817   0.00000  Uiso   1.00
Cl625  Cl    0.60040   0.71574   0.47549   0.00000  Uiso   1.00
Cl626  Cl    0.39960   0.95092   0.52450   0.00000  Uiso   1.00
Cl627  Cl    0.57587   0.89434   0.39386   0.00000  Uiso   1.00
Cl628  Cl    0.42413   0.77232   0.60614   0.00000  Uiso   1.00
F629   F     0.58549   0.95735   0.47805   0.00000  Uiso   1.00
F630   F     0.41451   0.70932   0.52195   0.00000  Uiso   1.00
F631   F     0.56548   0.88579   0.62745   0.00000  Uiso   1.00
F632   F     0.43452   0.78088   0.37255   0.00000  Uiso   1.00
H633   H     0.65823   0.83211   0.44698   0.00000  Uiso   1.00
H634   H     0.34177   0.83456   0.55302   0.00000  Uiso   1.00
N635   N     0.49999   0.83332   0.61907   0.00000  Uiso   1.00
N636   N     0.50001   0.83334   0.38093   0.00000  Uiso   1.00
O637   O     0.50000   0.77225   0.53821   0.00000  Uiso   1.00
O638   O     0.50000   0.89442   0.46179   0.00000  Uiso   1.00
O639   O     0.50000   0.77226   0.46176   0.00000  Uiso   1.00
O640   O     0.50000   0.89441   0.53824   0.00000  Uiso   1.00
O641   O     0.42392   0.83333   0.52928   0.00000  Uiso   1.00
O642   O     0.57608   0.83334   0.47072   0.00000  Uiso   1.00
O643   O     0.42392   0.83334   0.45284   0.00000  Uiso   1.00
O644   O     0.57608   0.83333   0.54716   0.00000  Uiso   1.00
Zn645  Zn    0.50000   0.83333   0.55104   0.00000  Uiso   1.00
Zn646  Zn    0.50000   0.83334   0.44896   0.00000  Uiso   1.00
C647   C     0.83360   0.75349   0.50016   0.00000  Uiso   1.00
C648   C     0.79004   0.68803   0.51183   0.00000  Uiso   1.00
C649   C     0.83265   0.95729   0.49957   0.00000  Uiso   1.00
C650   C     0.83402   0.70938   0.50044   0.00000  Uiso   1.00
C651   C     0.86613   0.85966   0.36087   0.00000  Uiso   1.00
C652   C     0.80053   0.80701   0.63913   0.00000  Uiso   1.00
C653   C     0.86604   0.85956   0.64640   0.00000  Uiso   1.00
C654   C     0.80062   0.80711   0.35360   0.00000  Uiso   1.00
C655   C     0.83307   0.91317   0.49984   0.00000  Uiso   1.00
C656   C     0.73378   0.83323   0.48810   0.00000  Uiso   1.00
C657   C     0.93288   0.83344   0.51190   0.00000  Uiso   1.00
C658   C     0.67874   0.83298   0.48171   0.00000  Uiso   1.00
C659   C     0.98793   0.83369   0.51829   0.00000  Uiso   1.00
C660   C     0.87751   0.68854   0.48852   0.00000  Uiso   1.00
C661   C     0.78916   0.97813   0.51148   0.00000  Uiso   1.00
C662   C     0.87663   0.97863   0.48817   0.00000  Uiso   1.00
Cl663  Cl    0.93373   0.71574   0.47549   0.00000  Uiso   1.00
Cl664  Cl    0.73293   0.95092   0.52450   0.00000  Uiso   1.00
Cl665  Cl    0.90920   0.89434   0.39386   0.00000  Uiso   1.00
Cl666  Cl    0.75747   0.77232   0.60614   0.00000  Uiso   1.00
F667   F     0.91883   0.95735   0.47805   0.00000  Uiso   1.00
F668   F     0.74784   0.70932   0.52195   0.00000  Uiso   1.00
F669   F     0.89881   0.88579   0.62745   0.00000  Uiso   1.00
F670   F     0.76786   0.78088   0.37255   0.00000  Uiso   1.00
H671   H     0.99156   0.83211   0.44698   0.00000  Uiso   1.00
H672   H     0.67510   0.83456   0.55302   0.00000  Uiso   1.00
N673   N     0.83332   0.83332   0.61907   0.00000  Uiso   1.00
N674   N     0.83335   0.83334   0.38093   0.00000  Uiso   1.00
O675   O     0.83333   0.77225   0.53821   0.00000  Uiso   1.00
O676   O     0.83334   0.89442   0.46179   0.00000  Uiso   1.00
O677   O     0.83333   0.77226   0.46176   0.00000  Uiso   1.00
O678   O     0.83334   0.89441   0.53824   0.00000  Uiso   1.00
O679   O     0.75725   0.83333   0.52928   0.00000  Uiso   1.00
O680   O     0.90942   0.83334   0.47072   0.00000  Uiso   1.00
O681   O     0.75725   0.83334   0.45284   0.00000  Uiso   1.00
O682   O     0.90942   0.83333   0.54716   0.00000  Uiso   1.00
Zn683  Zn    0.83333   0.83333   0.55104   0.00000  Uiso   1.00
Zn684  Zn    0.83333   0.83334   0.44896   0.00000  Uiso   1.00
C685   C     0.16693   0.08683   0.83349   0.00000  Uiso   1.00
C686   C     0.12337   0.02137   0.84516   0.00000  Uiso   1.00
C687   C     0.16598   0.29062   0.83290   0.00000  Uiso   1.00
C688   C     0.16735   0.04271   0.83377   0.00000  Uiso   1.00
C689   C     0.19947   0.19299   0.69420   0.00000  Uiso   1.00
C690   C     0.13387   0.14034   0.97247   0.00000  Uiso   1.00
C691   C     0.19938   0.19289   0.97973   0.00000  Uiso   1.00
C692   C     0.13396   0.14044   0.68694   0.00000  Uiso   1.00
C693   C     0.16640   0.24651   0.83317   0.00000  Uiso   1.00
C694   C     0.06712   0.16656   0.82143   0.00000  Uiso   1.00
C695   C     0.26622   0.16677   0.84524   0.00000  Uiso   1.00
C696   C     0.01207   0.16631   0.81504   0.00000  Uiso   1.00
C697   C     0.32126   0.16702   0.85162   0.00000  Uiso   1.00
C698   C     0.21084   0.02187   0.82185   0.00000  Uiso   1.00
C699   C     0.12249   0.31146   0.84481   0.00000  Uiso   1.00
C700   C     0.20996   0.31197   0.82150   0.00000  Uiso   1.00
Cl701  Cl    0.26706   0.04908   0.80882   0.00000  Uiso   1.00
Cl702  Cl    0.06626   0.28426   0.85783   0.00000  Uiso   1.00
Cl703  Cl    0.24253   0.22768   0.72719   0.00000  Uiso   1.00
Cl704  Cl    0.09080   0.10566   0.93947   0.00000  Uiso   1.00
F705   F     0.25216   0.29068   0.81138   0.00000  Uiso   1.00
F706   F     0.08117   0.04265   0.85528   0.00000  Uiso   1.00
F707   F     0.23214   0.21912   0.96079   0.00000  Uiso   1.00
F708   F     0.10119   0.11421   0.70588   0.00000  Uiso   1.00
H709   H     0.32490   0.16544   0.78031   0.00000  Uiso   1.00
H710   H     0.00844   0.16789   0.88635   0.00000  Uiso   1.00
N711   N     0.16665   0.16666   0.95240   0.00000  Uiso   1.00
N712   N     0.16668   0.16668   0.71427   0.00000  Uiso   1.00
O713   O     0.16666   0.10558   0.87154   0.00000  Uiso   1.00
O714   O     0.16667   0.22775   0.79513   0.00000  Uiso   1.00
O715   O     0.16666   0.10559   0.79510   0.00000  Uiso   1.00
O716   O     0.16667   0.22774   0.87157   0.00000  Uiso   1.00
O717   O     0.09058   0.16666   0.86261   0.00000  Uiso   1.00
O718   O     0.24275   0.16667   0.80405   0.00000  Uiso   1.00
O719   O     0.09058   0.16667   0.78617   0.00000  Uiso   1.00
O720   O     0.24275   0.16666   0.88050   0.00000  Uiso   1.00
Zn721  Zn    0.16667   0.16666   0.88437   0.00000  Uiso   1.00
Zn722  Zn    0.16667   0.16667   0.78229   0.00000  Uiso   1.00
C723   C     0.50027   0.08683   0.83349   0.00000  Uiso   1.00
C724   C     0.45671   0.02137   0.84516   0.00000  Uiso   1.00
C725   C     0.49931   0.29062   0.83290   0.00000  Uiso   1.00
C726   C     0.50069   0.04271   0.83377   0.00000  Uiso   1.00
C727   C     0.53280   0.19299   0.69420   0.00000  Uiso   1.00
C728   C     0.46720   0.14034   0.97247   0.00000  Uiso   1.00
C729   C     0.53271   0.19289   0.97973   0.00000  Uiso   1.00
C730   C     0.46729   0.14044   0.68694   0.00000  Uiso   1.00
C731   C     0.49973   0.24651   0.83317   0.00000  Uiso   1.00
C732   C     0.40045   0.16656   0.82143   0.00000  Uiso   1.00
C733   C     0.59955   0.16677   0.84524   0.00000  Uiso   1.00
C734   C     0.34540   0.16631   0.81504   0.00000  Uiso   1.00
C735   C     0.65460   0.16702   0.85162   0.00000  Uiso   1.00
C736   C     0.54418   0.02187   0.82185   0.00000  Uiso   1.00
C737   C     0.45582   0.31146   0.84481   0.00000  Uiso   1.00
C738   C     0.54329   0.31197   0.82150   0.00000  Uiso   1.00
Cl739  Cl    0.60040   0.04908   0.80882   0.00000  Uiso   1.00
Cl740  Cl    0.39960   0.28426   0.85783   0.00000  Uiso   1.00
Cl741  Cl    0.57587   0.22768   0.72719   0.00000  Uiso   1.00
Cl742  Cl    0.42413   0.10566   0.93947   0.00000  Uiso   1.00
F743   F     0.58549   0.29068   0.81138   0.00000  Uiso   1.00
F744   F     0.41451   0.04265   0.85528   0.00000  Uiso   1.00
F745   F     0.56548   0.21912   0.96079   0.00000  Uiso   1.00
F746   F     0.43452   0.11421   0.70588   0.00000  Uiso   1.00
H747   H     0.65823   0.16544   0.78031   0.00000  Uiso   1.00
H748   H     0.34177   0.16789   0.88635   0.00000  Uiso   1.00
N749   N     0.49999   0.16666   0.95240   0.00000  Uiso   1.00
N750   N     0.50001   0.16668   0.71427   0.00000  Uiso   1.00
O751   O     0.50000   0.10558   0.87154   0.00000  Uiso   1.00
O752   O     0.50000   0.22775   0.79513   0.00000  Uiso   1.00
O753   O     0.50000   0.10559   0.79510   0.00000  Uiso   1.00
O754   O     0.50000   0.22774   0.87157   0.00000  Uiso   1.00
O755   O     0.42392   0.16666   0.86261   0.00000  Uiso   1.00
O756   O     0.57608   0.16667   0.80405   0.00000  Uiso   1.00
O757   O     0.42392   0.16667   0.78617   0.00000  Uiso   1.00
O758   O     0.57608   0.16666   0.88050   0.00000  Uiso   1.00
Zn759  Zn    0.50000   0.16666   0.88437   0.00000  Uiso   1.00
Zn760  Zn    0.50000   0.16667   0.78229   0.00000  Uiso   1.00
C761   C     0.83360   0.08683   0.83349   0.00000  Uiso   1.00
C762   C     0.79004   0.02137   0.84516   0.00000  Uiso   1.00
C763   C     0.83265   0.29062   0.83290   0.00000  Uiso   1.00
C764   C     0.83402   0.04271   0.83377   0.00000  Uiso   1.00
C765   C     0.86613   0.19299   0.69420   0.00000  Uiso   1.00
C766   C     0.80053   0.14034   0.97247   0.00000  Uiso   1.00
C767   C     0.86604   0.19289   0.97973   0.00000  Uiso   1.00
C768   C     0.80062   0.14044   0.68694   0.00000  Uiso   1.00
C769   C     0.83307   0.24651   0.83317   0.00000  Uiso   1.00
C770   C     0.73378   0.16656   0.82143   0.00000  Uiso   1.00
C771   C     0.93288   0.16677   0.84524   0.00000  Uiso   1.00
C772   C     0.67874   0.16631   0.81504   0.00000  Uiso   1.00
C773   C     0.98793   0.16702   0.85162   0.00000  Uiso   1.00
C774   C     0.87751   0.02187   0.82185   0.00000  Uiso   1.00
C775   C     0.78916   0.31146   0.84481   0.00000  Uiso   1.00
C776   C     0.87663   0.31197   0.82150   0.00000  Uiso   1.00
Cl777  Cl    0.93373   0.04908   0.80882   0.00000  Uiso   1.00
Cl778  Cl    0.73293   0.28426   0.85783   0.00000  Uiso   1.00
Cl779  Cl    0.90920   0.22768   0.72719   0.00000  Uiso   1.00
Cl780  Cl    0.75747   0.10566   0.93947   0.00000  Uiso   1.00
F781   F     0.91883   0.29068   0.81138   0.00000  Uiso   1.00
F782   F     0.74784   0.04265   0.85528   0.00000  Uiso   1.00
F783   F     0.89881   0.21912   0.96079   0.00000  Uiso   1.00
F784   F     0.76786   0.11421   0.70588   0.00000  Uiso   1.00
H785   H     0.99156   0.16544   0.78031   0.00000  Uiso   1.00
H786   H     0.67510   0.16789   0.88635   0.00000  Uiso   1.00
N787   N     0.83332   0.16666   0.95240   0.00000  Uiso   1.00
N788   N     0.83335   0.16668   0.71427   0.00000  Uiso   1.00
O789   O     0.83333   0.10558   0.87154   0.00000  Uiso   1.00
O790   O     0.83334   0.22775   0.79513   0.00000  Uiso   1.00
O791   O     0.83333   0.10559   0.79510   0.00000  Uiso   1.00
O792   O     0.83334   0.22774   0.87157   0.00000  Uiso   1.00
O793   O     0.75725   0.16666   0.86261   0.00000  Uiso   1.00
O794   O     0.90942   0.16667   0.80405   0.00000  Uiso   1.00
O795   O     0.75725   0.16667   0.78617   0.00000  Uiso   1.00
O796   O     0.90942   0.16666   0.88050   0.00000  Uiso   1.00
Zn797  Zn    0.83333   0.16666   0.88437   0.00000  Uiso   1.00
Zn798  Zn    0.83333   0.16667   0.78229   0.00000  Uiso   1.00
C799   C     0.16693   0.42016   0.83349   0.00000  Uiso   1.00
C800   C     0.12337   0.35470   0.84516   0.00000  Uiso   1.00
C801   C     0.16598   0.62396   0.83290   0.00000  Uiso   1.00
C802   C     0.16735   0.37604   0.83377   0.00000  Uiso   1.00
C803   C     0.19947   0.52632   0.69420   0.00000  Uiso   1.00
C804   C     0.13387   0.47368   0.97247   0.00000  Uiso   1.00
C805   C     0.19938   0.52622   0.97973   0.00000  Uiso   1.00
C806   C     0.13396   0.47378   0.68694   0.00000  Uiso   1.00
C807   C     0.16640   0.57984   0.83317   0.00000  Uiso   1.00
C808   C     0.06712   0.49990   0.82143   0.00000  Uiso   1.00
C809   C     0.26622   0.50010   0.84524   0.00000  Uiso   1.00
C810   C     0.01207   0.49964   0.81504   0.00000  Uiso   1.00
C811   C     0.32126   0.50035   0.85162   0.00000  Uiso   1.00
C812   C     0.21084   0.35520   0.82185   0.00000  Uiso   1.00
C813   C     0.12249   0.64480   0.84481   0.00000  Uiso   1.00
C814   C     0.20996   0.64530   0.82150   0.00000  Uiso   1.00
Cl815  Cl    0.26706   0.38241   0.80882   0.00000  Uiso   1.00
Cl816  Cl    0.06626   0.61759   0.85783   0.00000  Uiso   1.00
Cl817  Cl    0.24253   0.56101   0.72719   0.00000  Uiso   1.00
Cl818  Cl    0.09080   0.43899   0.93947   0.00000  Uiso   1.00
F819   F     0.25216   0.62401   0.81138   0.00000  Uiso   1.00
F820   F     0.08117   0.37599   0.85528   0.00000  Uiso   1.00
F821   F     0.23214   0.55245   0.96079   0.00000  Uiso   1.00
F822   F     0.10119   0.44755   0.70588   0.00000  Uiso   1.00
H823   H     0.32490   0.49878   0.78031   0.00000  Uiso   1.00
H824   H     0.00844   0.50122   0.88635   0.00000  Uiso   1.00
N825   N     0.16665   0.49999   0.95240   0.00000  Uiso   1.00
N826   N     0.16668   0.50001   0.71427   0.00000  Uiso   1.00
O827   O     0.16666   0.43892   0.87154   0.00000  Uiso   1.00
O828   O     0.16667   0.56108   0.79513   0.00000  Uiso   1.00
O829   O     0.16666   0.43893   0.79510   0.00000  Uiso   1.00
O830   O     0.16667   0.56107   0.87157   0.00000  Uiso   1.00
O831   O     0.09058   0.50000   0.86261   0.00000  Uiso   1.00
O832   O     0.24275   0.50000   0.80405   0.00000  Uiso   1.00
O833   O     0.09058   0.50000   0.78617   0.00000  Uiso   1.00
O834   O     0.24275   0.50000   0.88050   0.00000  Uiso   1.00
Zn835  Zn    0.16667   0.49999   0.88437   0.00000  Uiso   1.00
Zn836  Zn    0.16667   0.50001   0.78229   0.00000  Uiso   1.00
C837   C     0.50027   0.42016   0.83349   0.00000  Uiso   1.00
C838   C     0.45671   0.35470   0.84516   0.00000  Uiso   1.00
C839   C     0.49931   0.62396   0.83290   0.00000  Uiso   1.00
C840   C     0.50069   0.37604   0.83377   0.00000  Uiso   1.00
C841   C     0.53280   0.52632   0.69420   0.00000  Uiso   1.00
C842   C     0.46720   0.47368   0.97247   0.00000  Uiso   1.00
C843   C     0.53271   0.52622   0.97973   0.00000  Uiso   1.00
C844   C     0.46729   0.47378   0.68694   0.00000  Uiso   1.00
C845   C     0.49973   0.57984   0.83317   0.00000  Uiso   1.00
C846   C     0.40045   0.49990   0.82143   0.00000  Uiso   1.00
C847   C     0.59955   0.50010   0.84524   0.00000  Uiso   1.00
C848   C     0.34540   0.49964   0.81504   0.00000  Uiso   1.00
C849   C     0.65460   0.50035   0.85162   0.00000  Uiso   1.00
C850   C     0.54418   0.35520   0.82185   0.00000  Uiso   1.00
C851   C     0.45582   0.64480   0.84481   0.00000  Uiso   1.00
C852   C     0.54329   0.64530   0.82150   0.00000  Uiso   1.00
Cl853  Cl    0.60040   0.38241   0.80882   0.00000  Uiso   1.00
Cl854  Cl    0.39960   0.61759   0.85783   0.00000  Uiso   1.00
Cl855  Cl    0.57587   0.56101   0.72719   0.00000  Uiso   1.00
Cl856  Cl    0.42413   0.43899   0.93947   0.00000  Uiso   1.00
F857   F     0.58549   0.62401   0.81138   0.00000  Uiso   1.00
F858   F     0.41451   0.37599   0.85528   0.00000  Uiso   1.00
F859   F     0.56548   0.55245   0.96079   0.00000  Uiso   1.00
F860   F     0.43452   0.44755   0.70588   0.00000  Uiso   1.00
H861   H     0.65823   0.49878   0.78031   0.00000  Uiso   1.00
H862   H     0.34177   0.50122   0.88635   0.00000  Uiso   1.00
N863   N     0.49999   0.49999   0.95240   0.00000  Uiso   1.00
N864   N     0.50001   0.50001   0.71427   0.00000  Uiso   1.00
O865   O     0.50000   0.43892   0.87154   0.00000  Uiso   1.00
O866   O     0.50000   0.56108   0.79513   0.00000  Uiso   1.00
O867   O     0.50000   0.43893   0.79510   0.00000  Uiso   1.00
O868   O     0.50000   0.56107   0.87157   0.00000  Uiso   1.00
O869   O     0.42392   0.50000   0.86261   0.00000  Uiso   1.00
O870   O     0.57608   0.50000   0.80405   0.00000  Uiso   1.00
O871   O     0.42392   0.50000   0.78617   0.00000  Uiso   1.00
O872   O     0.57608   0.50000   0.88050   0.00000  Uiso   1.00
Zn873  Zn    0.50000   0.49999   0.88437   0.00000  Uiso   1.00
Zn874  Zn    0.50000   0.50001   0.78229   0.00000  Uiso   1.00
C875   C     0.83360   0.42016   0.83349   0.00000  Uiso   1.00
C876   C     0.79004   0.35470   0.84516   0.00000  Uiso   1.00
C877   C     0.83265   0.62396   0.83290   0.00000  Uiso   1.00
C878   C     0.83402   0.37604   0.83377   0.00000  Uiso   1.00
C879   C     0.86613   0.52632   0.69420   0.00000  Uiso   1.00
C880   C     0.80053   0.47368   0.97247   0.00000  Uiso   1.00
C881   C     0.86604   0.52622   0.97973   0.00000  Uiso   1.00
C882   C     0.80062   0.47378   0.68694   0.00000  Uiso   1.00
C883   C     0.83307   0.57984   0.83317   0.00000  Uiso   1.00
C884   C     0.73378   0.49990   0.82143   0.00000  Uiso   1.00
C885   C     0.93288   0.50010   0.84524   0.00000  Uiso   1.00
C886   C     0.67874   0.49964   0.81504   0.00000  Uiso   1.00
C887   C     0.98793   0.50035   0.85162   0.00000  Uiso   1.00
C888   C     0.87751   0.35520   0.82185   0.00000  Uiso   1.00
C889   C     0.78916   0.64480   0.84481   0.00000  Uiso   1.00
C890   C     0.87663   0.64530   0.82150   0.00000  Uiso   1.00
Cl891  Cl    0.93373   0.38241   0.80882   0.00000  Uiso   1.00
Cl892  Cl    0.73293   0.61759   0.85783   0.00000  Uiso   1.00
Cl893  Cl    0.90920   0.56101   0.72719   0.00000  Uiso   1.00
Cl894  Cl    0.75747   0.43899   0.93947   0.00000  Uiso   1.00
F895   F     0.91883   0.62401   0.81138   0.00000  Uiso   1.00
F896   F     0.74784   0.37599   0.85528   0.00000  Uiso   1.00
F897   F     0.89881   0.55245   0.96079   0.00000  Uiso   1.00
F898   F     0.76786   0.44755   0.70588   0.00000  Uiso   1.00
H899   H     0.99156   0.49878   0.78031   0.00000  Uiso   1.00
H900   H     0.67510   0.50122   0.88635   0.00000  Uiso   1.00
N901   N     0.83332   0.49999   0.95240   0.00000  Uiso   1.00
N902   N     0.83335   0.50001   0.71427   0.00000  Uiso   1.00
O903   O     0.83333   0.43892   0.87154   0.00000  Uiso   1.00
O904   O     0.83334   0.56108   0.79513   0.00000  Uiso   1.00
O905   O     0.83333   0.43893   0.79510   0.00000  Uiso   1.00
O906   O     0.83334   0.56107   0.87157   0.00000  Uiso   1.00
O907   O     0.75725   0.50000   0.86261   0.00000  Uiso   1.00
O908   O     0.90942   0.50000   0.80405   0.00000  Uiso   1.00
O909   O     0.75725   0.50000   0.78617   0.00000  Uiso   1.00
O910   O     0.90942   0.50000   0.88050   0.00000  Uiso   1.00
Zn911  Zn    0.83333   0.49999   0.88437   0.00000  Uiso   1.00
Zn912  Zn    0.83333   0.50001   0.78229   0.00000  Uiso   1.00
C913   C     0.16693   0.75349   0.83349   0.00000  Uiso   1.00
C914   C     0.12337   0.68803   0.84516   0.00000  Uiso   1.00
C915   C     0.16598   0.95729   0.83290   0.00000  Uiso   1.00
C916   C     0.16735   0.70938   0.83377   0.00000  Uiso   1.00
C917   C     0.19947   0.85966   0.69420   0.00000  Uiso   1.00
C918   C     0.13387   0.80701   0.97247   0.00000  Uiso   1.00
C919   C     0.19938   0.85956   0.97973   0.00000  Uiso   1.00
C920   C     0.13396   0.80711   0.68694   0.00000  Uiso   1.00
C921   C     0.16640   0.91317   0.83317   0.00000  Uiso   1.00
C922   C     0.06712   0.83323   0.82143   0.00000  Uiso   1.00
C923   C     0.26622   0.83344   0.84524   0.00000  Uiso   1.00
C924   C     0.01207   0.83298   0.81504   0.00000  Uiso   1.00
C925   C     0.32126   0.83369   0.85162   0.00000  Uiso   1.00
C926   C     0.21084   0.68854   0.82185   0.00000  Uiso   1.00
C927   C     0.12249   0.97813   0.84481   0.00000  Uiso   1.00
C928   C     0.20996   0.97863   0.82150   0.00000  Uiso   1.00
Cl929  Cl    0.26706   0.71574   0.80882   0.00000  Uiso   1.00
Cl930  Cl    0.06626   0.95092   0.85783   0.00000  Uiso   1.00
Cl931  Cl    0.24253   0.89434   0.72719   0.00000  Uiso   1.00
Cl932  Cl    0.09080   0.77232   0.93947   0.00000  Uiso   1.00
F933   F     0.25216   0.95735   0.81138   0.00000  Uiso   1.00
F934   F     0.08117   0.70932   0.85528   0.00000  Uiso   1.00
F935   F     0.23214   0.88579   0.96079   0.00000  Uiso   1.00
F936   F     0.10119   0.78088   0.70588   0.00000  Uiso   1.00
H937   H     0.32490   0.83211   0.78031   0.00000  Uiso   1.00
H938   H     0.00844   0.83456   0.88635   0.00000  Uiso   1.00
N939   N     0.16665   0.83332   0.95240   0.00000  Uiso   1.00
N940   N     0.16668   0.83334   0.71427   0.00000  Uiso   1.00
O941   O     0.16666   0.77225   0.87154   0.00000  Uiso   1.00
O942   O     0.16667   0.89442   0.79513   0.00000  Uiso   1.00
O943   O     0.16666   0.77226   0.79510   0.00000  Uiso   1.00
O944   O     0.16667   0.89441   0.87157   0.00000  Uiso   1.00
O945   O     0.09058   0.83333   0.86261   0.00000  Uiso   1.00
O946   O     0.24275   0.83334   0.80405   0.00000  Uiso   1.00
O947   O     0.09058   0.83334   0.78617   0.00000  Uiso   1.00
O948   O     0.24275   0.83333   0.88050   0.00000  Uiso   1.00
Zn949  Zn    0.16667   0.83333   0.88437   0.00000  Uiso   1.00
Zn950  Zn    0.16667   0.83334   0.78229   0.00000  Uiso   1.00
C951   C     0.50027   0.75349   0.83349   0.00000  Uiso   1.00
C952   C     0.45671   0.68803   0.84516   0.00000  Uiso   1.00
C953   C     0.49931   0.95729   0.83290   0.00000  Uiso   1.00
C954   C     0.50069   0.70938   0.83377   0.00000  Uiso   1.00
C955   C     0.53280   0.85966   0.69420   0.00000  Uiso   1.00
C956   C     0.46720   0.80701   0.97247   0.00000  Uiso   1.00
C957   C     0.53271   0.85956   0.97973   0.00000  Uiso   1.00
C958   C     0.46729   0.80711   0.68694   0.00000  Uiso   1.00
C959   C     0.49973   0.91317   0.83317   0.00000  Uiso   1.00
C960   C     0.40045   0.83323   0.82143   0.00000  Uiso   1.00
C961   C     0.59955   0.83344   0.84524   0.00000  Uiso   1.00
C962   C     0.34540   0.83298   0.81504   0.00000  Uiso   1.00
C963   C     0.65460   0.83369   0.85162   0.00000  Uiso   1.00
C964   C     0.54418   0.68854   0.82185   0.00000  Uiso   1.00
C965   C     0.45582   0.97813   0.84481   0.00000  Uiso   1.00
C966   C     0.54329   0.97863   0.82150   0.00000  Uiso   1.00
Cl967  Cl    0.60040   0.71574   0.80882   0.00000  Uiso   1.00
Cl968  Cl    0.39960   0.95092   0.85783   0.00000  Uiso   1.00
Cl969  Cl    0.57587   0.89434   0.72719   0.00000  Uiso   1.00
Cl970  Cl    0.42413   0.77232   0.93947   0.00000  Uiso   1.00
F971   F     0.58549   0.95735   0.81138   0.00000  Uiso   1.00
F972   F     0.41451   0.70932   0.85528   0.00000  Uiso   1.00
F973   F     0.56548   0.88579   0.96079   0.00000  Uiso   1.00
F974   F     0.43452   0.78088   0.70588   0.00000  Uiso   1.00
H975   H     0.65823   0.83211   0.78031   0.00000  Uiso   1.00
H976   H     0.34177   0.83456   0.88635   0.00000  Uiso   1.00
N977   N     0.49999   0.83332   0.95240   0.00000  Uiso   1.00
N978   N     0.50001   0.83334   0.71427   0.00000  Uiso   1.00
O979   O     0.50000   0.77225   0.87154   0.00000  Uiso   1.00
O980   O     0.50000   0.89442   0.79513   0.00000  Uiso   1.00
O981   O     0.50000   0.77226   0.79510   0.00000  Uiso   1.00
O982   O     0.50000   0.89441   0.87157   0.00000  Uiso   1.00
O983   O     0.42392   0.83333   0.86261   0.00000  Uiso   1.00
O984   O     0.57608   0.83334   0.80405   0.00000  Uiso   1.00
O985   O     0.42392   0.83334   0.78617   0.00000  Uiso   1.00
O986   O     0.57608   0.83333   0.88050   0.00000  Uiso   1.00
Zn987  Zn    0.50000   0.83333   0.88437   0.00000  Uiso   1.00
Zn988  Zn    0.50000   0.83334   0.78229   0.00000  Uiso   1.00
C989   C     0.83360   0.75349   0.83349   0.00000  Uiso   1.00
C990   C     0.79004   0.68803   0.84516   0.00000  Uiso   1.00
C991   C     0.83265   0.95729   0.83290   0.00000  Uiso   1.00
C992   C     0.83402   0.70938   0.83377   0.00000  Uiso   1.00
C993   C     0.86613   0.85966   0.69420   0.00000  Uiso   1.00
C994   C     0.80053   0.80701   0.97247   0.00000  Uiso   1.00
C995   C     0.86604   0.85956   0.97973   0.00000  Uiso   1.00
C996   C     0.80062   0.80711   0.68694   0.00000  Uiso   1.00
C997   C     0.83307   0.91317   0.83317   0.00000  Uiso   1.00
C998   C     0.73378   0.83323   0.82143   0.00000  Uiso   1.00
C999   C     0.93288   0.83344   0.84524   0.00000  Uiso   1.00
C1000  C     0.67874   0.83298   0.81504   0.00000  Uiso   1.00
C1001  C     0.98793   0.83369   0.85162   0.00000  Uiso   1.00
C1002  C     0.87751   0.68854   0.82185   0.00000  Uiso   1.00
C1003  C     0.78916   0.97813   0.84481   0.00000  Uiso   1.00
C1004  C     0.87663   0.97863   0.82150   0.00000  Uiso   1.00
Cl1005 Cl    0.93373   0.71574   0.80882   0.00000  Uiso   1.00
Cl1006 Cl    0.73293   0.95092   0.85783   0.00000  Uiso   1.00
Cl1007 Cl    0.90920   0.89434   0.72719   0.00000  Uiso   1.00
Cl1008 Cl    0.75747   0.77232   0.93947   0.00000  Uiso   1.00
F1009  F     0.91883   0.95735   0.81138   0.00000  Uiso   1.00
F1010  F     0.74784   0.70932   0.85528   0.00000  Uiso   1.00
F1011  F     0.89881   0.88579   0.96079   0.00000  Uiso   1.00
F1012  F     0.76786   0.78088   0.70588   0.00000  Uiso   1.00
H1013  H     0.99156   0.83211   0.78031   0.00000  Uiso   1.00
H1014  H     0.67510   0.83456   0.88635   0.00000  Uiso   1.00
N1015  N     0.83332   0.83332   0.95240   0.00000  Uiso   1.00
N1016  N     0.83335   0.83334   0.71427   0.00000  Uiso   1.00
O1017  O     0.83333   0.77225   0.87154   0.00000  Uiso   1.00
O1018  O     0.83334   0.89442   0.79513   0.00000  Uiso   1.00
O1019  O     0.83333   0.77226   0.79510   0.00000  Uiso   1.00
O1020  O     0.83334   0.89441   0.87157   0.00000  Uiso   1.00
O1021  O     0.75725   0.83333   0.86261   0.00000  Uiso   1.00
O1022  O     0.90942   0.83334   0.80405   0.00000  Uiso   1.00
O1023  O     0.75725   0.83334   0.78617   0.00000  Uiso   1.00
O1024  O     0.90942   0.83333   0.88050   0.00000  Uiso   1.00
Zn1025 Zn    0.83333   0.83333   0.88437   0.00000  Uiso   1.00
Zn1026 Zn    0.83333   0.83334   0.78229   0.00000  Uiso   1.00
loop_
_geom_bond_atom_site_label_1
_geom_bond_atom_site_label_2
_geom_bond_distance
_geom_bond_site_symmetry_2
_ccdc_geom_bond_type
C1     C4      1.405   .     S
C1     O29     1.283   .     A
C1     O31     1.282   .     A
C2     F22     1.359   .     S
C2     C4      1.395   .     A
C2     C243    1.377   1_545 S
C3     C9      1.405   .     S
C3     C15     1.399   .     A
C3     C16     1.395   .     A
C4     C14     1.399   .     A
C5     Cl19    1.754   .     S
C5     N28     1.375   .     A
C5     C691    1.419   1_554 S
C6     Cl20    1.754   .     S
C6     N27     1.375   .     A
C6     C350    1.419   .     S
C7     N27     1.363   .     A
C7     F23     1.356   .     S
C7     C347    1.419   .     S
C8     F24     1.356   .     S
C8     N28     1.363   .     A
C8     C690    1.419   1_554 S
C9     O30     1.283   .     A
C9     O32     1.282   .     A
C10    O35     1.284   .     A
C10    C12     1.402   .     S
C10    O33     1.282   .     A
C11    C13     1.402   .     S
C11    O36     1.284   .     A
C11    O34     1.282   .     A
C12    C89     1.329   1_455 S
C12    H101    1.088   1_455 S
C13    C50     1.329   .     S
C13    H64     1.088   .     S
C14    Cl17    1.767   .     S
C14    C244    1.377   1_545 S
C15    Cl18    1.767   .     S
C15    C116    1.377   .     S
C16    F21     1.359   .     S
C16    C128    1.377   .     S
H25    C50     1.088   .     S
H26    C89     1.088   1_455 S
N27    Zn37    2.020   .     S
N28    Zn38    2.020   .     S
O29    Zn37    1.985   .     S
O30    Zn38    1.985   .     S
O31    Zn38    1.978   .     S
O32    Zn37    1.978   .     S
O33    Zn37    1.970   .     S
O34    Zn38    1.970   .     S
O35    Zn38    1.979   .     S
O36    Zn37    1.979   .     S
C39    C42     1.405   .     S
C39    O67     1.283   .     A
C39    O69     1.282   .     A
C40    F60     1.359   .     S
C40    C42     1.395   .     A
C40    C281    1.377   1_545 S
C41    C47     1.405   .     S
C41    C53     1.399   .     A
C41    C54     1.395   .     A
C42    C52     1.399   .     A
C43    Cl57    1.754   .     S
C43    N66     1.375   .     A
C43    C729    1.419   1_554 S
C44    Cl58    1.754   .     S
C44    N65     1.375   .     A
C44    C388    1.419   .     S
C45    N65     1.363   .     A
C45    F61     1.356   .     S
C45    C385    1.419   .     S
C46    F62     1.356   .     S
C46    N66     1.363   .     A
C46    C728    1.419   1_554 S
C47    O68     1.283   .     A
C47    O70     1.282   .     A
C48    O73     1.284   .     A
C48    C50     1.402   .     S
C48    O71     1.282   .     A
C49    C51     1.402   .     S
C49    O74     1.284   .     A
C49    O72     1.282   .     A
C51    C88     1.329   .     S
C51    H102    1.088   .     S
C52    Cl55    1.767   .     S
C52    C282    1.377   1_545 S
C53    Cl56    1.767   .     S
C53    C154    1.377   .     S
C54    F59     1.359   .     S
C54    C166    1.377   .     S
H63    C88     1.088   .     S
N65    Zn75    2.020   .     S
N66    Zn76    2.020   .     S
O67    Zn75    1.985   .     S
O68    Zn76    1.985   .     S
O69    Zn76    1.978   .     S
O70    Zn75    1.978   .     S
O71    Zn75    1.970   .     S
O72    Zn76    1.970   .     S
O73    Zn76    1.979   .     S
O74    Zn75    1.979   .     S
C77    C80     1.405   .     S
C77    O105    1.283   .     A
C77    O107    1.282   .     A
C78    F98     1.359   .     S
C78    C80     1.395   .     A
C78    C319    1.377   1_545 S
C79    C85     1.405   .     S
C79    C91     1.399   .     A
C79    C92     1.395   .     A
C80    C90     1.399   .     A
C81    Cl95    1.754   .     S
C81    N104    1.375   .     A
C81    C767    1.419   1_554 S
C82    Cl96    1.754   .     S
C82    N103    1.375   .     A
C82    C426    1.419   .     S
C83    N103    1.363   .     A
C83    F99     1.356   .     S
C83    C423    1.419   .     S
C84    F100    1.356   .     S
C84    N104    1.363   .     A
C84    C766    1.419   1_554 S
C85    O106    1.283   .     A
C85    O108    1.282   .     A
C86    O111    1.284   .     A
C86    C88     1.402   .     S
C86    O109    1.282   .     A
C87    C89     1.402   .     S
C87    O112    1.284   .     A
C87    O110    1.282   .     A
C89    C12     1.329   1_655 S
C89    H26     1.088   1_655 S
C90    Cl93    1.767   .     S
C90    C320    1.377   1_545 S
C91    Cl94    1.767   .     S
C91    C192    1.377   .     S
C92    F97     1.359   .     S
C92    C204    1.377   .     S
H101   C12     1.088   1_655 S
N103   Zn113   2.020   .     S
N104   Zn114   2.020   .     S
O105   Zn113   1.985   .     S
O106   Zn114   1.985   .     S
O107   Zn114   1.978   .     S
O108   Zn113   1.978   .     S
O109   Zn113   1.970   .     S
O110   Zn114   1.970   .     S
O111   Zn114   1.979   .     S
O112   Zn113   1.979   .     S
C115   C118    1.405   .     S
C115   O143    1.283   .     A
C115   O145    1.282   .     A
C116   F136    1.359   .     S
C116   C118    1.395   .     A
C117   C123    1.405   .     S
C117   C129    1.399   .     A
C117   C130    1.395   .     A
C118   C128    1.399   .     A
C119   Cl133   1.754   .     S
C119   N142    1.375   .     A
C119   C805    1.419   1_554 S
C120   Cl134   1.754   .     S
C120   N141    1.375   .     A
C120   C464    1.419   .     S
C121   N141    1.363   .     A
C121   F137    1.356   .     S
C121   C461    1.419   .     S
C122   F138    1.356   .     S
C122   N142    1.363   .     A
C122   C804    1.419   1_554 S
C123   O144    1.283   .     A
C123   O146    1.282   .     A
C124   O149    1.284   .     A
C124   C126    1.402   .     S
C124   O147    1.282   .     A
C125   C127    1.402   .     S
C125   O150    1.284   .     A
C125   O148    1.282   .     A
C126   C203    1.329   1_455 S
C126   H215    1.088   1_455 S
C127   C164    1.329   .     S
C127   H178    1.088   .     S
C128   Cl131   1.767   .     S
C129   Cl132   1.767   .     S
C129   C230    1.377   .     S
C130   F135    1.359   .     S
C130   C242    1.377   .     S
H139   C164    1.088   .     S
H140   C203    1.088   1_455 S
N141   Zn151   2.020   .     S
N142   Zn152   2.020   .     S
O143   Zn151   1.985   .     S
O144   Zn152   1.985   .     S
O145   Zn152   1.978   .     S
O146   Zn151   1.978   .     S
O147   Zn151   1.970   .     S
O148   Zn152   1.970   .     S
O149   Zn152   1.979   .     S
O150   Zn151   1.979   .     S
C153   C156    1.405   .     S
C153   O181    1.283   .     A
C153   O183    1.282   .     A
C154   F174    1.359   .     S
C154   C156    1.395   .     A
C155   C161    1.405   .     S
C155   C167    1.399   .     A
C155   C168    1.395   .     A
C156   C166    1.399   .     A
C157   Cl171   1.754   .     S
C157   N180    1.375   .     A
C157   C843    1.419   1_554 S
C158   Cl172   1.754   .     S
C158   N179    1.375   .     A
C158   C502    1.419   .     S
C159   N179    1.363   .     A
C159   F175    1.356   .     S
C159   C499    1.419   .     S
C160   F176    1.356   .     S
C160   N180    1.363   .     A
C160   C842    1.419   1_554 S
C161   O182    1.283   .     A
C161   O184    1.282   .     A
C162   O187    1.284   .     A
C162   C164    1.402   .     S
C162   O185    1.282   .     A
C163   C165    1.402   .     S
C163   O188    1.284   .     A
C163   O186    1.282   .     A
C165   C202    1.329   .     S
C165   H216    1.088   .     S
C166   Cl169   1.767   .     S
C167   Cl170   1.767   .     S
C167   C268    1.377   .     S
C168   F173    1.359   .     S
C168   C280    1.377   .     S
H177   C202    1.088   .     S
N179   Zn189   2.020   .     S
N180   Zn190   2.020   .     S
O181   Zn189   1.985   .     S
O182   Zn190   1.985   .     S
O183   Zn190   1.978   .     S
O184   Zn189   1.978   .     S
O185   Zn189   1.970   .     S
O186   Zn190   1.970   .     S
O187   Zn190   1.979   .     S
O188   Zn189   1.979   .     S
C191   C194    1.405   .     S
C191   O219    1.283   .     A
C191   O221    1.282   .     A
C192   F212    1.359   .     S
C192   C194    1.395   .     A
C193   C199    1.405   .     S
C193   C205    1.399   .     A
C193   C206    1.395   .     A
C194   C204    1.399   .     A
C195   Cl209   1.754   .     S
C195   N218    1.375   .     A
C195   C881    1.419   1_554 S
C196   Cl210   1.754   .     S
C196   N217    1.375   .     A
C196   C540    1.419   .     S
C197   N217    1.363   .     A
C197   F213    1.356   .     S
C197   C537    1.419   .     S
C198   F214    1.356   .     S
C198   N218    1.363   .     A
C198   C880    1.419   1_554 S
C199   O220    1.283   .     A
C199   O222    1.282   .     A
C200   O225    1.284   .     A
C200   C202    1.402   .     S
C200   O223    1.282   .     A
C201   C203    1.402   .     S
C201   O226    1.284   .     A
C201   O224    1.282   .     A
C203   C126    1.329   1_655 S
C203   H140    1.088   1_655 S
C204   Cl207   1.767   .     S
C205   Cl208   1.767   .     S
C205   C306    1.377   .     S
C206   F211    1.359   .     S
C206   C318    1.377   .     S
H215   C126    1.088   1_655 S
N217   Zn227   2.020   .     S
N218   Zn228   2.020   .     S
O219   Zn227   1.985   .     S
O220   Zn228   1.985   .     S
O221   Zn228   1.978   .     S
O222   Zn227   1.978   .     S
O223   Zn227   1.970   .     S
O224   Zn228   1.970   .     S
O225   Zn228   1.979   .     S
O226   Zn227   1.979   .     S
C229   C232    1.405   .     S
C229   O257    1.283   .     A
C229   O259    1.282   .     A
C230   F250    1.359   .     S
C230   C232    1.395   .     A
C231   C237    1.405   .     S
C231   C243    1.399   .     A
C231   C244    1.395   .     A
C232   C242    1.399   .     A
C233   Cl247   1.754   .     S
C233   N256    1.375   .     A
C233   C919    1.419   1_554 S
C234   Cl248   1.754   .     S
C234   N255    1.375   .     A
C234   C578    1.419   .     S
C235   N255    1.363   .     A
C235   F251    1.356   .     S
C235   C575    1.419   .     S
C236   F252    1.356   .     S
C236   N256    1.363   .     A
C236   C918    1.419   1_554 S
C237   O258    1.283   .     A
C237   O260    1.282   .     A
C238   O263    1.284   .     A
C238   C240    1.402   .     S
C238   O261    1.282   .     A
C239   C241    1.402   .     S
C239   O264    1.284   .     A
C239   O262    1.282   .     A
C240   C317    1.329   1_455 S
C240   H329    1.088   1_455 S
C241   C278    1.329   .     S
C241   H292    1.088   .     S
C242   Cl245   1.767   .     S
C243   Cl246   1.767   .     S
C243   C2      1.377   1_565 S
C244   F249    1.359   .     S
C244   C14     1.377   1_565 S
H253   C278    1.088   .     S
H254   C317    1.088   1_455 S
N255   Zn265   2.020   .     S
N256   Zn266   2.020   .     S
O257   Zn265   1.985   .     S
O258   Zn266   1.985   .     S
O259   Zn266   1.978   .     S
O260   Zn265   1.978   .     S
O261   Zn265   1.970   .     S
O262   Zn266   1.970   .     S
O263   Zn266   1.979   .     S
O264   Zn265   1.979   .     S
C267   C270    1.405   .     S
C267   O295    1.283   .     A
C267   O297    1.282   .     A
C268   F288    1.359   .     S
C268   C270    1.395   .     A
C269   C275    1.405   .     S
C269   C281    1.399   .     A
C269   C282    1.395   .     A
C270   C280    1.399   .     A
C271   Cl285   1.754   .     S
C271   N294    1.375   .     A
C271   C957    1.419   1_554 S
C272   Cl286   1.754   .     S
C272   N293    1.375   .     A
C272   C616    1.419   .     S
C273   N293    1.363   .     A
C273   F289    1.356   .     S
C273   C613    1.419   .     S
C274   F290    1.356   .     S
C274   N294    1.363   .     A
C274   C956    1.419   1_554 S
C275   O296    1.283   .     A
C275   O298    1.282   .     A
C276   O301    1.284   .     A
C276   C278    1.402   .     S
C276   O299    1.282   .     A
C277   C279    1.402   .     S
C277   O302    1.284   .     A
C277   O300    1.282   .     A
C279   C316    1.329   .     S
C279   H330    1.088   .     S
C280   Cl283   1.767   .     S
C281   Cl284   1.767   .     S
C281   C40     1.377   1_565 S
C282   F287    1.359   .     S
C282   C52     1.377   1_565 S
H291   C316    1.088   .     S
N293   Zn303   2.020   .     S
N294   Zn304   2.020   .     S
O295   Zn303   1.985   .     S
O296   Zn304   1.985   .     S
O297   Zn304   1.978   .     S
O298   Zn303   1.978   .     S
O299   Zn303   1.970   .     S
O300   Zn304   1.970   .     S
O301   Zn304   1.979   .     S
O302   Zn303   1.979   .     S
C305   C308    1.405   .     S
C305   O333    1.283   .     A
C305   O335    1.282   .     A
C306   F326    1.359   .     S
C306   C308    1.395   .     A
C307   C313    1.405   .     S
C307   C319    1.399   .     A
C307   C320    1.395   .     A
C308   C318    1.399   .     A
C309   Cl323   1.754   .     S
C309   N332    1.375   .     A
C309   C995    1.419   1_554 S
C310   Cl324   1.754   .     S
C310   N331    1.375   .     A
C310   C654    1.419   .     S
C311   N331    1.363   .     A
C311   F327    1.356   .     S
C311   C651    1.419   .     S
C312   F328    1.356   .     S
C312   N332    1.363   .     A
C312   C994    1.419   1_554 S
C313   O334    1.283   .     A
C313   O336    1.282   .     A
C314   O339    1.284   .     A
C314   C316    1.402   .     S
C314   O337    1.282   .     A
C315   C317    1.402   .     S
C315   O340    1.284   .     A
C315   O338    1.282   .     A
C317   C240    1.329   1_655 S
C317   H254    1.088   1_655 S
C318   Cl321   1.767   .     S
C319   Cl322   1.767   .     S
C319   C78     1.377   1_565 S
C320   F325    1.359   .     S
C320   C90     1.377   1_565 S
H329   C240    1.088   1_655 S
N331   Zn341   2.020   .     S
N332   Zn342   2.020   .     S
O333   Zn341   1.985   .     S
O334   Zn342   1.985   .     S
O335   Zn342   1.978   .     S
O336   Zn341   1.978   .     S
O337   Zn341   1.970   .     S
O338   Zn342   1.970   .     S
O339   Zn342   1.979   .     S
O340   Zn341   1.979   .     S
C343   C346    1.405   .     S
C343   O371    1.283   .     A
C343   O373    1.282   .     A
C344   F364    1.359   .     S
C344   C346    1.395   .     A
C344   C585    1.377   1_545 S
C345   C351    1.405   .     S
C345   C357    1.399   .     A
C345   C358    1.395   .     A
C346   C356    1.399   .     A
C347   Cl361   1.754   .     S
C347   N370    1.375   .     A
C348   Cl362   1.754   .     S
C348   N369    1.375   .     A
C348   C692    1.419   .     S
C349   N369    1.363   .     A
C349   F365    1.356   .     S
C349   C689    1.419   .     S
C350   F366    1.356   .     S
C350   N370    1.363   .     A
C351   O372    1.283   .     A
C351   O374    1.282   .     A
C352   O377    1.284   .     A
C352   C354    1.402   .     S
C352   O375    1.282   .     A
C353   C355    1.402   .     S
C353   O378    1.284   .     A
C353   O376    1.282   .     A
C354   C431    1.329   1_455 S
C354   H443    1.088   1_455 S
C355   C392    1.329   .     S
C355   H406    1.088   .     S
C356   Cl359   1.767   .     S
C356   C586    1.377   1_545 S
C357   Cl360   1.767   .     S
C357   C458    1.377   .     S
C358   F363    1.359   .     S
C358   C470    1.377   .     S
H367   C392    1.088   .     S
H368   C431    1.088   1_455 S
N369   Zn379   2.020   .     S
N370   Zn380   2.020   .     S
O371   Zn379   1.985   .     S
O372   Zn380   1.985   .     S
O373   Zn380   1.978   .     S
O374   Zn379   1.978   .     S
O375   Zn379   1.970   .     S
O376   Zn380   1.970   .     S
O377   Zn380   1.979   .     S
O378   Zn379   1.979   .     S
C381   C384    1.405   .     S
C381   O409    1.283   .     A
C381   O411    1.282   .     A
C382   F402    1.359   .     S
C382   C384    1.395   .     A
C382   C623    1.377   1_545 S
C383   C389    1.405   .     S
C383   C395    1.399   .     A
C383   C396    1.395   .     A
C384   C394    1.399   .     A
C385   Cl399   1.754   .     S
C385   N408    1.375   .     A
C386   Cl400   1.754   .     S
C386   N407    1.375   .     A
C386   C730    1.419   .     S
C387   N407    1.363   .     A
C387   F403    1.356   .     S
C387   C727    1.419   .     S
C388   F404    1.356   .     S
C388   N408    1.363   .     A
C389   O410    1.283   .     A
C389   O412    1.282   .     A
C390   O415    1.284   .     A
C390   C392    1.402   .     S
C390   O413    1.282   .     A
C391   C393    1.402   .     S
C391   O416    1.284   .     A
C391   O414    1.282   .     A
C393   C430    1.329   .     S
C393   H444    1.088   .     S
C394   Cl397   1.767   .     S
C394   C624    1.377   1_545 S
C395   Cl398   1.767   .     S
C395   C496    1.377   .     S
C396   F401    1.359   .     S
C396   C508    1.377   .     S
H405   C430    1.088   .     S
N407   Zn417   2.020   .     S
N408   Zn418   2.020   .     S
O409   Zn417   1.985   .     S
O410   Zn418   1.985   .     S
O411   Zn418   1.978   .     S
O412   Zn417   1.978   .     S
O413   Zn417   1.970   .     S
O414   Zn418   1.970   .     S
O415   Zn418   1.979   .     S
O416   Zn417   1.979   .     S
C419   C422    1.405   .     S
C419   O447    1.283   .     A
C419   O449    1.282   .     A
C420   F440    1.359   .     S
C420   C422    1.395   .     A
C420   C661    1.377   1_545 S
C421   C427    1.405   .     S
C421   C433    1.399   .     A
C421   C434    1.395   .     A
C422   C432    1.399   .     A
C423   Cl437   1.754   .     S
C423   N446    1.375   .     A
C424   Cl438   1.754   .     S
C424   N445    1.375   .     A
C424   C768    1.419   .     S
C425   N445    1.363   .     A
C425   F441    1.356   .     S
C425   C765    1.419   .     S
C426   F442    1.356   .     S
C426   N446    1.363   .     A
C427   O448    1.283   .     A
C427   O450    1.282   .     A
C428   O453    1.284   .     A
C428   C430    1.402   .     S
C428   O451    1.282   .     A
C429   C431    1.402   .     S
C429   O454    1.284   .     A
C429   O452    1.282   .     A
C431   C354    1.329   1_655 S
C431   H368    1.088   1_655 S
C432   Cl435   1.767   .     S
C432   C662    1.377   1_545 S
C433   Cl436   1.767   .     S
C433   C534    1.377   .     S
C434   F439    1.359   .     S
C434   C546    1.377   .     S
H443   C354    1.088   1_655 S
N445   Zn455   2.020   .     S
N446   Zn456   2.020   .     S
O447   Zn455   1.985   .     S
O448   Zn456   1.985   .     S
O449   Zn456   1.978   .     S
O450   Zn455   1.978   .     S
O451   Zn455   1.970   .     S
O452   Zn456   1.970   .     S
O453   Zn456   1.979   .     S
O454   Zn455   1.979   .     S
C457   C460    1.405   .     S
C457   O485    1.283   .     A
C457   O487    1.282   .     A
C458   F478    1.359   .     S
C458   C460    1.395   .     A
C459   C465    1.405   .     S
C459   C471    1.399   .     A
C459   C472    1.395   .     A
C460   C470    1.399   .     A
C461   Cl475   1.754   .     S
C461   N484    1.375   .     A
C462   Cl476   1.754   .     S
C462   N483    1.375   .     A
C462   C806    1.419   .     S
C463   N483    1.363   .     A
C463   F479    1.356   .     S
C463   C803    1.419   .     S
C464   F480    1.356   .     S
C464   N484    1.363   .     A
C465   O486    1.283   .     A
C465   O488    1.282   .     A
C466   O491    1.284   .     A
C466   C468    1.402   .     S
C466   O489    1.282   .     A
C467   C469    1.402   .     S
C467   O492    1.284   .     A
C467   O490    1.282   .     A
C468   C545    1.329   1_455 S
C468   H557    1.088   1_455 S
C469   C506    1.329   .     S
C469   H520    1.088   .     S
C470   Cl473   1.767   .     S
C471   Cl474   1.767   .     S
C471   C572    1.377   .     S
C472   F477    1.359   .     S
C472   C584    1.377   .     S
H481   C506    1.088   .     S
H482   C545    1.088   1_455 S
N483   Zn493   2.020   .     S
N484   Zn494   2.020   .     S
O485   Zn493   1.985   .     S
O486   Zn494   1.985   .     S
O487   Zn494   1.978   .     S
O488   Zn493   1.978   .     S
O489   Zn493   1.970   .     S
O490   Zn494   1.970   .     S
O491   Zn494   1.979   .     S
O492   Zn493   1.979   .     S
C495   C498    1.405   .     S
C495   O523    1.283   .     A
C495   O525    1.282   .     A
C496   F516    1.359   .     S
C496   C498    1.395   .     A
C497   C503    1.405   .     S
C497   C509    1.399   .     A
C497   C510    1.395   .     A
C498   C508    1.399   .     A
C499   Cl513   1.754   .     S
C499   N522    1.375   .     A
C500   Cl514   1.754   .     S
C500   N521    1.375   .     A
C500   C844    1.419   .     S
C501   N521    1.363   .     A
C501   F517    1.356   .     S
C501   C841    1.419   .     S
C502   F518    1.356   .     S
C502   N522    1.363   .     A
C503   O524    1.283   .     A
C503   O526    1.282   .     A
C504   O529    1.284   .     A
C504   C506    1.402   .     S
C504   O527    1.282   .     A
C505   C507    1.402   .     S
C505   O530    1.284   .     A
C505   O528    1.282   .     A
C507   C544    1.329   .     S
C507   H558    1.088   .     S
C508   Cl511   1.767   .     S
C509   Cl512   1.767   .     S
C509   C610    1.377   .     S
C510   F515    1.359   .     S
C510   C622    1.377   .     S
H519   C544    1.088   .     S
N521   Zn531   2.020   .     S
N522   Zn532   2.020   .     S
O523   Zn531   1.985   .     S
O524   Zn532   1.985   .     S
O525   Zn532   1.978   .     S
O526   Zn531   1.978   .     S
O527   Zn531   1.970   .     S
O528   Zn532   1.970   .     S
O529   Zn532   1.979   .     S
O530   Zn531   1.979   .     S
C533   C536    1.405   .     S
C533   O561    1.283   .     A
C533   O563    1.282   .     A
C534   F554    1.359   .     S
C534   C536    1.395   .     A
C535   C541    1.405   .     S
C535   C547    1.399   .     A
C535   C548    1.395   .     A
C536   C546    1.399   .     A
C537   Cl551   1.754   .     S
C537   N560    1.375   .     A
C538   Cl552   1.754   .     S
C538   N559    1.375   .     A
C538   C882    1.419   .     S
C539   N559    1.363   .     A
C539   F555    1.356   .     S
C539   C879    1.419   .     S
C540   F556    1.356   .     S
C540   N560    1.363   .     A
C541   O562    1.283   .     A
C541   O564    1.282   .     A
C542   O567    1.284   .     A
C542   C544    1.402   .     S
C542   O565    1.282   .     A
C543   C545    1.402   .     S
C543   O568    1.284   .     A
C543   O566    1.282   .     A
C545   C468    1.329   1_655 S
C545   H482    1.088   1_655 S
C546   Cl549   1.767   .     S
C547   Cl550   1.767   .     S
C547   C648    1.377   .     S
C548   F553    1.359   .     S
C548   C660    1.377   .     S
H557   C468    1.088   1_655 S
N559   Zn569   2.020   .     S
N560   Zn570   2.020   .     S
O561   Zn569   1.985   .     S
O562   Zn570   1.985   .     S
O563   Zn570   1.978   .     S
O564   Zn569   1.978   .     S
O565   Zn569   1.970   .     S
O566   Zn570   1.970   .     S
O567   Zn570   1.979   .     S
O568   Zn569   1.979   .     S
C571   C574    1.405   .     S
C571   O599    1.283   .     A
C571   O601    1.282   .     A
C572   F592    1.359   .     S
C572   C574    1.395   .     A
C573   C579    1.405   .     S
C573   C585    1.399   .     A
C573   C586    1.395   .     A
C574   C584    1.399   .     A
C575   Cl589   1.754   .     S
C575   N598    1.375   .     A
C576   Cl590   1.754   .     S
C576   N597    1.375   .     A
C576   C920    1.419   .     S
C577   N597    1.363   .     A
C577   F593    1.356   .     S
C577   C917    1.419   .     S
C578   F594    1.356   .     S
C578   N598    1.363   .     A
C579   O600    1.283   .     A
C579   O602    1.282   .     A
C580   O605    1.284   .     A
C580   C582    1.402   .     S
C580   O603    1.282   .     A
C581   C583    1.402   .     S
C581   O606    1.284   .     A
C581   O604    1.282   .     A
C582   C659    1.329   1_455 S
C582   H671    1.088   1_455 S
C583   C620    1.329   .     S
C583   H634    1.088   .     S
C584   Cl587   1.767   .     S
C585   Cl588   1.767   .     S
C585   C344    1.377   1_565 S
C586   F591    1.359   .     S
C586   C356    1.377   1_565 S
H595   C620    1.088   .     S
H596   C659    1.088   1_455 S
N597   Zn607   2.020   .     S
N598   Zn608   2.020   .     S
O599   Zn607   1.985   .     S
O600   Zn608   1.985   .     S
O601   Zn608   1.978   .     S
O602   Zn607   1.978   .     S
O603   Zn607   1.970   .     S
O604   Zn608   1.970   .     S
O605   Zn608   1.979   .     S
O606   Zn607   1.979   .     S
C609   C612    1.405   .     S
C609   O637    1.283   .     A
C609   O639    1.282   .     A
C610   F630    1.359   .     S
C610   C612    1.395   .     A
C611   C617    1.405   .     S
C611   C623    1.399   .     A
C611   C624    1.395   .     A
C612   C622    1.399   .     A
C613   Cl627   1.754   .     S
C613   N636    1.375   .     A
C614   Cl628   1.754   .     S
C614   N635    1.375   .     A
C614   C958    1.419   .     S
C615   N635    1.363   .     A
C615   F631    1.356   .     S
C615   C955    1.419   .     S
C616   F632    1.356   .     S
C616   N636    1.363   .     A
C617   O638    1.283   .     A
C617   O640    1.282   .     A
C618   O643    1.284   .     A
C618   C620    1.402   .     S
C618   O641    1.282   .     A
C619   C621    1.402   .     S
C619   O644    1.284   .     A
C619   O642    1.282   .     A
C621   C658    1.329   .     S
C621   H672    1.088   .     S
C622   Cl625   1.767   .     S
C623   Cl626   1.767   .     S
C623   C382    1.377   1_565 S
C624   F629    1.359   .     S
C624   C394    1.377   1_565 S
H633   C658    1.088   .     S
N635   Zn645   2.020   .     S
N636   Zn646   2.020   .     S
O637   Zn645   1.985   .     S
O638   Zn646   1.985   .     S
O639   Zn646   1.978   .     S
O640   Zn645   1.978   .     S
O641   Zn645   1.970   .     S
O642   Zn646   1.970   .     S
O643   Zn646   1.979   .     S
O644   Zn645   1.979   .     S
C647   C650    1.405   .     S
C647   O675    1.283   .     A
C647   O677    1.282   .     A
C648   F668    1.359   .     S
C648   C650    1.395   .     A
C649   C655    1.405   .     S
C649   C661    1.399   .     A
C649   C662    1.395   .     A
C650   C660    1.399   .     A
C651   Cl665   1.754   .     S
C651   N674    1.375   .     A
C652   Cl666   1.754   .     S
C652   N673    1.375   .     A
C652   C996    1.419   .     S
C653   N673    1.363   .     A
C653   F669    1.356   .     S
C653   C993    1.419   .     S
C654   F670    1.356   .     S
C654   N674    1.363   .     A
C655   O676    1.283   .     A
C655   O678    1.282   .     A
C656   O681    1.284   .     A
C656   C658    1.402   .     S
C656   O679    1.282   .     A
C657   C659    1.402   .     S
C657   O682    1.284   .     A
C657   O680    1.282   .     A
C659   C582    1.329   1_655 S
C659   H596    1.088   1_655 S
C660   Cl663   1.767   .     S
C661   Cl664   1.767   .     S
C661   C420    1.377   1_565 S
C662   F667    1.359   .     S
C662   C432    1.377   1_565 S
H671   C582    1.088   1_655 S
N673   Zn683   2.020   .     S
N674   Zn684   2.020   .     S
O675   Zn683   1.985   .     S
O676   Zn684   1.985   .     S
O677   Zn684   1.978   .     S
O678   Zn683   1.978   .     S
O679   Zn683   1.970   .     S
O680   Zn684   1.970   .     S
O681   Zn684   1.979   .     S
O682   Zn683   1.979   .     S
C685   C688    1.405   .     S
C685   O713    1.283   .     A
C685   O715    1.282   .     A
C686   F706    1.359   .     S
C686   C688    1.395   .     A
C686   C927    1.377   1_545 S
C687   C693    1.405   .     S
C687   C699    1.399   .     A
C687   C700    1.395   .     A
C688   C698    1.399   .     A
C689   Cl703   1.754   .     S
C689   N712    1.375   .     A
C690   Cl704   1.754   .     S
C690   N711    1.375   .     A
C690   C8      1.419   1_556 S
C691   N711    1.363   .     A
C691   F707    1.356   .     S
C691   C5      1.419   1_556 S
C692   F708    1.356   .     S
C692   N712    1.363   .     A
C693   O714    1.283   .     A
C693   O716    1.282   .     A
C694   O719    1.284   .     A
C694   C696    1.402   .     S
C694   O717    1.282   .     A
C695   C697    1.402   .     S
C695   O720    1.284   .     A
C695   O718    1.282   .     A
C696   C773    1.329   1_455 S
C696   H785    1.088   1_455 S
C697   C734    1.329   .     S
C697   H748    1.088   .     S
C698   Cl701   1.767   .     S
C698   C928    1.377   1_545 S
C699   Cl702   1.767   .     S
C699   C800    1.377   .     S
C700   F705    1.359   .     S
C700   C812    1.377   .     S
H709   C734    1.088   .     S
H710   C773    1.088   1_455 S
N711   Zn721   2.020   .     S
N712   Zn722   2.020   .     S
O713   Zn721   1.985   .     S
O714   Zn722   1.985   .     S
O715   Zn722   1.978   .     S
O716   Zn721   1.978   .     S
O717   Zn721   1.970   .     S
O718   Zn722   1.970   .     S
O719   Zn722   1.979   .     S
O720   Zn721   1.979   .     S
C723   C726    1.405   .     S
C723   O751    1.283   .     A
C723   O753    1.282   .     A
C724   F744    1.359   .     S
C724   C726    1.395   .     A
C724   C965    1.377   1_545 S
C725   C731    1.405   .     S
C725   C737    1.399   .     A
C725   C738    1.395   .     A
C726   C736    1.399   .     A
C727   Cl741   1.754   .     S
C727   N750    1.375   .     A
C728   Cl742   1.754   .     S
C728   N749    1.375   .     A
C728   C46     1.419   1_556 S
C729   N749    1.363   .     A
C729   F745    1.356   .     S
C729   C43     1.419   1_556 S
C730   F746    1.356   .     S
C730   N750    1.363   .     A
C731   O752    1.283   .     A
C731   O754    1.282   .     A
C732   O757    1.284   .     A
C732   C734    1.402   .     S
C732   O755    1.282   .     A
C733   C735    1.402   .     S
C733   O758    1.284   .     A
C733   O756    1.282   .     A
C735   C772    1.329   .     S
C735   H786    1.088   .     S
C736   Cl739   1.767   .     S
C736   C966    1.377   1_545 S
C737   Cl740   1.767   .     S
C737   C838    1.377   .     S
C738   F743    1.359   .     S
C738   C850    1.377   .     S
H747   C772    1.088   .     S
N749   Zn759   2.020   .     S
N750   Zn760   2.020   .     S
O751   Zn759   1.985   .     S
O752   Zn760   1.985   .     S
O753   Zn760   1.978   .     S
O754   Zn759   1.978   .     S
O755   Zn759   1.970   .     S
O756   Zn760   1.970   .     S
O757   Zn760   1.979   .     S
O758   Zn759   1.979   .     S
C761   C764    1.405   .     S
C761   O789    1.283   .     A
C761   O791    1.282   .     A
C762   F782    1.359   .     S
C762   C764    1.395   .     A
C762   C1003   1.377   1_545 S
C763   C769    1.405   .     S
C763   C775    1.399   .     A
C763   C776    1.395   .     A
C764   C774    1.399   .     A
C765   Cl779   1.754   .     S
C765   N788    1.375   .     A
C766   Cl780   1.754   .     S
C766   N787    1.375   .     A
C766   C84     1.419   1_556 S
C767   N787    1.363   .     A
C767   F783    1.356   .     S
C767   C81     1.419   1_556 S
C768   F784    1.356   .     S
C768   N788    1.363   .     A
C769   O790    1.283   .     A
C769   O792    1.282   .     A
C770   O795    1.284   .     A
C770   C772    1.402   .     S
C770   O793    1.282   .     A
C771   C773    1.402   .     S
C771   O796    1.284   .     A
C771   O794    1.282   .     A
C773   C696    1.329   1_655 S
C773   H710    1.088   1_655 S
C774   Cl777   1.767   .     S
C774   C1004   1.377   1_545 S
C775   Cl778   1.767   .     S
C775   C876    1.377   .     S
C776   F781    1.359   .     S
C776   C888    1.377   .     S
H785   C696    1.088   1_655 S
N787   Zn797   2.020   .     S
N788   Zn798   2.020   .     S
O789   Zn797   1.985   .     S
O790   Zn798   1.985   .     S
O791   Zn798   1.978   .     S
O792   Zn797   1.978   .     S
O793   Zn797   1.970   .     S
O794   Zn798   1.970   .     S
O795   Zn798   1.979   .     S
O796   Zn797   1.979   .     S
C799   C802    1.405   .     S
C799   O827    1.283   .     A
C799   O829    1.282   .     A
C800   F820    1.359   .     S
C800   C802    1.395   .     A
C801   C807    1.405   .     S
C801   C813    1.399   .     A
C801   C814    1.395   .     A
C802   C812    1.399   .     A
C803   Cl817   1.754   .     S
C803   N826    1.375   .     A
C804   Cl818   1.754   .     S
C804   N825    1.375   .     A
C804   C122    1.419   1_556 S
C805   N825    1.363   .     A
C805   F821    1.356   .     S
C805   C119    1.419   1_556 S
C806   F822    1.356   .     S
C806   N826    1.363   .     A
C807   O828    1.283   .     A
C807   O830    1.282   .     A
C808   O833    1.284   .     A
C808   C810    1.402   .     S
C808   O831    1.282   .     A
C809   C811    1.402   .     S
C809   O834    1.284   .     A
C809   O832    1.282   .     A
C810   C887    1.329   1_455 S
C810   H899    1.088   1_455 S
C811   C848    1.329   .     S
C811   H862    1.088   .     S
C812   Cl815   1.767   .     S
C813   Cl816   1.767   .     S
C813   C914    1.377   .     S
C814   F819    1.359   .     S
C814   C926    1.377   .     S
H823   C848    1.088   .     S
H824   C887    1.088   1_455 S
N825   Zn835   2.020   .     S
N826   Zn836   2.020   .     S
O827   Zn835   1.985   .     S
O828   Zn836   1.985   .     S
O829   Zn836   1.978   .     S
O830   Zn835   1.978   .     S
O831   Zn835   1.970   .     S
O832   Zn836   1.970   .     S
O833   Zn836   1.979   .     S
O834   Zn835   1.979   .     S
C837   C840    1.405   .     S
C837   O865    1.283   .     A
C837   O867    1.282   .     A
C838   F858    1.359   .     S
C838   C840    1.395   .     A
C839   C845    1.405   .     S
C839   C851    1.399   .     A
C839   C852    1.395   .     A
C840   C850    1.399   .     A
C841   Cl855   1.754   .     S
C841   N864    1.375   .     A
C842   Cl856   1.754   .     S
C842   N863    1.375   .     A
C842   C160    1.419   1_556 S
C843   N863    1.363   .     A
C843   F859    1.356   .     S
C843   C157    1.419   1_556 S
C844   F860    1.356   .     S
C844   N864    1.363   .     A
C845   O866    1.283   .     A
C845   O868    1.282   .     A
C846   O871    1.284   .     A
C846   C848    1.402   .     S
C846   O869    1.282   .     A
C847   C849    1.402   .     S
C847   O872    1.284   .     A
C847   O870    1.282   .     A
C849   C886    1.329   .     S
C849   H900    1.088   .     S
C850   Cl853   1.767   .     S
C851   Cl854   1.767   .     S
C851   C952    1.377   .     S
C852   F857    1.359   .     S
C852   C964    1.377   .     S
H861   C886    1.088   .     S
N863   Zn873   2.020   .     S
N864   Zn874   2.020   .     S
O865   Zn873   1.985   .     S
O866   Zn874   1.985   .     S
O867   Zn874   1.978   .     S
O868   Zn873   1.978   .     S
O869   Zn873   1.970   .     S
O870   Zn874   1.970   .     S
O871   Zn874   1.979   .     S
O872   Zn873   1.979   .     S
C875   C878    1.405   .     S
C875   O903    1.283   .     A
C875   O905    1.282   .     A
C876   F896    1.359   .     S
C876   C878    1.395   .     A
C877   C883    1.405   .     S
C877   C889    1.399   .     A
C877   C890    1.395   .     A
C878   C888    1.399   .     A
C879   Cl893   1.754   .     S
C879   N902    1.375   .     A
C880   Cl894   1.754   .     S
C880   N901    1.375   .     A
C880   C198    1.419   1_556 S
C881   N901    1.363   .     A
C881   F897    1.356   .     S
C881   C195    1.419   1_556 S
C882   F898    1.356   .     S
C882   N902    1.363   .     A
C883   O904    1.283   .     A
C883   O906    1.282   .     A
C884   O909    1.284   .     A
C884   C886    1.402   .     S
C884   O907    1.282   .     A
C885   C887    1.402   .     S
C885   O910    1.284   .     A
C885   O908    1.282   .     A
C887   C810    1.329   1_655 S
C887   H824    1.088   1_655 S
C888   Cl891   1.767   .     S
C889   Cl892   1.767   .     S
C889   C990    1.377   .     S
C890   F895    1.359   .     S
C890   C1002   1.377   .     S
H899   C810    1.088   1_655 S
N901   Zn911   2.020   .     S
N902   Zn912   2.020   .     S
O903   Zn911   1.985   .     S
O904   Zn912   1.985   .     S
O905   Zn912   1.978   .     S
O906   Zn911   1.978   .     S
O907   Zn911   1.970   .     S
O908   Zn912   1.970   .     S
O909   Zn912   1.979   .     S
O910   Zn911   1.979   .     S
C913   C916    1.405   .     S
C913   O941    1.283   .     A
C913   O943    1.282   .     A
C914   F934    1.359   .     S
C914   C916    1.395   .     A
C915   C921    1.405   .     S
C915   C927    1.399   .     A
C915   C928    1.395   .     A
C916   C926    1.399   .     A
C917   Cl931   1.754   .     S
C917   N940    1.375   .     A
C918   Cl932   1.754   .     S
C918   N939    1.375   .     A
C918   C236    1.419   1_556 S
C919   N939    1.363   .     A
C919   F935    1.356   .     S
C919   C233    1.419   1_556 S
C920   F936    1.356   .     S
C920   N940    1.363   .     A
C921   O942    1.283   .     A
C921   O944    1.282   .     A
C922   O947    1.284   .     A
C922   C924    1.402   .     S
C922   O945    1.282   .     A
C923   C925    1.402   .     S
C923   O948    1.284   .     A
C923   O946    1.282   .     A
C924   C1001   1.329   1_455 S
C924   H1013   1.088   1_455 S
C925   C962    1.329   .     S
C925   H976    1.088   .     S
C926   Cl929   1.767   .     S
C927   Cl930   1.767   .     S
C927   C686    1.377   1_565 S
C928   F933    1.359   .     S
C928   C698    1.377   1_565 S
H937   C962    1.088   .     S
H938   C1001   1.088   1_455 S
N939   Zn949   2.020   .     S
N940   Zn950   2.020   .     S
O941   Zn949   1.985   .     S
O942   Zn950   1.985   .     S
O943   Zn950   1.978   .     S
O944   Zn949   1.978   .     S
O945   Zn949   1.970   .     S
O946   Zn950   1.970   .     S
O947   Zn950   1.979   .     S
O948   Zn949   1.979   .     S
C951   C954    1.405   .     S
C951   O979    1.283   .     A
C951   O981    1.282   .     A
C952   F972    1.359   .     S
C952   C954    1.395   .     A
C953   C959    1.405   .     S
C953   C965    1.399   .     A
C953   C966    1.395   .     A
C954   C964    1.399   .     A
C955   Cl969   1.754   .     S
C955   N978    1.375   .     A
C956   Cl970   1.754   .     S
C956   N977    1.375   .     A
C956   C274    1.419   1_556 S
C957   N977    1.363   .     A
C957   F973    1.356   .     S
C957   C271    1.419   1_556 S
C958   F974    1.356   .     S
C958   N978    1.363   .     A
C959   O980    1.283   .     A
C959   O982    1.282   .     A
C960   O985    1.284   .     A
C960   C962    1.402   .     S
C960   O983    1.282   .     A
C961   C963    1.402   .     S
C961   O986    1.284   .     A
C961   O984    1.282   .     A
C963   C1000   1.329   .     S
C963   H1014   1.088   .     S
C964   Cl967   1.767   .     S
C965   Cl968   1.767   .     S
C965   C724    1.377   1_565 S
C966   F971    1.359   .     S
C966   C736    1.377   1_565 S
H975   C1000   1.088   .     S
N977   Zn987   2.020   .     S
N978   Zn988   2.020   .     S
O979   Zn987   1.985   .     S
O980   Zn988   1.985   .     S
O981   Zn988   1.978   .     S
O982   Zn987   1.978   .     S
O983   Zn987   1.970   .     S
O984   Zn988   1.970   .     S
O985   Zn988   1.979   .     S
O986   Zn987   1.979   .     S
C989   C992    1.405   .     S
C989   O1017   1.283   .     A
C989   O1019   1.282   .     A
C990   F1010   1.359   .     S
C990   C992    1.395   .     A
C991   C997    1.405   .     S
C991   C1003   1.399   .     A
C991   C1004   1.395   .     A
C992   C1002   1.399   .     A
C993   Cl1007  1.754   .     S
C993   N1016   1.375   .     A
C994   Cl1008  1.754   .     S
C994   N1015   1.375   .     A
C994   C312    1.419   1_556 S
C995   N1015   1.363   .     A
C995   F1011   1.356   .     S
C995   C309    1.419   1_556 S
C996   F1012   1.356   .     S
C996   N1016   1.363   .     A
C997   O1018   1.283   .     A
C997   O1020   1.282   .     A
C998   O1023   1.284   .     A
C998   C1000   1.402   .     S
C998   O1021   1.282   .     A
C999   C1001   1.402   .     S
C999   O1024   1.284   .     A
C999   O1022   1.282   .     A
C1001  C924    1.329   1_655 S
C1001  H938    1.088   1_655 S
C1002  Cl1005  1.767   .     S
C1003  Cl1006  1.767   .     S
C1003  C762    1.377   1_565 S
C1004  F1009   1.359   .     S
C1004  C774    1.377   1_565 S
H1013  C924    1.088   1_655 S
N1015  Zn1025  2.020   .     S
N1016  Zn1026  2.020   .     S
O1017  Zn1025  1.985   .     S
O1018  Zn1026  1.985   .     S
O1019  Zn1026  1.978   .     S
O1020  Zn1025  1.978   .     S
O1021  Zn1025  1.970   .     S
O1022  Zn1026  1.970   .     S
O1023  Zn1026  1.979   .     S
O1024  Zn1025  1.979   .     S
