data_str_m2_o1_o17_pcu_sym.218
_audit_creation_date              2020-01-03
_audit_creation_method            'Materials Studio'
_symmetry_space_group_name_H-M    'P1'
_symmetry_Int_Tables_number       1
_symmetry_cell_setting            triclinic
loop_
_symmetry_equiv_pos_as_xyz
  x,y,z
_cell_length_a                    32.5308
_cell_length_b                    29.0616
_cell_length_c                    30.2191
_cell_angle_alpha                 89.9133
_cell_angle_beta                  101.2807
_cell_angle_gamma                 89.9807
loop_
_atom_site_label
_atom_site_type_symbol
_atom_site_fract_x
_atom_site_fract_y
_atom_site_fract_z
_atom_site_U_iso_or_equiv
_atom_site_adp_type
_atom_site_occupancy
C1     C     0.08762   0.16675   0.25086   0.00000  Uiso   1.00
C2     C     0.24570   0.16675   0.24908   0.00000  Uiso   1.00
C3     C     0.15586   0.08297   0.02165   0.00000  Uiso   1.00
C4     C     0.17365   0.24927   0.47787   0.00000  Uiso   1.00
C5     C     0.02136   0.12551   0.25087   0.00000  Uiso   1.00
C6     C     0.31200   0.20896   0.24998   0.00000  Uiso   1.00
C7     C     0.31179   0.12554   0.24800   0.00000  Uiso   1.00
C8     C     0.02140   0.20896   0.25060   0.00000  Uiso   1.00
C9     C     0.29033   0.16711   0.24874   0.00000  Uiso   1.00
C10    C     0.04297   0.16711   0.25106   0.00000  Uiso   1.00
C11    C     0.13728   0.02520   0.21861   0.00000  Uiso   1.00
C12    C     0.19577   0.30811   0.28172   0.00000  Uiso   1.00
C13    C     0.19613   0.02514   0.28135   0.00000  Uiso   1.00
C14    C     0.13765   0.30817   0.21817   0.00000  Uiso   1.00
C15    C     0.16789   0.16669   0.16468   0.00000  Uiso   1.00
C16    C     0.16523   0.16648   0.33532   0.00000  Uiso   1.00
C17    C     0.16535   0.20738   0.40715   0.00000  Uiso   1.00
C18    C     0.16222   0.12521   0.09215   0.00000  Uiso   1.00
C19    C     0.16327   0.16579   0.38350   0.00000  Uiso   1.00
C20    C     0.16900   0.16657   0.11640   0.00000  Uiso   1.00
C21    C     0.15965   0.12399   0.40621   0.00000  Uiso   1.00
C22    C     0.17642   0.20744   0.09424   0.00000  Uiso   1.00
C23    C     0.15970   0.12401   0.45252   0.00000  Uiso   1.00
C24    C     0.17345   0.20774   0.04751   0.00000  Uiso   1.00
C25    C     0.16465   0.16595   0.47648   0.00000  Uiso   1.00
C26    C     0.16645   0.16605   0.02329   0.00000  Uiso   1.00
C27    C     0.16774   0.20781   0.45367   0.00000  Uiso   1.00
C28    C     0.16160   0.12445   0.04586   0.00000  Uiso   1.00
C29    C     0.15533   0.08278   0.47541   0.00000  Uiso   1.00
C30    C     0.17718   0.24905   0.02455   0.00000  Uiso   1.00
Cu31   Cu    0.16667   0.21355   0.25000   0.00000  Uiso   1.00
Cu32   Cu    0.16667   0.11978   0.25000   0.00000  Uiso   1.00
H33    H     0.16543   0.23953   0.38934   0.00000  Uiso   1.00
H34    H     0.15733   0.09352   0.10933   0.00000  Uiso   1.00
H35    H     0.15130   0.05028   0.45760   0.00000  Uiso   1.00
H36    H     0.18225   0.28140   0.04255   0.00000  Uiso   1.00
H37    H     0.03749   0.09292   0.25296   0.00000  Uiso   1.00
H38    H     0.29604   0.24164   0.25030   0.00000  Uiso   1.00
H39    H     0.29555   0.09300   0.24516   0.00000  Uiso   1.00
H40    H     0.03746   0.24164   0.25092   0.00000  Uiso   1.00
N41    N     0.16667   0.28402   0.25000   0.00000  Uiso   1.00
N42    N     0.16667   0.04931   0.25000   0.00000  Uiso   1.00
O43    O     0.10655   0.20625   0.24999   0.00000  Uiso   1.00
O44    O     0.22679   0.12709   0.25000   0.00000  Uiso   1.00
O45    O     0.22679   0.20625   0.25000   0.00000  Uiso   1.00
O46    O     0.10655   0.12709   0.24999   0.00000  Uiso   1.00
O47    O     0.16666   0.20627   0.18513   0.00000  Uiso   1.00
O48    O     0.16668   0.12707   0.31487   0.00000  Uiso   1.00
O49    O     0.16668   0.20627   0.31487   0.00000  Uiso   1.00
O50    O     0.16666   0.12707   0.18513   0.00000  Uiso   1.00
F51    F     0.15580   0.08333   0.38355   0.00000  Uiso   1.00
F52    F     0.18760   0.24662   0.11804   0.00000  Uiso   1.00
F53    F     0.15115   0.04254   0.04271   0.00000  Uiso   1.00
F54    F     0.17689   0.28992   0.45657   0.00000  Uiso   1.00
S55    S     0.09514   0.05486   0.17911   0.00000  Uiso   1.00
O56    O     0.09257   0.03639   0.13235   0.00000  Uiso   1.00
O57    O     0.05507   0.04390   0.19451   0.00000  Uiso   1.00
O58    O     0.09335   0.11177   0.17044   0.00000  Uiso   1.00
H59    H     0.06573   0.11788   0.15079   0.00000  Uiso   1.00
S60    S     0.23248   0.27835   0.32707   0.00000  Uiso   1.00
O61    O     0.27597   0.29670   0.32989   0.00000  Uiso   1.00
O62    O     0.21828   0.28923   0.37024   0.00000  Uiso   1.00
O63    O     0.24048   0.22143   0.32896   0.00000  Uiso   1.00
H64    H     0.25841   0.21521   0.35884   0.00000  Uiso   1.00
S65    S     0.23859   0.05481   0.32045   0.00000  Uiso   1.00
O66    O     0.24228   0.03618   0.36732   0.00000  Uiso   1.00
O67    O     0.27836   0.04438   0.30423   0.00000  Uiso   1.00
O68    O     0.23995   0.11164   0.32945   0.00000  Uiso   1.00
H69    H     0.26801   0.11802   0.34800   0.00000  Uiso   1.00
S70    S     0.10166   0.27844   0.17215   0.00000  Uiso   1.00
O71    O     0.05814   0.29732   0.16729   0.00000  Uiso   1.00
O72    O     0.11747   0.28835   0.12962   0.00000  Uiso   1.00
O73    O     0.09290   0.22168   0.17108   0.00000  Uiso   1.00
H74    H     0.07609   0.21514   0.14070   0.00000  Uiso   1.00
C75    C     0.42095   0.16675   0.25086   0.00000  Uiso   1.00
C76    C     0.57903   0.16675   0.24908   0.00000  Uiso   1.00
C77    C     0.48920   0.08297   0.02165   0.00000  Uiso   1.00
C78    C     0.50698   0.24927   0.47787   0.00000  Uiso   1.00
C79    C     0.35470   0.12551   0.25087   0.00000  Uiso   1.00
C80    C     0.64534   0.20896   0.24998   0.00000  Uiso   1.00
C81    C     0.64512   0.12554   0.24800   0.00000  Uiso   1.00
C82    C     0.35474   0.20896   0.25060   0.00000  Uiso   1.00
C83    C     0.62366   0.16711   0.24874   0.00000  Uiso   1.00
C84    C     0.37630   0.16711   0.25106   0.00000  Uiso   1.00
C85    C     0.47061   0.02520   0.21861   0.00000  Uiso   1.00
C86    C     0.52910   0.30811   0.28172   0.00000  Uiso   1.00
C87    C     0.52946   0.02514   0.28135   0.00000  Uiso   1.00
C88    C     0.47098   0.30817   0.21817   0.00000  Uiso   1.00
C89    C     0.50122   0.16669   0.16468   0.00000  Uiso   1.00
C90    C     0.49856   0.16648   0.33532   0.00000  Uiso   1.00
C91    C     0.49869   0.20738   0.40715   0.00000  Uiso   1.00
C92    C     0.49555   0.12521   0.09215   0.00000  Uiso   1.00
C93    C     0.49661   0.16579   0.38350   0.00000  Uiso   1.00
C94    C     0.50233   0.16657   0.11640   0.00000  Uiso   1.00
C95    C     0.49299   0.12399   0.40621   0.00000  Uiso   1.00
C96    C     0.50976   0.20744   0.09424   0.00000  Uiso   1.00
C97    C     0.49303   0.12401   0.45252   0.00000  Uiso   1.00
C98    C     0.50679   0.20774   0.04751   0.00000  Uiso   1.00
C99    C     0.49799   0.16595   0.47648   0.00000  Uiso   1.00
C100   C     0.49979   0.16605   0.02329   0.00000  Uiso   1.00
C101   C     0.50107   0.20781   0.45367   0.00000  Uiso   1.00
C102   C     0.49493   0.12445   0.04586   0.00000  Uiso   1.00
C103   C     0.48866   0.08278   0.47541   0.00000  Uiso   1.00
C104   C     0.51051   0.24905   0.02455   0.00000  Uiso   1.00
Cu105  Cu    0.50000   0.21355   0.25000   0.00000  Uiso   1.00
Cu106  Cu    0.50000   0.11978   0.25000   0.00000  Uiso   1.00
H107   H     0.49876   0.23953   0.38934   0.00000  Uiso   1.00
H108   H     0.49067   0.09352   0.10933   0.00000  Uiso   1.00
H109   H     0.48463   0.05028   0.45760   0.00000  Uiso   1.00
H110   H     0.51559   0.28140   0.04255   0.00000  Uiso   1.00
H111   H     0.37083   0.09292   0.25296   0.00000  Uiso   1.00
H112   H     0.62938   0.24164   0.25030   0.00000  Uiso   1.00
H113   H     0.62888   0.09300   0.24516   0.00000  Uiso   1.00
H114   H     0.37079   0.24164   0.25092   0.00000  Uiso   1.00
N115   N     0.50000   0.28402   0.25000   0.00000  Uiso   1.00
N116   N     0.50000   0.04931   0.25000   0.00000  Uiso   1.00
O117   O     0.43988   0.20625   0.24999   0.00000  Uiso   1.00
O118   O     0.56012   0.12709   0.25000   0.00000  Uiso   1.00
O119   O     0.56012   0.20625   0.25000   0.00000  Uiso   1.00
O120   O     0.43988   0.12709   0.24999   0.00000  Uiso   1.00
O121   O     0.49999   0.20627   0.18513   0.00000  Uiso   1.00
O122   O     0.50001   0.12707   0.31487   0.00000  Uiso   1.00
O123   O     0.50001   0.20627   0.31487   0.00000  Uiso   1.00
O124   O     0.49999   0.12707   0.18513   0.00000  Uiso   1.00
F125   F     0.48914   0.08333   0.38355   0.00000  Uiso   1.00
F126   F     0.52094   0.24662   0.11804   0.00000  Uiso   1.00
F127   F     0.48448   0.04254   0.04271   0.00000  Uiso   1.00
F128   F     0.51022   0.28992   0.45657   0.00000  Uiso   1.00
S129   S     0.42848   0.05486   0.17911   0.00000  Uiso   1.00
O130   O     0.42591   0.03639   0.13235   0.00000  Uiso   1.00
O131   O     0.38841   0.04390   0.19451   0.00000  Uiso   1.00
O132   O     0.42669   0.11177   0.17044   0.00000  Uiso   1.00
H133   H     0.39907   0.11788   0.15079   0.00000  Uiso   1.00
S134   S     0.56582   0.27835   0.32707   0.00000  Uiso   1.00
O135   O     0.60930   0.29670   0.32989   0.00000  Uiso   1.00
O136   O     0.55162   0.28923   0.37024   0.00000  Uiso   1.00
O137   O     0.57381   0.22143   0.32896   0.00000  Uiso   1.00
H138   H     0.59175   0.21521   0.35884   0.00000  Uiso   1.00
S139   S     0.57193   0.05481   0.32045   0.00000  Uiso   1.00
O140   O     0.57562   0.03618   0.36732   0.00000  Uiso   1.00
O141   O     0.61169   0.04438   0.30423   0.00000  Uiso   1.00
O142   O     0.57328   0.11164   0.32945   0.00000  Uiso   1.00
H143   H     0.60134   0.11802   0.34800   0.00000  Uiso   1.00
S144   S     0.43500   0.27844   0.17215   0.00000  Uiso   1.00
O145   O     0.39147   0.29732   0.16729   0.00000  Uiso   1.00
O146   O     0.45081   0.28835   0.12962   0.00000  Uiso   1.00
O147   O     0.42623   0.22168   0.17108   0.00000  Uiso   1.00
H148   H     0.40942   0.21514   0.14070   0.00000  Uiso   1.00
C149   C     0.75429   0.16675   0.25086   0.00000  Uiso   1.00
C150   C     0.91236   0.16675   0.24908   0.00000  Uiso   1.00
C151   C     0.82253   0.08297   0.02165   0.00000  Uiso   1.00
C152   C     0.84032   0.24927   0.47787   0.00000  Uiso   1.00
C153   C     0.68803   0.12551   0.25087   0.00000  Uiso   1.00
C154   C     0.97867   0.20896   0.24998   0.00000  Uiso   1.00
C155   C     0.97846   0.12554   0.24800   0.00000  Uiso   1.00
C156   C     0.68807   0.20896   0.25060   0.00000  Uiso   1.00
C157   C     0.95699   0.16711   0.24874   0.00000  Uiso   1.00
C158   C     0.70963   0.16711   0.25106   0.00000  Uiso   1.00
C159   C     0.80394   0.02520   0.21861   0.00000  Uiso   1.00
C160   C     0.86243   0.30811   0.28172   0.00000  Uiso   1.00
C161   C     0.86279   0.02514   0.28135   0.00000  Uiso   1.00
C162   C     0.80432   0.30817   0.21817   0.00000  Uiso   1.00
C163   C     0.83456   0.16669   0.16468   0.00000  Uiso   1.00
C164   C     0.83190   0.16648   0.33532   0.00000  Uiso   1.00
C165   C     0.83202   0.20738   0.40715   0.00000  Uiso   1.00
C166   C     0.82888   0.12521   0.09215   0.00000  Uiso   1.00
C167   C     0.82994   0.16579   0.38350   0.00000  Uiso   1.00
C168   C     0.83566   0.16657   0.11640   0.00000  Uiso   1.00
C169   C     0.82632   0.12399   0.40621   0.00000  Uiso   1.00
C170   C     0.84309   0.20744   0.09424   0.00000  Uiso   1.00
C171   C     0.82636   0.12401   0.45252   0.00000  Uiso   1.00
C172   C     0.84012   0.20774   0.04751   0.00000  Uiso   1.00
C173   C     0.83132   0.16595   0.47648   0.00000  Uiso   1.00
C174   C     0.83312   0.16605   0.02329   0.00000  Uiso   1.00
C175   C     0.83440   0.20781   0.45367   0.00000  Uiso   1.00
C176   C     0.82827   0.12445   0.04586   0.00000  Uiso   1.00
C177   C     0.82199   0.08278   0.47541   0.00000  Uiso   1.00
C178   C     0.84385   0.24905   0.02455   0.00000  Uiso   1.00
Cu179  Cu    0.83333   0.21355   0.25000   0.00000  Uiso   1.00
Cu180  Cu    0.83333   0.11978   0.25000   0.00000  Uiso   1.00
H181   H     0.83210   0.23953   0.38934   0.00000  Uiso   1.00
H182   H     0.82400   0.09352   0.10933   0.00000  Uiso   1.00
H183   H     0.81797   0.05028   0.45760   0.00000  Uiso   1.00
H184   H     0.84892   0.28140   0.04255   0.00000  Uiso   1.00
H185   H     0.70416   0.09292   0.25296   0.00000  Uiso   1.00
H186   H     0.96271   0.24164   0.25030   0.00000  Uiso   1.00
H187   H     0.96222   0.09300   0.24516   0.00000  Uiso   1.00
H188   H     0.70412   0.24164   0.25092   0.00000  Uiso   1.00
N189   N     0.83333   0.28402   0.25000   0.00000  Uiso   1.00
N190   N     0.83333   0.04931   0.25000   0.00000  Uiso   1.00
O191   O     0.77321   0.20625   0.24999   0.00000  Uiso   1.00
O192   O     0.89345   0.12709   0.25000   0.00000  Uiso   1.00
O193   O     0.89345   0.20625   0.25000   0.00000  Uiso   1.00
O194   O     0.77321   0.12709   0.24999   0.00000  Uiso   1.00
O195   O     0.83332   0.20627   0.18513   0.00000  Uiso   1.00
O196   O     0.83334   0.12707   0.31487   0.00000  Uiso   1.00
O197   O     0.83334   0.20627   0.31487   0.00000  Uiso   1.00
O198   O     0.83332   0.12707   0.18513   0.00000  Uiso   1.00
F199   F     0.82247   0.08333   0.38355   0.00000  Uiso   1.00
F200   F     0.85427   0.24662   0.11804   0.00000  Uiso   1.00
F201   F     0.81782   0.04254   0.04271   0.00000  Uiso   1.00
F202   F     0.84355   0.28992   0.45657   0.00000  Uiso   1.00
S203   S     0.76181   0.05486   0.17911   0.00000  Uiso   1.00
O204   O     0.75924   0.03639   0.13235   0.00000  Uiso   1.00
O205   O     0.72174   0.04390   0.19451   0.00000  Uiso   1.00
O206   O     0.76002   0.11177   0.17044   0.00000  Uiso   1.00
H207   H     0.73240   0.11788   0.15079   0.00000  Uiso   1.00
S208   S     0.89915   0.27835   0.32707   0.00000  Uiso   1.00
O209   O     0.94263   0.29670   0.32989   0.00000  Uiso   1.00
O210   O     0.88495   0.28923   0.37024   0.00000  Uiso   1.00
O211   O     0.90715   0.22143   0.32896   0.00000  Uiso   1.00
H212   H     0.92508   0.21521   0.35884   0.00000  Uiso   1.00
S213   S     0.90526   0.05481   0.32045   0.00000  Uiso   1.00
O214   O     0.90895   0.03618   0.36732   0.00000  Uiso   1.00
O215   O     0.94502   0.04438   0.30423   0.00000  Uiso   1.00
O216   O     0.90661   0.11164   0.32945   0.00000  Uiso   1.00
H217   H     0.93468   0.11802   0.34800   0.00000  Uiso   1.00
S218   S     0.76833   0.27844   0.17215   0.00000  Uiso   1.00
O219   O     0.72481   0.29732   0.16729   0.00000  Uiso   1.00
O220   O     0.78414   0.28835   0.12962   0.00000  Uiso   1.00
O221   O     0.75957   0.22168   0.17108   0.00000  Uiso   1.00
H222   H     0.74276   0.21514   0.14070   0.00000  Uiso   1.00
C223   C     0.08762   0.50008   0.25086   0.00000  Uiso   1.00
C224   C     0.24570   0.50008   0.24908   0.00000  Uiso   1.00
C225   C     0.15586   0.41630   0.02165   0.00000  Uiso   1.00
C226   C     0.17365   0.58261   0.47787   0.00000  Uiso   1.00
C227   C     0.02136   0.45884   0.25087   0.00000  Uiso   1.00
C228   C     0.31200   0.54229   0.24998   0.00000  Uiso   1.00
C229   C     0.31179   0.45887   0.24800   0.00000  Uiso   1.00
C230   C     0.02140   0.54229   0.25060   0.00000  Uiso   1.00
C231   C     0.29033   0.50045   0.24874   0.00000  Uiso   1.00
C232   C     0.04297   0.50044   0.25106   0.00000  Uiso   1.00
C233   C     0.13728   0.35853   0.21861   0.00000  Uiso   1.00
C234   C     0.19577   0.64144   0.28172   0.00000  Uiso   1.00
C235   C     0.19613   0.35847   0.28135   0.00000  Uiso   1.00
C236   C     0.13765   0.64151   0.21817   0.00000  Uiso   1.00
C237   C     0.16789   0.50002   0.16468   0.00000  Uiso   1.00
C238   C     0.16523   0.49981   0.33532   0.00000  Uiso   1.00
C239   C     0.16535   0.54071   0.40715   0.00000  Uiso   1.00
C240   C     0.16222   0.45854   0.09215   0.00000  Uiso   1.00
C241   C     0.16327   0.49913   0.38350   0.00000  Uiso   1.00
C242   C     0.16900   0.49990   0.11640   0.00000  Uiso   1.00
C243   C     0.15965   0.45732   0.40621   0.00000  Uiso   1.00
C244   C     0.17642   0.54077   0.09424   0.00000  Uiso   1.00
C245   C     0.15970   0.45734   0.45252   0.00000  Uiso   1.00
C246   C     0.17345   0.54107   0.04751   0.00000  Uiso   1.00
C247   C     0.16465   0.49928   0.47648   0.00000  Uiso   1.00
C248   C     0.16645   0.49938   0.02329   0.00000  Uiso   1.00
C249   C     0.16774   0.54114   0.45367   0.00000  Uiso   1.00
C250   C     0.16160   0.45778   0.04586   0.00000  Uiso   1.00
C251   C     0.15533   0.41611   0.47541   0.00000  Uiso   1.00
C252   C     0.17718   0.58238   0.02455   0.00000  Uiso   1.00
Cu253  Cu    0.16667   0.54689   0.25000   0.00000  Uiso   1.00
Cu254  Cu    0.16667   0.45311   0.25000   0.00000  Uiso   1.00
H255   H     0.16543   0.57286   0.38934   0.00000  Uiso   1.00
H256   H     0.15733   0.42685   0.10933   0.00000  Uiso   1.00
H257   H     0.15130   0.38361   0.45760   0.00000  Uiso   1.00
H258   H     0.18225   0.61474   0.04255   0.00000  Uiso   1.00
H259   H     0.03749   0.42625   0.25296   0.00000  Uiso   1.00
H260   H     0.29604   0.57497   0.25030   0.00000  Uiso   1.00
H261   H     0.29555   0.42633   0.24516   0.00000  Uiso   1.00
H262   H     0.03746   0.57498   0.25092   0.00000  Uiso   1.00
N263   N     0.16667   0.61736   0.25000   0.00000  Uiso   1.00
N264   N     0.16667   0.38264   0.25000   0.00000  Uiso   1.00
O265   O     0.10655   0.53958   0.24999   0.00000  Uiso   1.00
O266   O     0.22679   0.46042   0.25000   0.00000  Uiso   1.00
O267   O     0.22679   0.53958   0.25000   0.00000  Uiso   1.00
O268   O     0.10655   0.46042   0.24999   0.00000  Uiso   1.00
O269   O     0.16666   0.53960   0.18513   0.00000  Uiso   1.00
O270   O     0.16668   0.46040   0.31487   0.00000  Uiso   1.00
O271   O     0.16668   0.53960   0.31487   0.00000  Uiso   1.00
O272   O     0.16666   0.46040   0.18513   0.00000  Uiso   1.00
F273   F     0.15580   0.41666   0.38355   0.00000  Uiso   1.00
F274   F     0.18760   0.57996   0.11804   0.00000  Uiso   1.00
F275   F     0.15115   0.37587   0.04271   0.00000  Uiso   1.00
F276   F     0.17689   0.62325   0.45657   0.00000  Uiso   1.00
S277   S     0.09514   0.38820   0.17911   0.00000  Uiso   1.00
O278   O     0.09257   0.36972   0.13235   0.00000  Uiso   1.00
O279   O     0.05507   0.37724   0.19451   0.00000  Uiso   1.00
O280   O     0.09335   0.44510   0.17044   0.00000  Uiso   1.00
H281   H     0.06573   0.45122   0.15079   0.00000  Uiso   1.00
S282   S     0.23248   0.61168   0.32707   0.00000  Uiso   1.00
O283   O     0.27597   0.63004   0.32989   0.00000  Uiso   1.00
O284   O     0.21828   0.62257   0.37024   0.00000  Uiso   1.00
O285   O     0.24048   0.55477   0.32896   0.00000  Uiso   1.00
H286   H     0.25841   0.54854   0.35884   0.00000  Uiso   1.00
S287   S     0.23859   0.38814   0.32045   0.00000  Uiso   1.00
O288   O     0.24228   0.36951   0.36732   0.00000  Uiso   1.00
O289   O     0.27836   0.37772   0.30423   0.00000  Uiso   1.00
O290   O     0.23995   0.44497   0.32945   0.00000  Uiso   1.00
H291   H     0.26801   0.45135   0.34800   0.00000  Uiso   1.00
S292   S     0.10166   0.61177   0.17215   0.00000  Uiso   1.00
O293   O     0.05814   0.63065   0.16729   0.00000  Uiso   1.00
O294   O     0.11747   0.62169   0.12962   0.00000  Uiso   1.00
O295   O     0.09290   0.55502   0.17108   0.00000  Uiso   1.00
H296   H     0.07609   0.54847   0.14070   0.00000  Uiso   1.00
C297   C     0.42095   0.50008   0.25086   0.00000  Uiso   1.00
C298   C     0.57903   0.50008   0.24908   0.00000  Uiso   1.00
C299   C     0.48920   0.41630   0.02165   0.00000  Uiso   1.00
C300   C     0.50698   0.58261   0.47787   0.00000  Uiso   1.00
C301   C     0.35470   0.45884   0.25087   0.00000  Uiso   1.00
C302   C     0.64534   0.54229   0.24998   0.00000  Uiso   1.00
C303   C     0.64512   0.45887   0.24800   0.00000  Uiso   1.00
C304   C     0.35474   0.54229   0.25060   0.00000  Uiso   1.00
C305   C     0.62366   0.50045   0.24874   0.00000  Uiso   1.00
C306   C     0.37630   0.50044   0.25106   0.00000  Uiso   1.00
C307   C     0.47061   0.35853   0.21861   0.00000  Uiso   1.00
C308   C     0.52910   0.64144   0.28172   0.00000  Uiso   1.00
C309   C     0.52946   0.35847   0.28135   0.00000  Uiso   1.00
C310   C     0.47098   0.64151   0.21817   0.00000  Uiso   1.00
C311   C     0.50122   0.50002   0.16468   0.00000  Uiso   1.00
C312   C     0.49856   0.49981   0.33532   0.00000  Uiso   1.00
C313   C     0.49869   0.54071   0.40715   0.00000  Uiso   1.00
C314   C     0.49555   0.45854   0.09215   0.00000  Uiso   1.00
C315   C     0.49661   0.49913   0.38350   0.00000  Uiso   1.00
C316   C     0.50233   0.49990   0.11640   0.00000  Uiso   1.00
C317   C     0.49299   0.45732   0.40621   0.00000  Uiso   1.00
C318   C     0.50976   0.54077   0.09424   0.00000  Uiso   1.00
C319   C     0.49303   0.45734   0.45252   0.00000  Uiso   1.00
C320   C     0.50679   0.54107   0.04751   0.00000  Uiso   1.00
C321   C     0.49799   0.49928   0.47648   0.00000  Uiso   1.00
C322   C     0.49979   0.49938   0.02329   0.00000  Uiso   1.00
C323   C     0.50107   0.54114   0.45367   0.00000  Uiso   1.00
C324   C     0.49493   0.45778   0.04586   0.00000  Uiso   1.00
C325   C     0.48866   0.41611   0.47541   0.00000  Uiso   1.00
C326   C     0.51051   0.58238   0.02455   0.00000  Uiso   1.00
Cu327  Cu    0.50000   0.54689   0.25000   0.00000  Uiso   1.00
Cu328  Cu    0.50000   0.45311   0.25000   0.00000  Uiso   1.00
H329   H     0.49876   0.57286   0.38934   0.00000  Uiso   1.00
H330   H     0.49067   0.42685   0.10933   0.00000  Uiso   1.00
H331   H     0.48463   0.38361   0.45760   0.00000  Uiso   1.00
H332   H     0.51559   0.61474   0.04255   0.00000  Uiso   1.00
H333   H     0.37083   0.42625   0.25296   0.00000  Uiso   1.00
H334   H     0.62938   0.57497   0.25030   0.00000  Uiso   1.00
H335   H     0.62888   0.42633   0.24516   0.00000  Uiso   1.00
H336   H     0.37079   0.57498   0.25092   0.00000  Uiso   1.00
N337   N     0.50000   0.61736   0.25000   0.00000  Uiso   1.00
N338   N     0.50000   0.38264   0.25000   0.00000  Uiso   1.00
O339   O     0.43988   0.53958   0.24999   0.00000  Uiso   1.00
O340   O     0.56012   0.46042   0.25000   0.00000  Uiso   1.00
O341   O     0.56012   0.53958   0.25000   0.00000  Uiso   1.00
O342   O     0.43988   0.46042   0.24999   0.00000  Uiso   1.00
O343   O     0.49999   0.53960   0.18513   0.00000  Uiso   1.00
O344   O     0.50001   0.46040   0.31487   0.00000  Uiso   1.00
O345   O     0.50001   0.53960   0.31487   0.00000  Uiso   1.00
O346   O     0.49999   0.46040   0.18513   0.00000  Uiso   1.00
F347   F     0.48914   0.41666   0.38355   0.00000  Uiso   1.00
F348   F     0.52094   0.57996   0.11804   0.00000  Uiso   1.00
F349   F     0.48448   0.37587   0.04271   0.00000  Uiso   1.00
F350   F     0.51022   0.62325   0.45657   0.00000  Uiso   1.00
S351   S     0.42848   0.38820   0.17911   0.00000  Uiso   1.00
O352   O     0.42591   0.36972   0.13235   0.00000  Uiso   1.00
O353   O     0.38841   0.37724   0.19451   0.00000  Uiso   1.00
O354   O     0.42669   0.44510   0.17044   0.00000  Uiso   1.00
H355   H     0.39907   0.45122   0.15079   0.00000  Uiso   1.00
S356   S     0.56582   0.61168   0.32707   0.00000  Uiso   1.00
O357   O     0.60930   0.63004   0.32989   0.00000  Uiso   1.00
O358   O     0.55162   0.62257   0.37024   0.00000  Uiso   1.00
O359   O     0.57381   0.55477   0.32896   0.00000  Uiso   1.00
H360   H     0.59175   0.54854   0.35884   0.00000  Uiso   1.00
S361   S     0.57193   0.38814   0.32045   0.00000  Uiso   1.00
O362   O     0.57562   0.36951   0.36732   0.00000  Uiso   1.00
O363   O     0.61169   0.37772   0.30423   0.00000  Uiso   1.00
O364   O     0.57328   0.44497   0.32945   0.00000  Uiso   1.00
H365   H     0.60134   0.45135   0.34800   0.00000  Uiso   1.00
S366   S     0.43500   0.61177   0.17215   0.00000  Uiso   1.00
O367   O     0.39147   0.63065   0.16729   0.00000  Uiso   1.00
O368   O     0.45081   0.62169   0.12962   0.00000  Uiso   1.00
O369   O     0.42623   0.55502   0.17108   0.00000  Uiso   1.00
H370   H     0.40942   0.54847   0.14070   0.00000  Uiso   1.00
C371   C     0.75429   0.50008   0.25086   0.00000  Uiso   1.00
C372   C     0.91236   0.50008   0.24908   0.00000  Uiso   1.00
C373   C     0.82253   0.41630   0.02165   0.00000  Uiso   1.00
C374   C     0.84032   0.58261   0.47787   0.00000  Uiso   1.00
C375   C     0.68803   0.45884   0.25087   0.00000  Uiso   1.00
C376   C     0.97867   0.54229   0.24998   0.00000  Uiso   1.00
C377   C     0.97846   0.45887   0.24800   0.00000  Uiso   1.00
C378   C     0.68807   0.54229   0.25060   0.00000  Uiso   1.00
C379   C     0.95699   0.50045   0.24874   0.00000  Uiso   1.00
C380   C     0.70963   0.50044   0.25106   0.00000  Uiso   1.00
C381   C     0.80394   0.35853   0.21861   0.00000  Uiso   1.00
C382   C     0.86243   0.64144   0.28172   0.00000  Uiso   1.00
C383   C     0.86279   0.35847   0.28135   0.00000  Uiso   1.00
C384   C     0.80432   0.64151   0.21817   0.00000  Uiso   1.00
C385   C     0.83456   0.50002   0.16468   0.00000  Uiso   1.00
C386   C     0.83190   0.49981   0.33532   0.00000  Uiso   1.00
C387   C     0.83202   0.54071   0.40715   0.00000  Uiso   1.00
C388   C     0.82888   0.45854   0.09215   0.00000  Uiso   1.00
C389   C     0.82994   0.49913   0.38350   0.00000  Uiso   1.00
C390   C     0.83566   0.49990   0.11640   0.00000  Uiso   1.00
C391   C     0.82632   0.45732   0.40621   0.00000  Uiso   1.00
C392   C     0.84309   0.54077   0.09424   0.00000  Uiso   1.00
C393   C     0.82636   0.45734   0.45252   0.00000  Uiso   1.00
C394   C     0.84012   0.54107   0.04751   0.00000  Uiso   1.00
C395   C     0.83132   0.49928   0.47648   0.00000  Uiso   1.00
C396   C     0.83312   0.49938   0.02329   0.00000  Uiso   1.00
C397   C     0.83440   0.54114   0.45367   0.00000  Uiso   1.00
C398   C     0.82827   0.45778   0.04586   0.00000  Uiso   1.00
C399   C     0.82199   0.41611   0.47541   0.00000  Uiso   1.00
C400   C     0.84385   0.58238   0.02455   0.00000  Uiso   1.00
Cu401  Cu    0.83333   0.54689   0.25000   0.00000  Uiso   1.00
Cu402  Cu    0.83333   0.45311   0.25000   0.00000  Uiso   1.00
H403   H     0.83210   0.57286   0.38934   0.00000  Uiso   1.00
H404   H     0.82400   0.42685   0.10933   0.00000  Uiso   1.00
H405   H     0.81797   0.38361   0.45760   0.00000  Uiso   1.00
H406   H     0.84892   0.61474   0.04255   0.00000  Uiso   1.00
H407   H     0.70416   0.42625   0.25296   0.00000  Uiso   1.00
H408   H     0.96271   0.57497   0.25030   0.00000  Uiso   1.00
H409   H     0.96222   0.42633   0.24516   0.00000  Uiso   1.00
H410   H     0.70412   0.57498   0.25092   0.00000  Uiso   1.00
N411   N     0.83333   0.61736   0.25000   0.00000  Uiso   1.00
N412   N     0.83333   0.38264   0.25000   0.00000  Uiso   1.00
O413   O     0.77321   0.53958   0.24999   0.00000  Uiso   1.00
O414   O     0.89345   0.46042   0.25000   0.00000  Uiso   1.00
O415   O     0.89345   0.53958   0.25000   0.00000  Uiso   1.00
O416   O     0.77321   0.46042   0.24999   0.00000  Uiso   1.00
O417   O     0.83332   0.53960   0.18513   0.00000  Uiso   1.00
O418   O     0.83334   0.46040   0.31487   0.00000  Uiso   1.00
O419   O     0.83334   0.53960   0.31487   0.00000  Uiso   1.00
O420   O     0.83332   0.46040   0.18513   0.00000  Uiso   1.00
F421   F     0.82247   0.41666   0.38355   0.00000  Uiso   1.00
F422   F     0.85427   0.57996   0.11804   0.00000  Uiso   1.00
F423   F     0.81782   0.37587   0.04271   0.00000  Uiso   1.00
F424   F     0.84355   0.62325   0.45657   0.00000  Uiso   1.00
S425   S     0.76181   0.38820   0.17911   0.00000  Uiso   1.00
O426   O     0.75924   0.36972   0.13235   0.00000  Uiso   1.00
O427   O     0.72174   0.37724   0.19451   0.00000  Uiso   1.00
O428   O     0.76002   0.44510   0.17044   0.00000  Uiso   1.00
H429   H     0.73240   0.45122   0.15079   0.00000  Uiso   1.00
S430   S     0.89915   0.61168   0.32707   0.00000  Uiso   1.00
O431   O     0.94263   0.63004   0.32989   0.00000  Uiso   1.00
O432   O     0.88495   0.62257   0.37024   0.00000  Uiso   1.00
O433   O     0.90715   0.55477   0.32896   0.00000  Uiso   1.00
H434   H     0.92508   0.54854   0.35884   0.00000  Uiso   1.00
S435   S     0.90526   0.38814   0.32045   0.00000  Uiso   1.00
O436   O     0.90895   0.36951   0.36732   0.00000  Uiso   1.00
O437   O     0.94502   0.37772   0.30423   0.00000  Uiso   1.00
O438   O     0.90661   0.44497   0.32945   0.00000  Uiso   1.00
H439   H     0.93468   0.45135   0.34800   0.00000  Uiso   1.00
S440   S     0.76833   0.61177   0.17215   0.00000  Uiso   1.00
O441   O     0.72481   0.63065   0.16729   0.00000  Uiso   1.00
O442   O     0.78414   0.62169   0.12962   0.00000  Uiso   1.00
O443   O     0.75957   0.55502   0.17108   0.00000  Uiso   1.00
H444   H     0.74276   0.54847   0.14070   0.00000  Uiso   1.00
C445   C     0.08762   0.83342   0.25086   0.00000  Uiso   1.00
C446   C     0.24570   0.83341   0.24908   0.00000  Uiso   1.00
C447   C     0.15586   0.74964   0.02165   0.00000  Uiso   1.00
C448   C     0.17365   0.91594   0.47787   0.00000  Uiso   1.00
C449   C     0.02136   0.79218   0.25087   0.00000  Uiso   1.00
C450   C     0.31200   0.87562   0.24998   0.00000  Uiso   1.00
C451   C     0.31179   0.79220   0.24800   0.00000  Uiso   1.00
C452   C     0.02140   0.87563   0.25060   0.00000  Uiso   1.00
C453   C     0.29033   0.83378   0.24874   0.00000  Uiso   1.00
C454   C     0.04297   0.83377   0.25106   0.00000  Uiso   1.00
C455   C     0.13728   0.69186   0.21861   0.00000  Uiso   1.00
C456   C     0.19577   0.97478   0.28172   0.00000  Uiso   1.00
C457   C     0.19613   0.69180   0.28135   0.00000  Uiso   1.00
C458   C     0.13765   0.97484   0.21817   0.00000  Uiso   1.00
C459   C     0.16789   0.83336   0.16468   0.00000  Uiso   1.00
C460   C     0.16523   0.83314   0.33532   0.00000  Uiso   1.00
C461   C     0.16535   0.87405   0.40715   0.00000  Uiso   1.00
C462   C     0.16222   0.79188   0.09215   0.00000  Uiso   1.00
C463   C     0.16327   0.83246   0.38350   0.00000  Uiso   1.00
C464   C     0.16900   0.83324   0.11640   0.00000  Uiso   1.00
C465   C     0.15965   0.79066   0.40621   0.00000  Uiso   1.00
C466   C     0.17642   0.87410   0.09424   0.00000  Uiso   1.00
C467   C     0.15970   0.79067   0.45252   0.00000  Uiso   1.00
C468   C     0.17345   0.87440   0.04751   0.00000  Uiso   1.00
C469   C     0.16465   0.83261   0.47648   0.00000  Uiso   1.00
C470   C     0.16645   0.83272   0.02329   0.00000  Uiso   1.00
C471   C     0.16774   0.87448   0.45367   0.00000  Uiso   1.00
C472   C     0.16160   0.79111   0.04586   0.00000  Uiso   1.00
C473   C     0.15533   0.74945   0.47541   0.00000  Uiso   1.00
C474   C     0.17718   0.91572   0.02455   0.00000  Uiso   1.00
Cu475  Cu    0.16667   0.88022   0.25000   0.00000  Uiso   1.00
Cu476  Cu    0.16667   0.78645   0.25000   0.00000  Uiso   1.00
H477   H     0.16543   0.90620   0.38934   0.00000  Uiso   1.00
H478   H     0.15733   0.76019   0.10933   0.00000  Uiso   1.00
H479   H     0.15130   0.71694   0.45760   0.00000  Uiso   1.00
H480   H     0.18225   0.94807   0.04255   0.00000  Uiso   1.00
H481   H     0.03749   0.75958   0.25296   0.00000  Uiso   1.00
H482   H     0.29604   0.90830   0.25030   0.00000  Uiso   1.00
H483   H     0.29555   0.75967   0.24516   0.00000  Uiso   1.00
H484   H     0.03746   0.90831   0.25092   0.00000  Uiso   1.00
N485   N     0.16667   0.95069   0.25000   0.00000  Uiso   1.00
N486   N     0.16667   0.71598   0.25000   0.00000  Uiso   1.00
O487   O     0.10655   0.87291   0.24999   0.00000  Uiso   1.00
O488   O     0.22679   0.79375   0.25000   0.00000  Uiso   1.00
O489   O     0.22679   0.87291   0.25000   0.00000  Uiso   1.00
O490   O     0.10655   0.79375   0.24999   0.00000  Uiso   1.00
O491   O     0.16666   0.87293   0.18513   0.00000  Uiso   1.00
O492   O     0.16668   0.79373   0.31487   0.00000  Uiso   1.00
O493   O     0.16668   0.87293   0.31487   0.00000  Uiso   1.00
O494   O     0.16666   0.79373   0.18513   0.00000  Uiso   1.00
F495   F     0.15580   0.74999   0.38355   0.00000  Uiso   1.00
F496   F     0.18760   0.91329   0.11804   0.00000  Uiso   1.00
F497   F     0.15115   0.70920   0.04271   0.00000  Uiso   1.00
F498   F     0.17689   0.95659   0.45657   0.00000  Uiso   1.00
S499   S     0.09514   0.72153   0.17911   0.00000  Uiso   1.00
O500   O     0.09257   0.70306   0.13235   0.00000  Uiso   1.00
O501   O     0.05507   0.71057   0.19451   0.00000  Uiso   1.00
O502   O     0.09335   0.77844   0.17044   0.00000  Uiso   1.00
H503   H     0.06573   0.78455   0.15079   0.00000  Uiso   1.00
S504   S     0.23248   0.94501   0.32707   0.00000  Uiso   1.00
O505   O     0.27597   0.96337   0.32989   0.00000  Uiso   1.00
O506   O     0.21828   0.95590   0.37024   0.00000  Uiso   1.00
O507   O     0.24048   0.88810   0.32896   0.00000  Uiso   1.00
H508   H     0.25841   0.88188   0.35884   0.00000  Uiso   1.00
S509   S     0.23859   0.72148   0.32045   0.00000  Uiso   1.00
O510   O     0.24228   0.70284   0.36732   0.00000  Uiso   1.00
O511   O     0.27836   0.71105   0.30423   0.00000  Uiso   1.00
O512   O     0.23995   0.77830   0.32945   0.00000  Uiso   1.00
H513   H     0.26801   0.78468   0.34800   0.00000  Uiso   1.00
S514   S     0.10166   0.94511   0.17215   0.00000  Uiso   1.00
O515   O     0.05814   0.96399   0.16729   0.00000  Uiso   1.00
O516   O     0.11747   0.95502   0.12962   0.00000  Uiso   1.00
O517   O     0.09290   0.88835   0.17108   0.00000  Uiso   1.00
H518   H     0.07609   0.88180   0.14070   0.00000  Uiso   1.00
C519   C     0.42095   0.83342   0.25086   0.00000  Uiso   1.00
C520   C     0.57903   0.83341   0.24908   0.00000  Uiso   1.00
C521   C     0.48920   0.74964   0.02165   0.00000  Uiso   1.00
C522   C     0.50698   0.91594   0.47787   0.00000  Uiso   1.00
C523   C     0.35470   0.79218   0.25087   0.00000  Uiso   1.00
C524   C     0.64534   0.87562   0.24998   0.00000  Uiso   1.00
C525   C     0.64512   0.79220   0.24800   0.00000  Uiso   1.00
C526   C     0.35474   0.87563   0.25060   0.00000  Uiso   1.00
C527   C     0.62366   0.83378   0.24874   0.00000  Uiso   1.00
C528   C     0.37630   0.83377   0.25106   0.00000  Uiso   1.00
C529   C     0.47061   0.69186   0.21861   0.00000  Uiso   1.00
C530   C     0.52910   0.97478   0.28172   0.00000  Uiso   1.00
C531   C     0.52946   0.69180   0.28135   0.00000  Uiso   1.00
C532   C     0.47098   0.97484   0.21817   0.00000  Uiso   1.00
C533   C     0.50122   0.83336   0.16468   0.00000  Uiso   1.00
C534   C     0.49856   0.83314   0.33532   0.00000  Uiso   1.00
C535   C     0.49869   0.87405   0.40715   0.00000  Uiso   1.00
C536   C     0.49555   0.79188   0.09215   0.00000  Uiso   1.00
C537   C     0.49661   0.83246   0.38350   0.00000  Uiso   1.00
C538   C     0.50233   0.83324   0.11640   0.00000  Uiso   1.00
C539   C     0.49299   0.79066   0.40621   0.00000  Uiso   1.00
C540   C     0.50976   0.87410   0.09424   0.00000  Uiso   1.00
C541   C     0.49303   0.79067   0.45252   0.00000  Uiso   1.00
C542   C     0.50679   0.87440   0.04751   0.00000  Uiso   1.00
C543   C     0.49799   0.83261   0.47648   0.00000  Uiso   1.00
C544   C     0.49979   0.83272   0.02329   0.00000  Uiso   1.00
C545   C     0.50107   0.87448   0.45367   0.00000  Uiso   1.00
C546   C     0.49493   0.79111   0.04586   0.00000  Uiso   1.00
C547   C     0.48866   0.74945   0.47541   0.00000  Uiso   1.00
C548   C     0.51051   0.91572   0.02455   0.00000  Uiso   1.00
Cu549  Cu    0.50000   0.88022   0.25000   0.00000  Uiso   1.00
Cu550  Cu    0.50000   0.78645   0.25000   0.00000  Uiso   1.00
H551   H     0.49876   0.90620   0.38934   0.00000  Uiso   1.00
H552   H     0.49067   0.76019   0.10933   0.00000  Uiso   1.00
H553   H     0.48463   0.71694   0.45760   0.00000  Uiso   1.00
H554   H     0.51559   0.94807   0.04255   0.00000  Uiso   1.00
H555   H     0.37083   0.75958   0.25296   0.00000  Uiso   1.00
H556   H     0.62938   0.90830   0.25030   0.00000  Uiso   1.00
H557   H     0.62888   0.75967   0.24516   0.00000  Uiso   1.00
H558   H     0.37079   0.90831   0.25092   0.00000  Uiso   1.00
N559   N     0.50000   0.95069   0.25000   0.00000  Uiso   1.00
N560   N     0.50000   0.71598   0.25000   0.00000  Uiso   1.00
O561   O     0.43988   0.87291   0.24999   0.00000  Uiso   1.00
O562   O     0.56012   0.79375   0.25000   0.00000  Uiso   1.00
O563   O     0.56012   0.87291   0.25000   0.00000  Uiso   1.00
O564   O     0.43988   0.79375   0.24999   0.00000  Uiso   1.00
O565   O     0.49999   0.87293   0.18513   0.00000  Uiso   1.00
O566   O     0.50001   0.79373   0.31487   0.00000  Uiso   1.00
O567   O     0.50001   0.87293   0.31487   0.00000  Uiso   1.00
O568   O     0.49999   0.79373   0.18513   0.00000  Uiso   1.00
F569   F     0.48914   0.74999   0.38355   0.00000  Uiso   1.00
F570   F     0.52094   0.91329   0.11804   0.00000  Uiso   1.00
F571   F     0.48448   0.70920   0.04271   0.00000  Uiso   1.00
F572   F     0.51022   0.95659   0.45657   0.00000  Uiso   1.00
S573   S     0.42848   0.72153   0.17911   0.00000  Uiso   1.00
O574   O     0.42591   0.70306   0.13235   0.00000  Uiso   1.00
O575   O     0.38841   0.71057   0.19451   0.00000  Uiso   1.00
O576   O     0.42669   0.77844   0.17044   0.00000  Uiso   1.00
H577   H     0.39907   0.78455   0.15079   0.00000  Uiso   1.00
S578   S     0.56582   0.94501   0.32707   0.00000  Uiso   1.00
O579   O     0.60930   0.96337   0.32989   0.00000  Uiso   1.00
O580   O     0.55162   0.95590   0.37024   0.00000  Uiso   1.00
O581   O     0.57381   0.88810   0.32896   0.00000  Uiso   1.00
H582   H     0.59175   0.88188   0.35884   0.00000  Uiso   1.00
S583   S     0.57193   0.72148   0.32045   0.00000  Uiso   1.00
O584   O     0.57562   0.70284   0.36732   0.00000  Uiso   1.00
O585   O     0.61169   0.71105   0.30423   0.00000  Uiso   1.00
O586   O     0.57328   0.77830   0.32945   0.00000  Uiso   1.00
H587   H     0.60134   0.78468   0.34800   0.00000  Uiso   1.00
S588   S     0.43500   0.94511   0.17215   0.00000  Uiso   1.00
O589   O     0.39147   0.96399   0.16729   0.00000  Uiso   1.00
O590   O     0.45081   0.95502   0.12962   0.00000  Uiso   1.00
O591   O     0.42623   0.88835   0.17108   0.00000  Uiso   1.00
H592   H     0.40942   0.88180   0.14070   0.00000  Uiso   1.00
C593   C     0.75429   0.83342   0.25086   0.00000  Uiso   1.00
C594   C     0.91236   0.83341   0.24908   0.00000  Uiso   1.00
C595   C     0.82253   0.74964   0.02165   0.00000  Uiso   1.00
C596   C     0.84032   0.91594   0.47787   0.00000  Uiso   1.00
C597   C     0.68803   0.79218   0.25087   0.00000  Uiso   1.00
C598   C     0.97867   0.87562   0.24998   0.00000  Uiso   1.00
C599   C     0.97846   0.79220   0.24800   0.00000  Uiso   1.00
C600   C     0.68807   0.87563   0.25060   0.00000  Uiso   1.00
C601   C     0.95699   0.83378   0.24874   0.00000  Uiso   1.00
C602   C     0.70963   0.83377   0.25106   0.00000  Uiso   1.00
C603   C     0.80394   0.69186   0.21861   0.00000  Uiso   1.00
C604   C     0.86243   0.97478   0.28172   0.00000  Uiso   1.00
C605   C     0.86279   0.69180   0.28135   0.00000  Uiso   1.00
C606   C     0.80432   0.97484   0.21817   0.00000  Uiso   1.00
C607   C     0.83456   0.83336   0.16468   0.00000  Uiso   1.00
C608   C     0.83190   0.83314   0.33532   0.00000  Uiso   1.00
C609   C     0.83202   0.87405   0.40715   0.00000  Uiso   1.00
C610   C     0.82888   0.79188   0.09215   0.00000  Uiso   1.00
C611   C     0.82994   0.83246   0.38350   0.00000  Uiso   1.00
C612   C     0.83566   0.83324   0.11640   0.00000  Uiso   1.00
C613   C     0.82632   0.79066   0.40621   0.00000  Uiso   1.00
C614   C     0.84309   0.87410   0.09424   0.00000  Uiso   1.00
C615   C     0.82636   0.79067   0.45252   0.00000  Uiso   1.00
C616   C     0.84012   0.87440   0.04751   0.00000  Uiso   1.00
C617   C     0.83132   0.83261   0.47648   0.00000  Uiso   1.00
C618   C     0.83312   0.83272   0.02329   0.00000  Uiso   1.00
C619   C     0.83440   0.87448   0.45367   0.00000  Uiso   1.00
C620   C     0.82827   0.79111   0.04586   0.00000  Uiso   1.00
C621   C     0.82199   0.74945   0.47541   0.00000  Uiso   1.00
C622   C     0.84385   0.91572   0.02455   0.00000  Uiso   1.00
Cu623  Cu    0.83333   0.88022   0.25000   0.00000  Uiso   1.00
Cu624  Cu    0.83333   0.78645   0.25000   0.00000  Uiso   1.00
H625   H     0.83210   0.90620   0.38934   0.00000  Uiso   1.00
H626   H     0.82400   0.76019   0.10933   0.00000  Uiso   1.00
H627   H     0.81797   0.71694   0.45760   0.00000  Uiso   1.00
H628   H     0.84892   0.94807   0.04255   0.00000  Uiso   1.00
H629   H     0.70416   0.75958   0.25296   0.00000  Uiso   1.00
H630   H     0.96271   0.90830   0.25030   0.00000  Uiso   1.00
H631   H     0.96222   0.75967   0.24516   0.00000  Uiso   1.00
H632   H     0.70412   0.90831   0.25092   0.00000  Uiso   1.00
N633   N     0.83333   0.95069   0.25000   0.00000  Uiso   1.00
N634   N     0.83333   0.71598   0.25000   0.00000  Uiso   1.00
O635   O     0.77321   0.87291   0.24999   0.00000  Uiso   1.00
O636   O     0.89345   0.79375   0.25000   0.00000  Uiso   1.00
O637   O     0.89345   0.87291   0.25000   0.00000  Uiso   1.00
O638   O     0.77321   0.79375   0.24999   0.00000  Uiso   1.00
O639   O     0.83332   0.87293   0.18513   0.00000  Uiso   1.00
O640   O     0.83334   0.79373   0.31487   0.00000  Uiso   1.00
O641   O     0.83334   0.87293   0.31487   0.00000  Uiso   1.00
O642   O     0.83332   0.79373   0.18513   0.00000  Uiso   1.00
F643   F     0.82247   0.74999   0.38355   0.00000  Uiso   1.00
F644   F     0.85427   0.91329   0.11804   0.00000  Uiso   1.00
F645   F     0.81782   0.70920   0.04271   0.00000  Uiso   1.00
F646   F     0.84355   0.95659   0.45657   0.00000  Uiso   1.00
S647   S     0.76181   0.72153   0.17911   0.00000  Uiso   1.00
O648   O     0.75924   0.70306   0.13235   0.00000  Uiso   1.00
O649   O     0.72174   0.71057   0.19451   0.00000  Uiso   1.00
O650   O     0.76002   0.77844   0.17044   0.00000  Uiso   1.00
H651   H     0.73240   0.78455   0.15079   0.00000  Uiso   1.00
S652   S     0.89915   0.94501   0.32707   0.00000  Uiso   1.00
O653   O     0.94263   0.96337   0.32989   0.00000  Uiso   1.00
O654   O     0.88495   0.95590   0.37024   0.00000  Uiso   1.00
O655   O     0.90715   0.88810   0.32896   0.00000  Uiso   1.00
H656   H     0.92508   0.88188   0.35884   0.00000  Uiso   1.00
S657   S     0.90526   0.72148   0.32045   0.00000  Uiso   1.00
O658   O     0.90895   0.70284   0.36732   0.00000  Uiso   1.00
O659   O     0.94502   0.71105   0.30423   0.00000  Uiso   1.00
O660   O     0.90661   0.77830   0.32945   0.00000  Uiso   1.00
H661   H     0.93468   0.78468   0.34800   0.00000  Uiso   1.00
S662   S     0.76833   0.94511   0.17215   0.00000  Uiso   1.00
O663   O     0.72481   0.96399   0.16729   0.00000  Uiso   1.00
O664   O     0.78414   0.95502   0.12962   0.00000  Uiso   1.00
O665   O     0.75957   0.88835   0.17108   0.00000  Uiso   1.00
H666   H     0.74276   0.88180   0.14070   0.00000  Uiso   1.00
C667   C     0.08762   0.16675   0.75086   0.00000  Uiso   1.00
C668   C     0.24570   0.16675   0.74908   0.00000  Uiso   1.00
C669   C     0.15586   0.08297   0.52165   0.00000  Uiso   1.00
C670   C     0.17365   0.24927   0.97787   0.00000  Uiso   1.00
C671   C     0.02136   0.12551   0.75087   0.00000  Uiso   1.00
C672   C     0.31200   0.20896   0.74998   0.00000  Uiso   1.00
C673   C     0.31179   0.12554   0.74800   0.00000  Uiso   1.00
C674   C     0.02140   0.20896   0.75060   0.00000  Uiso   1.00
C675   C     0.29033   0.16711   0.74874   0.00000  Uiso   1.00
C676   C     0.04297   0.16711   0.75106   0.00000  Uiso   1.00
C677   C     0.13728   0.02520   0.71861   0.00000  Uiso   1.00
C678   C     0.19577   0.30811   0.78172   0.00000  Uiso   1.00
C679   C     0.19613   0.02514   0.78135   0.00000  Uiso   1.00
C680   C     0.13765   0.30817   0.71817   0.00000  Uiso   1.00
C681   C     0.16789   0.16669   0.66468   0.00000  Uiso   1.00
C682   C     0.16523   0.16648   0.83532   0.00000  Uiso   1.00
C683   C     0.16535   0.20738   0.90715   0.00000  Uiso   1.00
C684   C     0.16222   0.12521   0.59215   0.00000  Uiso   1.00
C685   C     0.16327   0.16579   0.88350   0.00000  Uiso   1.00
C686   C     0.16900   0.16657   0.61640   0.00000  Uiso   1.00
C687   C     0.15965   0.12399   0.90621   0.00000  Uiso   1.00
C688   C     0.17642   0.20744   0.59424   0.00000  Uiso   1.00
C689   C     0.15970   0.12401   0.95252   0.00000  Uiso   1.00
C690   C     0.17345   0.20774   0.54751   0.00000  Uiso   1.00
C691   C     0.16465   0.16595   0.97648   0.00000  Uiso   1.00
C692   C     0.16645   0.16605   0.52329   0.00000  Uiso   1.00
C693   C     0.16774   0.20781   0.95367   0.00000  Uiso   1.00
C694   C     0.16160   0.12445   0.54586   0.00000  Uiso   1.00
C695   C     0.15533   0.08278   0.97541   0.00000  Uiso   1.00
C696   C     0.17718   0.24905   0.52455   0.00000  Uiso   1.00
Cu697  Cu    0.16667   0.21355   0.75000   0.00000  Uiso   1.00
Cu698  Cu    0.16667   0.11978   0.75000   0.00000  Uiso   1.00
H699   H     0.16543   0.23953   0.88934   0.00000  Uiso   1.00
H700   H     0.15733   0.09352   0.60933   0.00000  Uiso   1.00
H701   H     0.15130   0.05028   0.95760   0.00000  Uiso   1.00
H702   H     0.18225   0.28140   0.54255   0.00000  Uiso   1.00
H703   H     0.03749   0.09292   0.75296   0.00000  Uiso   1.00
H704   H     0.29604   0.24164   0.75030   0.00000  Uiso   1.00
H705   H     0.29555   0.09300   0.74516   0.00000  Uiso   1.00
H706   H     0.03746   0.24164   0.75092   0.00000  Uiso   1.00
N707   N     0.16667   0.28402   0.75000   0.00000  Uiso   1.00
N708   N     0.16667   0.04931   0.75000   0.00000  Uiso   1.00
O709   O     0.10655   0.20625   0.74999   0.00000  Uiso   1.00
O710   O     0.22679   0.12709   0.75000   0.00000  Uiso   1.00
O711   O     0.22679   0.20625   0.75000   0.00000  Uiso   1.00
O712   O     0.10655   0.12709   0.74999   0.00000  Uiso   1.00
O713   O     0.16666   0.20627   0.68513   0.00000  Uiso   1.00
O714   O     0.16668   0.12707   0.81487   0.00000  Uiso   1.00
O715   O     0.16668   0.20627   0.81487   0.00000  Uiso   1.00
O716   O     0.16666   0.12707   0.68513   0.00000  Uiso   1.00
F717   F     0.15580   0.08333   0.88355   0.00000  Uiso   1.00
F718   F     0.18760   0.24662   0.61804   0.00000  Uiso   1.00
F719   F     0.15115   0.04254   0.54271   0.00000  Uiso   1.00
F720   F     0.17689   0.28992   0.95657   0.00000  Uiso   1.00
S721   S     0.09514   0.05486   0.67911   0.00000  Uiso   1.00
O722   O     0.09257   0.03639   0.63235   0.00000  Uiso   1.00
O723   O     0.05507   0.04390   0.69451   0.00000  Uiso   1.00
O724   O     0.09335   0.11177   0.67044   0.00000  Uiso   1.00
H725   H     0.06573   0.11788   0.65079   0.00000  Uiso   1.00
S726   S     0.23248   0.27835   0.82707   0.00000  Uiso   1.00
O727   O     0.27597   0.29670   0.82989   0.00000  Uiso   1.00
O728   O     0.21828   0.28923   0.87024   0.00000  Uiso   1.00
O729   O     0.24048   0.22143   0.82896   0.00000  Uiso   1.00
H730   H     0.25841   0.21521   0.85884   0.00000  Uiso   1.00
S731   S     0.23859   0.05481   0.82045   0.00000  Uiso   1.00
O732   O     0.24228   0.03618   0.86732   0.00000  Uiso   1.00
O733   O     0.27836   0.04438   0.80423   0.00000  Uiso   1.00
O734   O     0.23995   0.11164   0.82945   0.00000  Uiso   1.00
H735   H     0.26801   0.11802   0.84800   0.00000  Uiso   1.00
S736   S     0.10166   0.27844   0.67215   0.00000  Uiso   1.00
O737   O     0.05814   0.29732   0.66729   0.00000  Uiso   1.00
O738   O     0.11747   0.28835   0.62962   0.00000  Uiso   1.00
O739   O     0.09290   0.22168   0.67108   0.00000  Uiso   1.00
H740   H     0.07609   0.21514   0.64070   0.00000  Uiso   1.00
C741   C     0.42095   0.16675   0.75086   0.00000  Uiso   1.00
C742   C     0.57903   0.16675   0.74908   0.00000  Uiso   1.00
C743   C     0.48920   0.08297   0.52165   0.00000  Uiso   1.00
C744   C     0.50698   0.24927   0.97787   0.00000  Uiso   1.00
C745   C     0.35470   0.12551   0.75087   0.00000  Uiso   1.00
C746   C     0.64534   0.20896   0.74998   0.00000  Uiso   1.00
C747   C     0.64512   0.12554   0.74800   0.00000  Uiso   1.00
C748   C     0.35474   0.20896   0.75060   0.00000  Uiso   1.00
C749   C     0.62366   0.16711   0.74874   0.00000  Uiso   1.00
C750   C     0.37630   0.16711   0.75106   0.00000  Uiso   1.00
C751   C     0.47061   0.02520   0.71861   0.00000  Uiso   1.00
C752   C     0.52910   0.30811   0.78172   0.00000  Uiso   1.00
C753   C     0.52946   0.02514   0.78135   0.00000  Uiso   1.00
C754   C     0.47098   0.30817   0.71817   0.00000  Uiso   1.00
C755   C     0.50122   0.16669   0.66468   0.00000  Uiso   1.00
C756   C     0.49856   0.16648   0.83532   0.00000  Uiso   1.00
C757   C     0.49869   0.20738   0.90715   0.00000  Uiso   1.00
C758   C     0.49555   0.12521   0.59215   0.00000  Uiso   1.00
C759   C     0.49661   0.16579   0.88350   0.00000  Uiso   1.00
C760   C     0.50233   0.16657   0.61640   0.00000  Uiso   1.00
C761   C     0.49299   0.12399   0.90621   0.00000  Uiso   1.00
C762   C     0.50976   0.20744   0.59424   0.00000  Uiso   1.00
C763   C     0.49303   0.12401   0.95252   0.00000  Uiso   1.00
C764   C     0.50679   0.20774   0.54751   0.00000  Uiso   1.00
C765   C     0.49799   0.16595   0.97648   0.00000  Uiso   1.00
C766   C     0.49979   0.16605   0.52329   0.00000  Uiso   1.00
C767   C     0.50107   0.20781   0.95367   0.00000  Uiso   1.00
C768   C     0.49493   0.12445   0.54586   0.00000  Uiso   1.00
C769   C     0.48866   0.08278   0.97541   0.00000  Uiso   1.00
C770   C     0.51051   0.24905   0.52455   0.00000  Uiso   1.00
Cu771  Cu    0.50000   0.21355   0.75000   0.00000  Uiso   1.00
Cu772  Cu    0.50000   0.11978   0.75000   0.00000  Uiso   1.00
H773   H     0.49876   0.23953   0.88934   0.00000  Uiso   1.00
H774   H     0.49067   0.09352   0.60933   0.00000  Uiso   1.00
H775   H     0.48463   0.05028   0.95760   0.00000  Uiso   1.00
H776   H     0.51559   0.28140   0.54255   0.00000  Uiso   1.00
H777   H     0.37083   0.09292   0.75296   0.00000  Uiso   1.00
H778   H     0.62938   0.24164   0.75030   0.00000  Uiso   1.00
H779   H     0.62888   0.09300   0.74516   0.00000  Uiso   1.00
H780   H     0.37079   0.24164   0.75092   0.00000  Uiso   1.00
N781   N     0.50000   0.28402   0.75000   0.00000  Uiso   1.00
N782   N     0.50000   0.04931   0.75000   0.00000  Uiso   1.00
O783   O     0.43988   0.20625   0.74999   0.00000  Uiso   1.00
O784   O     0.56012   0.12709   0.75000   0.00000  Uiso   1.00
O785   O     0.56012   0.20625   0.75000   0.00000  Uiso   1.00
O786   O     0.43988   0.12709   0.74999   0.00000  Uiso   1.00
O787   O     0.49999   0.20627   0.68513   0.00000  Uiso   1.00
O788   O     0.50001   0.12707   0.81487   0.00000  Uiso   1.00
O789   O     0.50001   0.20627   0.81487   0.00000  Uiso   1.00
O790   O     0.49999   0.12707   0.68513   0.00000  Uiso   1.00
F791   F     0.48914   0.08333   0.88355   0.00000  Uiso   1.00
F792   F     0.52094   0.24662   0.61804   0.00000  Uiso   1.00
F793   F     0.48448   0.04254   0.54271   0.00000  Uiso   1.00
F794   F     0.51022   0.28992   0.95657   0.00000  Uiso   1.00
S795   S     0.42848   0.05486   0.67911   0.00000  Uiso   1.00
O796   O     0.42591   0.03639   0.63235   0.00000  Uiso   1.00
O797   O     0.38841   0.04390   0.69451   0.00000  Uiso   1.00
O798   O     0.42669   0.11177   0.67044   0.00000  Uiso   1.00
H799   H     0.39907   0.11788   0.65079   0.00000  Uiso   1.00
S800   S     0.56582   0.27835   0.82707   0.00000  Uiso   1.00
O801   O     0.60930   0.29670   0.82989   0.00000  Uiso   1.00
O802   O     0.55162   0.28923   0.87024   0.00000  Uiso   1.00
O803   O     0.57381   0.22143   0.82896   0.00000  Uiso   1.00
H804   H     0.59175   0.21521   0.85884   0.00000  Uiso   1.00
S805   S     0.57193   0.05481   0.82045   0.00000  Uiso   1.00
O806   O     0.57562   0.03618   0.86732   0.00000  Uiso   1.00
O807   O     0.61169   0.04438   0.80423   0.00000  Uiso   1.00
O808   O     0.57328   0.11164   0.82945   0.00000  Uiso   1.00
H809   H     0.60134   0.11802   0.84800   0.00000  Uiso   1.00
S810   S     0.43500   0.27844   0.67215   0.00000  Uiso   1.00
O811   O     0.39147   0.29732   0.66729   0.00000  Uiso   1.00
O812   O     0.45081   0.28835   0.62962   0.00000  Uiso   1.00
O813   O     0.42623   0.22168   0.67108   0.00000  Uiso   1.00
H814   H     0.40942   0.21514   0.64070   0.00000  Uiso   1.00
C815   C     0.75429   0.16675   0.75086   0.00000  Uiso   1.00
C816   C     0.91236   0.16675   0.74908   0.00000  Uiso   1.00
C817   C     0.82253   0.08297   0.52165   0.00000  Uiso   1.00
C818   C     0.84032   0.24927   0.97787   0.00000  Uiso   1.00
C819   C     0.68803   0.12551   0.75087   0.00000  Uiso   1.00
C820   C     0.97867   0.20896   0.74998   0.00000  Uiso   1.00
C821   C     0.97846   0.12554   0.74800   0.00000  Uiso   1.00
C822   C     0.68807   0.20896   0.75060   0.00000  Uiso   1.00
C823   C     0.95699   0.16711   0.74874   0.00000  Uiso   1.00
C824   C     0.70963   0.16711   0.75106   0.00000  Uiso   1.00
C825   C     0.80394   0.02520   0.71861   0.00000  Uiso   1.00
C826   C     0.86243   0.30811   0.78172   0.00000  Uiso   1.00
C827   C     0.86279   0.02514   0.78135   0.00000  Uiso   1.00
C828   C     0.80432   0.30817   0.71817   0.00000  Uiso   1.00
C829   C     0.83456   0.16669   0.66468   0.00000  Uiso   1.00
C830   C     0.83190   0.16648   0.83532   0.00000  Uiso   1.00
C831   C     0.83202   0.20738   0.90715   0.00000  Uiso   1.00
C832   C     0.82888   0.12521   0.59215   0.00000  Uiso   1.00
C833   C     0.82994   0.16579   0.88350   0.00000  Uiso   1.00
C834   C     0.83566   0.16657   0.61640   0.00000  Uiso   1.00
C835   C     0.82632   0.12399   0.90621   0.00000  Uiso   1.00
C836   C     0.84309   0.20744   0.59424   0.00000  Uiso   1.00
C837   C     0.82636   0.12401   0.95252   0.00000  Uiso   1.00
C838   C     0.84012   0.20774   0.54751   0.00000  Uiso   1.00
C839   C     0.83132   0.16595   0.97648   0.00000  Uiso   1.00
C840   C     0.83312   0.16605   0.52329   0.00000  Uiso   1.00
C841   C     0.83440   0.20781   0.95367   0.00000  Uiso   1.00
C842   C     0.82827   0.12445   0.54586   0.00000  Uiso   1.00
C843   C     0.82199   0.08278   0.97541   0.00000  Uiso   1.00
C844   C     0.84385   0.24905   0.52455   0.00000  Uiso   1.00
Cu845  Cu    0.83333   0.21355   0.75000   0.00000  Uiso   1.00
Cu846  Cu    0.83333   0.11978   0.75000   0.00000  Uiso   1.00
H847   H     0.83210   0.23953   0.88934   0.00000  Uiso   1.00
H848   H     0.82400   0.09352   0.60933   0.00000  Uiso   1.00
H849   H     0.81797   0.05028   0.95760   0.00000  Uiso   1.00
H850   H     0.84892   0.28140   0.54255   0.00000  Uiso   1.00
H851   H     0.70416   0.09292   0.75296   0.00000  Uiso   1.00
H852   H     0.96271   0.24164   0.75030   0.00000  Uiso   1.00
H853   H     0.96222   0.09300   0.74516   0.00000  Uiso   1.00
H854   H     0.70412   0.24164   0.75092   0.00000  Uiso   1.00
N855   N     0.83333   0.28402   0.75000   0.00000  Uiso   1.00
N856   N     0.83333   0.04931   0.75000   0.00000  Uiso   1.00
O857   O     0.77321   0.20625   0.74999   0.00000  Uiso   1.00
O858   O     0.89345   0.12709   0.75000   0.00000  Uiso   1.00
O859   O     0.89345   0.20625   0.75000   0.00000  Uiso   1.00
O860   O     0.77321   0.12709   0.74999   0.00000  Uiso   1.00
O861   O     0.83332   0.20627   0.68513   0.00000  Uiso   1.00
O862   O     0.83334   0.12707   0.81487   0.00000  Uiso   1.00
O863   O     0.83334   0.20627   0.81487   0.00000  Uiso   1.00
O864   O     0.83332   0.12707   0.68513   0.00000  Uiso   1.00
F865   F     0.82247   0.08333   0.88355   0.00000  Uiso   1.00
F866   F     0.85427   0.24662   0.61804   0.00000  Uiso   1.00
F867   F     0.81782   0.04254   0.54271   0.00000  Uiso   1.00
F868   F     0.84355   0.28992   0.95657   0.00000  Uiso   1.00
S869   S     0.76181   0.05486   0.67911   0.00000  Uiso   1.00
O870   O     0.75924   0.03639   0.63235   0.00000  Uiso   1.00
O871   O     0.72174   0.04390   0.69451   0.00000  Uiso   1.00
O872   O     0.76002   0.11177   0.67044   0.00000  Uiso   1.00
H873   H     0.73240   0.11788   0.65079   0.00000  Uiso   1.00
S874   S     0.89915   0.27835   0.82707   0.00000  Uiso   1.00
O875   O     0.94263   0.29670   0.82989   0.00000  Uiso   1.00
O876   O     0.88495   0.28923   0.87024   0.00000  Uiso   1.00
O877   O     0.90715   0.22143   0.82896   0.00000  Uiso   1.00
H878   H     0.92508   0.21521   0.85884   0.00000  Uiso   1.00
S879   S     0.90526   0.05481   0.82045   0.00000  Uiso   1.00
O880   O     0.90895   0.03618   0.86732   0.00000  Uiso   1.00
O881   O     0.94502   0.04438   0.80423   0.00000  Uiso   1.00
O882   O     0.90661   0.11164   0.82945   0.00000  Uiso   1.00
H883   H     0.93468   0.11802   0.84800   0.00000  Uiso   1.00
S884   S     0.76833   0.27844   0.67215   0.00000  Uiso   1.00
O885   O     0.72481   0.29732   0.66729   0.00000  Uiso   1.00
O886   O     0.78414   0.28835   0.62962   0.00000  Uiso   1.00
O887   O     0.75957   0.22168   0.67108   0.00000  Uiso   1.00
H888   H     0.74276   0.21514   0.64070   0.00000  Uiso   1.00
C889   C     0.08762   0.50008   0.75086   0.00000  Uiso   1.00
C890   C     0.24570   0.50008   0.74908   0.00000  Uiso   1.00
C891   C     0.15586   0.41630   0.52165   0.00000  Uiso   1.00
C892   C     0.17365   0.58261   0.97787   0.00000  Uiso   1.00
C893   C     0.02136   0.45884   0.75087   0.00000  Uiso   1.00
C894   C     0.31200   0.54229   0.74998   0.00000  Uiso   1.00
C895   C     0.31179   0.45887   0.74800   0.00000  Uiso   1.00
C896   C     0.02140   0.54229   0.75060   0.00000  Uiso   1.00
C897   C     0.29033   0.50045   0.74874   0.00000  Uiso   1.00
C898   C     0.04297   0.50044   0.75106   0.00000  Uiso   1.00
C899   C     0.13728   0.35853   0.71861   0.00000  Uiso   1.00
C900   C     0.19577   0.64144   0.78172   0.00000  Uiso   1.00
C901   C     0.19613   0.35847   0.78135   0.00000  Uiso   1.00
C902   C     0.13765   0.64151   0.71817   0.00000  Uiso   1.00
C903   C     0.16789   0.50002   0.66468   0.00000  Uiso   1.00
C904   C     0.16523   0.49981   0.83532   0.00000  Uiso   1.00
C905   C     0.16535   0.54071   0.90715   0.00000  Uiso   1.00
C906   C     0.16222   0.45854   0.59215   0.00000  Uiso   1.00
C907   C     0.16327   0.49913   0.88350   0.00000  Uiso   1.00
C908   C     0.16900   0.49990   0.61640   0.00000  Uiso   1.00
C909   C     0.15965   0.45732   0.90621   0.00000  Uiso   1.00
C910   C     0.17642   0.54077   0.59424   0.00000  Uiso   1.00
C911   C     0.15970   0.45734   0.95252   0.00000  Uiso   1.00
C912   C     0.17345   0.54107   0.54751   0.00000  Uiso   1.00
C913   C     0.16465   0.49928   0.97648   0.00000  Uiso   1.00
C914   C     0.16645   0.49938   0.52329   0.00000  Uiso   1.00
C915   C     0.16774   0.54114   0.95367   0.00000  Uiso   1.00
C916   C     0.16160   0.45778   0.54586   0.00000  Uiso   1.00
C917   C     0.15533   0.41611   0.97541   0.00000  Uiso   1.00
C918   C     0.17718   0.58238   0.52455   0.00000  Uiso   1.00
Cu919  Cu    0.16667   0.54689   0.75000   0.00000  Uiso   1.00
Cu920  Cu    0.16667   0.45311   0.75000   0.00000  Uiso   1.00
H921   H     0.16543   0.57286   0.88934   0.00000  Uiso   1.00
H922   H     0.15733   0.42685   0.60933   0.00000  Uiso   1.00
H923   H     0.15130   0.38361   0.95760   0.00000  Uiso   1.00
H924   H     0.18225   0.61474   0.54255   0.00000  Uiso   1.00
H925   H     0.03749   0.42625   0.75296   0.00000  Uiso   1.00
H926   H     0.29604   0.57497   0.75030   0.00000  Uiso   1.00
H927   H     0.29555   0.42633   0.74516   0.00000  Uiso   1.00
H928   H     0.03746   0.57498   0.75092   0.00000  Uiso   1.00
N929   N     0.16667   0.61736   0.75000   0.00000  Uiso   1.00
N930   N     0.16667   0.38264   0.75000   0.00000  Uiso   1.00
O931   O     0.10655   0.53958   0.74999   0.00000  Uiso   1.00
O932   O     0.22679   0.46042   0.75000   0.00000  Uiso   1.00
O933   O     0.22679   0.53958   0.75000   0.00000  Uiso   1.00
O934   O     0.10655   0.46042   0.74999   0.00000  Uiso   1.00
O935   O     0.16666   0.53960   0.68513   0.00000  Uiso   1.00
O936   O     0.16668   0.46040   0.81487   0.00000  Uiso   1.00
O937   O     0.16668   0.53960   0.81487   0.00000  Uiso   1.00
O938   O     0.16666   0.46040   0.68513   0.00000  Uiso   1.00
F939   F     0.15580   0.41666   0.88355   0.00000  Uiso   1.00
F940   F     0.18760   0.57996   0.61804   0.00000  Uiso   1.00
F941   F     0.15115   0.37587   0.54271   0.00000  Uiso   1.00
F942   F     0.17689   0.62325   0.95657   0.00000  Uiso   1.00
S943   S     0.09514   0.38820   0.67911   0.00000  Uiso   1.00
O944   O     0.09257   0.36972   0.63235   0.00000  Uiso   1.00
O945   O     0.05507   0.37724   0.69451   0.00000  Uiso   1.00
O946   O     0.09335   0.44510   0.67044   0.00000  Uiso   1.00
H947   H     0.06573   0.45122   0.65079   0.00000  Uiso   1.00
S948   S     0.23248   0.61168   0.82707   0.00000  Uiso   1.00
O949   O     0.27597   0.63004   0.82989   0.00000  Uiso   1.00
O950   O     0.21828   0.62257   0.87024   0.00000  Uiso   1.00
O951   O     0.24048   0.55477   0.82896   0.00000  Uiso   1.00
H952   H     0.25841   0.54854   0.85884   0.00000  Uiso   1.00
S953   S     0.23859   0.38814   0.82045   0.00000  Uiso   1.00
O954   O     0.24228   0.36951   0.86732   0.00000  Uiso   1.00
O955   O     0.27836   0.37772   0.80423   0.00000  Uiso   1.00
O956   O     0.23995   0.44497   0.82945   0.00000  Uiso   1.00
H957   H     0.26801   0.45135   0.84800   0.00000  Uiso   1.00
S958   S     0.10166   0.61177   0.67215   0.00000  Uiso   1.00
O959   O     0.05814   0.63065   0.66729   0.00000  Uiso   1.00
O960   O     0.11747   0.62169   0.62962   0.00000  Uiso   1.00
O961   O     0.09290   0.55502   0.67108   0.00000  Uiso   1.00
H962   H     0.07609   0.54847   0.64070   0.00000  Uiso   1.00
C963   C     0.42095   0.50008   0.75086   0.00000  Uiso   1.00
C964   C     0.57903   0.50008   0.74908   0.00000  Uiso   1.00
C965   C     0.48920   0.41630   0.52165   0.00000  Uiso   1.00
C966   C     0.50698   0.58261   0.97787   0.00000  Uiso   1.00
C967   C     0.35470   0.45884   0.75087   0.00000  Uiso   1.00
C968   C     0.64534   0.54229   0.74998   0.00000  Uiso   1.00
C969   C     0.64512   0.45887   0.74800   0.00000  Uiso   1.00
C970   C     0.35474   0.54229   0.75060   0.00000  Uiso   1.00
C971   C     0.62366   0.50045   0.74874   0.00000  Uiso   1.00
C972   C     0.37630   0.50044   0.75106   0.00000  Uiso   1.00
C973   C     0.47061   0.35853   0.71861   0.00000  Uiso   1.00
C974   C     0.52910   0.64144   0.78172   0.00000  Uiso   1.00
C975   C     0.52946   0.35847   0.78135   0.00000  Uiso   1.00
C976   C     0.47098   0.64151   0.71817   0.00000  Uiso   1.00
C977   C     0.50122   0.50002   0.66468   0.00000  Uiso   1.00
C978   C     0.49856   0.49981   0.83532   0.00000  Uiso   1.00
C979   C     0.49869   0.54071   0.90715   0.00000  Uiso   1.00
C980   C     0.49555   0.45854   0.59215   0.00000  Uiso   1.00
C981   C     0.49661   0.49913   0.88350   0.00000  Uiso   1.00
C982   C     0.50233   0.49990   0.61640   0.00000  Uiso   1.00
C983   C     0.49299   0.45732   0.90621   0.00000  Uiso   1.00
C984   C     0.50976   0.54077   0.59424   0.00000  Uiso   1.00
C985   C     0.49303   0.45734   0.95252   0.00000  Uiso   1.00
C986   C     0.50679   0.54107   0.54751   0.00000  Uiso   1.00
C987   C     0.49799   0.49928   0.97648   0.00000  Uiso   1.00
C988   C     0.49979   0.49938   0.52329   0.00000  Uiso   1.00
C989   C     0.50107   0.54114   0.95367   0.00000  Uiso   1.00
C990   C     0.49493   0.45778   0.54586   0.00000  Uiso   1.00
C991   C     0.48866   0.41611   0.97541   0.00000  Uiso   1.00
C992   C     0.51051   0.58238   0.52455   0.00000  Uiso   1.00
Cu993  Cu    0.50000   0.54689   0.75000   0.00000  Uiso   1.00
Cu994  Cu    0.50000   0.45311   0.75000   0.00000  Uiso   1.00
H995   H     0.49876   0.57286   0.88934   0.00000  Uiso   1.00
H996   H     0.49067   0.42685   0.60933   0.00000  Uiso   1.00
H997   H     0.48463   0.38361   0.95760   0.00000  Uiso   1.00
H998   H     0.51559   0.61474   0.54255   0.00000  Uiso   1.00
H999   H     0.37083   0.42625   0.75296   0.00000  Uiso   1.00
H1000  H     0.62938   0.57497   0.75030   0.00000  Uiso   1.00
H1001  H     0.62888   0.42633   0.74516   0.00000  Uiso   1.00
H1002  H     0.37079   0.57498   0.75092   0.00000  Uiso   1.00
N1003  N     0.50000   0.61736   0.75000   0.00000  Uiso   1.00
N1004  N     0.50000   0.38264   0.75000   0.00000  Uiso   1.00
O1005  O     0.43988   0.53958   0.74999   0.00000  Uiso   1.00
O1006  O     0.56012   0.46042   0.75000   0.00000  Uiso   1.00
O1007  O     0.56012   0.53958   0.75000   0.00000  Uiso   1.00
O1008  O     0.43988   0.46042   0.74999   0.00000  Uiso   1.00
O1009  O     0.49999   0.53960   0.68513   0.00000  Uiso   1.00
O1010  O     0.50001   0.46040   0.81487   0.00000  Uiso   1.00
O1011  O     0.50001   0.53960   0.81487   0.00000  Uiso   1.00
O1012  O     0.49999   0.46040   0.68513   0.00000  Uiso   1.00
F1013  F     0.48914   0.41666   0.88355   0.00000  Uiso   1.00
F1014  F     0.52094   0.57996   0.61804   0.00000  Uiso   1.00
F1015  F     0.48448   0.37587   0.54271   0.00000  Uiso   1.00
F1016  F     0.51022   0.62325   0.95657   0.00000  Uiso   1.00
S1017  S     0.42848   0.38820   0.67911   0.00000  Uiso   1.00
O1018  O     0.42591   0.36972   0.63235   0.00000  Uiso   1.00
O1019  O     0.38841   0.37724   0.69451   0.00000  Uiso   1.00
O1020  O     0.42669   0.44510   0.67044   0.00000  Uiso   1.00
H1021  H     0.39907   0.45122   0.65079   0.00000  Uiso   1.00
S1022  S     0.56582   0.61168   0.82707   0.00000  Uiso   1.00
O1023  O     0.60930   0.63004   0.82989   0.00000  Uiso   1.00
O1024  O     0.55162   0.62257   0.87024   0.00000  Uiso   1.00
O1025  O     0.57381   0.55477   0.82896   0.00000  Uiso   1.00
H1026  H     0.59175   0.54854   0.85884   0.00000  Uiso   1.00
S1027  S     0.57193   0.38814   0.82045   0.00000  Uiso   1.00
O1028  O     0.57562   0.36951   0.86732   0.00000  Uiso   1.00
O1029  O     0.61169   0.37772   0.80423   0.00000  Uiso   1.00
O1030  O     0.57328   0.44497   0.82945   0.00000  Uiso   1.00
H1031  H     0.60134   0.45135   0.84800   0.00000  Uiso   1.00
S1032  S     0.43500   0.61177   0.67215   0.00000  Uiso   1.00
O1033  O     0.39147   0.63065   0.66729   0.00000  Uiso   1.00
O1034  O     0.45081   0.62169   0.62962   0.00000  Uiso   1.00
O1035  O     0.42623   0.55502   0.67108   0.00000  Uiso   1.00
H1036  H     0.40942   0.54847   0.64070   0.00000  Uiso   1.00
C1037  C     0.75429   0.50008   0.75086   0.00000  Uiso   1.00
C1038  C     0.91236   0.50008   0.74908   0.00000  Uiso   1.00
C1039  C     0.82253   0.41630   0.52165   0.00000  Uiso   1.00
C1040  C     0.84032   0.58261   0.97787   0.00000  Uiso   1.00
C1041  C     0.68803   0.45884   0.75087   0.00000  Uiso   1.00
C1042  C     0.97867   0.54229   0.74998   0.00000  Uiso   1.00
C1043  C     0.97846   0.45887   0.74800   0.00000  Uiso   1.00
C1044  C     0.68807   0.54229   0.75060   0.00000  Uiso   1.00
C1045  C     0.95699   0.50045   0.74874   0.00000  Uiso   1.00
C1046  C     0.70963   0.50044   0.75106   0.00000  Uiso   1.00
C1047  C     0.80394   0.35853   0.71861   0.00000  Uiso   1.00
C1048  C     0.86243   0.64144   0.78172   0.00000  Uiso   1.00
C1049  C     0.86279   0.35847   0.78135   0.00000  Uiso   1.00
C1050  C     0.80432   0.64151   0.71817   0.00000  Uiso   1.00
C1051  C     0.83456   0.50002   0.66468   0.00000  Uiso   1.00
C1052  C     0.83190   0.49981   0.83532   0.00000  Uiso   1.00
C1053  C     0.83202   0.54071   0.90715   0.00000  Uiso   1.00
C1054  C     0.82888   0.45854   0.59215   0.00000  Uiso   1.00
C1055  C     0.82994   0.49913   0.88350   0.00000  Uiso   1.00
C1056  C     0.83566   0.49990   0.61640   0.00000  Uiso   1.00
C1057  C     0.82632   0.45732   0.90621   0.00000  Uiso   1.00
C1058  C     0.84309   0.54077   0.59424   0.00000  Uiso   1.00
C1059  C     0.82636   0.45734   0.95252   0.00000  Uiso   1.00
C1060  C     0.84012   0.54107   0.54751   0.00000  Uiso   1.00
C1061  C     0.83132   0.49928   0.97648   0.00000  Uiso   1.00
C1062  C     0.83312   0.49938   0.52329   0.00000  Uiso   1.00
C1063  C     0.83440   0.54114   0.95367   0.00000  Uiso   1.00
C1064  C     0.82827   0.45778   0.54586   0.00000  Uiso   1.00
C1065  C     0.82199   0.41611   0.97541   0.00000  Uiso   1.00
C1066  C     0.84385   0.58238   0.52455   0.00000  Uiso   1.00
Cu1067 Cu    0.83333   0.54689   0.75000   0.00000  Uiso   1.00
Cu1068 Cu    0.83333   0.45311   0.75000   0.00000  Uiso   1.00
H1069  H     0.83210   0.57286   0.88934   0.00000  Uiso   1.00
H1070  H     0.82400   0.42685   0.60933   0.00000  Uiso   1.00
H1071  H     0.81797   0.38361   0.95760   0.00000  Uiso   1.00
H1072  H     0.84892   0.61474   0.54255   0.00000  Uiso   1.00
H1073  H     0.70416   0.42625   0.75296   0.00000  Uiso   1.00
H1074  H     0.96271   0.57497   0.75030   0.00000  Uiso   1.00
H1075  H     0.96222   0.42633   0.74516   0.00000  Uiso   1.00
H1076  H     0.70412   0.57498   0.75092   0.00000  Uiso   1.00
N1077  N     0.83333   0.61736   0.75000   0.00000  Uiso   1.00
N1078  N     0.83333   0.38264   0.75000   0.00000  Uiso   1.00
O1079  O     0.77321   0.53958   0.74999   0.00000  Uiso   1.00
O1080  O     0.89345   0.46042   0.75000   0.00000  Uiso   1.00
O1081  O     0.89345   0.53958   0.75000   0.00000  Uiso   1.00
O1082  O     0.77321   0.46042   0.74999   0.00000  Uiso   1.00
O1083  O     0.83332   0.53960   0.68513   0.00000  Uiso   1.00
O1084  O     0.83334   0.46040   0.81487   0.00000  Uiso   1.00
O1085  O     0.83334   0.53960   0.81487   0.00000  Uiso   1.00
O1086  O     0.83332   0.46040   0.68513   0.00000  Uiso   1.00
F1087  F     0.82247   0.41666   0.88355   0.00000  Uiso   1.00
F1088  F     0.85427   0.57996   0.61804   0.00000  Uiso   1.00
F1089  F     0.81782   0.37587   0.54271   0.00000  Uiso   1.00
F1090  F     0.84355   0.62325   0.95657   0.00000  Uiso   1.00
S1091  S     0.76181   0.38820   0.67911   0.00000  Uiso   1.00
O1092  O     0.75924   0.36972   0.63235   0.00000  Uiso   1.00
O1093  O     0.72174   0.37724   0.69451   0.00000  Uiso   1.00
O1094  O     0.76002   0.44510   0.67044   0.00000  Uiso   1.00
H1095  H     0.73240   0.45122   0.65079   0.00000  Uiso   1.00
S1096  S     0.89915   0.61168   0.82707   0.00000  Uiso   1.00
O1097  O     0.94263   0.63004   0.82989   0.00000  Uiso   1.00
O1098  O     0.88495   0.62257   0.87024   0.00000  Uiso   1.00
O1099  O     0.90715   0.55477   0.82896   0.00000  Uiso   1.00
H1100  H     0.92508   0.54854   0.85884   0.00000  Uiso   1.00
S1101  S     0.90526   0.38814   0.82045   0.00000  Uiso   1.00
O1102  O     0.90895   0.36951   0.86732   0.00000  Uiso   1.00
O1103  O     0.94502   0.37772   0.80423   0.00000  Uiso   1.00
O1104  O     0.90661   0.44497   0.82945   0.00000  Uiso   1.00
H1105  H     0.93468   0.45135   0.84800   0.00000  Uiso   1.00
S1106  S     0.76833   0.61177   0.67215   0.00000  Uiso   1.00
O1107  O     0.72481   0.63065   0.66729   0.00000  Uiso   1.00
O1108  O     0.78414   0.62169   0.62962   0.00000  Uiso   1.00
O1109  O     0.75957   0.55502   0.67108   0.00000  Uiso   1.00
H1110  H     0.74276   0.54847   0.64070   0.00000  Uiso   1.00
C1111  C     0.08762   0.83342   0.75086   0.00000  Uiso   1.00
C1112  C     0.24570   0.83341   0.74908   0.00000  Uiso   1.00
C1113  C     0.15586   0.74964   0.52165   0.00000  Uiso   1.00
C1114  C     0.17365   0.91594   0.97787   0.00000  Uiso   1.00
C1115  C     0.02136   0.79218   0.75087   0.00000  Uiso   1.00
C1116  C     0.31200   0.87562   0.74998   0.00000  Uiso   1.00
C1117  C     0.31179   0.79220   0.74800   0.00000  Uiso   1.00
C1118  C     0.02140   0.87563   0.75060   0.00000  Uiso   1.00
C1119  C     0.29033   0.83378   0.74874   0.00000  Uiso   1.00
C1120  C     0.04297   0.83377   0.75106   0.00000  Uiso   1.00
C1121  C     0.13728   0.69186   0.71861   0.00000  Uiso   1.00
C1122  C     0.19577   0.97478   0.78172   0.00000  Uiso   1.00
C1123  C     0.19613   0.69180   0.78135   0.00000  Uiso   1.00
C1124  C     0.13765   0.97484   0.71817   0.00000  Uiso   1.00
C1125  C     0.16789   0.83336   0.66468   0.00000  Uiso   1.00
C1126  C     0.16523   0.83314   0.83532   0.00000  Uiso   1.00
C1127  C     0.16535   0.87405   0.90715   0.00000  Uiso   1.00
C1128  C     0.16222   0.79188   0.59215   0.00000  Uiso   1.00
C1129  C     0.16327   0.83246   0.88350   0.00000  Uiso   1.00
C1130  C     0.16900   0.83324   0.61640   0.00000  Uiso   1.00
C1131  C     0.15965   0.79066   0.90621   0.00000  Uiso   1.00
C1132  C     0.17642   0.87410   0.59424   0.00000  Uiso   1.00
C1133  C     0.15970   0.79067   0.95252   0.00000  Uiso   1.00
C1134  C     0.17345   0.87440   0.54751   0.00000  Uiso   1.00
C1135  C     0.16465   0.83261   0.97648   0.00000  Uiso   1.00
C1136  C     0.16645   0.83272   0.52329   0.00000  Uiso   1.00
C1137  C     0.16774   0.87448   0.95367   0.00000  Uiso   1.00
C1138  C     0.16160   0.79111   0.54586   0.00000  Uiso   1.00
C1139  C     0.15533   0.74945   0.97541   0.00000  Uiso   1.00
C1140  C     0.17718   0.91572   0.52455   0.00000  Uiso   1.00
Cu1141 Cu    0.16667   0.88022   0.75000   0.00000  Uiso   1.00
Cu1142 Cu    0.16667   0.78645   0.75000   0.00000  Uiso   1.00
H1143  H     0.16543   0.90620   0.88934   0.00000  Uiso   1.00
H1144  H     0.15733   0.76019   0.60933   0.00000  Uiso   1.00
H1145  H     0.15130   0.71694   0.95760   0.00000  Uiso   1.00
H1146  H     0.18225   0.94807   0.54255   0.00000  Uiso   1.00
H1147  H     0.03749   0.75958   0.75296   0.00000  Uiso   1.00
H1148  H     0.29604   0.90830   0.75030   0.00000  Uiso   1.00
H1149  H     0.29555   0.75967   0.74516   0.00000  Uiso   1.00
H1150  H     0.03746   0.90831   0.75092   0.00000  Uiso   1.00
N1151  N     0.16667   0.95069   0.75000   0.00000  Uiso   1.00
N1152  N     0.16667   0.71598   0.75000   0.00000  Uiso   1.00
O1153  O     0.10655   0.87291   0.74999   0.00000  Uiso   1.00
O1154  O     0.22679   0.79375   0.75000   0.00000  Uiso   1.00
O1155  O     0.22679   0.87291   0.75000   0.00000  Uiso   1.00
O1156  O     0.10655   0.79375   0.74999   0.00000  Uiso   1.00
O1157  O     0.16666   0.87293   0.68513   0.00000  Uiso   1.00
O1158  O     0.16668   0.79373   0.81487   0.00000  Uiso   1.00
O1159  O     0.16668   0.87293   0.81487   0.00000  Uiso   1.00
O1160  O     0.16666   0.79373   0.68513   0.00000  Uiso   1.00
F1161  F     0.15580   0.74999   0.88355   0.00000  Uiso   1.00
F1162  F     0.18760   0.91329   0.61804   0.00000  Uiso   1.00
F1163  F     0.15115   0.70920   0.54271   0.00000  Uiso   1.00
F1164  F     0.17689   0.95659   0.95657   0.00000  Uiso   1.00
S1165  S     0.09514   0.72153   0.67911   0.00000  Uiso   1.00
O1166  O     0.09257   0.70306   0.63235   0.00000  Uiso   1.00
O1167  O     0.05507   0.71057   0.69451   0.00000  Uiso   1.00
O1168  O     0.09335   0.77844   0.67044   0.00000  Uiso   1.00
H1169  H     0.06573   0.78455   0.65079   0.00000  Uiso   1.00
S1170  S     0.23248   0.94501   0.82707   0.00000  Uiso   1.00
O1171  O     0.27597   0.96337   0.82989   0.00000  Uiso   1.00
O1172  O     0.21828   0.95590   0.87024   0.00000  Uiso   1.00
O1173  O     0.24048   0.88810   0.82896   0.00000  Uiso   1.00
H1174  H     0.25841   0.88188   0.85884   0.00000  Uiso   1.00
S1175  S     0.23859   0.72148   0.82045   0.00000  Uiso   1.00
O1176  O     0.24228   0.70284   0.86732   0.00000  Uiso   1.00
O1177  O     0.27836   0.71105   0.80423   0.00000  Uiso   1.00
O1178  O     0.23995   0.77830   0.82945   0.00000  Uiso   1.00
H1179  H     0.26801   0.78468   0.84800   0.00000  Uiso   1.00
S1180  S     0.10166   0.94511   0.67215   0.00000  Uiso   1.00
O1181  O     0.05814   0.96399   0.66729   0.00000  Uiso   1.00
O1182  O     0.11747   0.95502   0.62962   0.00000  Uiso   1.00
O1183  O     0.09290   0.88835   0.67108   0.00000  Uiso   1.00
H1184  H     0.07609   0.88180   0.64070   0.00000  Uiso   1.00
C1185  C     0.42095   0.83342   0.75086   0.00000  Uiso   1.00
C1186  C     0.57903   0.83341   0.74908   0.00000  Uiso   1.00
C1187  C     0.48920   0.74964   0.52165   0.00000  Uiso   1.00
C1188  C     0.50698   0.91594   0.97787   0.00000  Uiso   1.00
C1189  C     0.35470   0.79218   0.75087   0.00000  Uiso   1.00
C1190  C     0.64534   0.87562   0.74998   0.00000  Uiso   1.00
C1191  C     0.64512   0.79220   0.74800   0.00000  Uiso   1.00
C1192  C     0.35474   0.87563   0.75060   0.00000  Uiso   1.00
C1193  C     0.62366   0.83378   0.74874   0.00000  Uiso   1.00
C1194  C     0.37630   0.83377   0.75106   0.00000  Uiso   1.00
C1195  C     0.47061   0.69186   0.71861   0.00000  Uiso   1.00
C1196  C     0.52910   0.97478   0.78172   0.00000  Uiso   1.00
C1197  C     0.52946   0.69180   0.78135   0.00000  Uiso   1.00
C1198  C     0.47098   0.97484   0.71817   0.00000  Uiso   1.00
C1199  C     0.50122   0.83336   0.66468   0.00000  Uiso   1.00
C1200  C     0.49856   0.83314   0.83532   0.00000  Uiso   1.00
C1201  C     0.49869   0.87405   0.90715   0.00000  Uiso   1.00
C1202  C     0.49555   0.79188   0.59215   0.00000  Uiso   1.00
C1203  C     0.49661   0.83246   0.88350   0.00000  Uiso   1.00
C1204  C     0.50233   0.83324   0.61640   0.00000  Uiso   1.00
C1205  C     0.49299   0.79066   0.90621   0.00000  Uiso   1.00
C1206  C     0.50976   0.87410   0.59424   0.00000  Uiso   1.00
C1207  C     0.49303   0.79067   0.95252   0.00000  Uiso   1.00
C1208  C     0.50679   0.87440   0.54751   0.00000  Uiso   1.00
C1209  C     0.49799   0.83261   0.97648   0.00000  Uiso   1.00
C1210  C     0.49979   0.83272   0.52329   0.00000  Uiso   1.00
C1211  C     0.50107   0.87448   0.95367   0.00000  Uiso   1.00
C1212  C     0.49493   0.79111   0.54586   0.00000  Uiso   1.00
C1213  C     0.48866   0.74945   0.97541   0.00000  Uiso   1.00
C1214  C     0.51051   0.91572   0.52455   0.00000  Uiso   1.00
Cu1215 Cu    0.50000   0.88022   0.75000   0.00000  Uiso   1.00
Cu1216 Cu    0.50000   0.78645   0.75000   0.00000  Uiso   1.00
H1217  H     0.49876   0.90620   0.88934   0.00000  Uiso   1.00
H1218  H     0.49067   0.76019   0.60933   0.00000  Uiso   1.00
H1219  H     0.48463   0.71694   0.95760   0.00000  Uiso   1.00
H1220  H     0.51559   0.94807   0.54255   0.00000  Uiso   1.00
H1221  H     0.37083   0.75958   0.75296   0.00000  Uiso   1.00
H1222  H     0.62938   0.90830   0.75030   0.00000  Uiso   1.00
H1223  H     0.62888   0.75967   0.74516   0.00000  Uiso   1.00
H1224  H     0.37079   0.90831   0.75092   0.00000  Uiso   1.00
N1225  N     0.50000   0.95069   0.75000   0.00000  Uiso   1.00
N1226  N     0.50000   0.71598   0.75000   0.00000  Uiso   1.00
O1227  O     0.43988   0.87291   0.74999   0.00000  Uiso   1.00
O1228  O     0.56012   0.79375   0.75000   0.00000  Uiso   1.00
O1229  O     0.56012   0.87291   0.75000   0.00000  Uiso   1.00
O1230  O     0.43988   0.79375   0.74999   0.00000  Uiso   1.00
O1231  O     0.49999   0.87293   0.68513   0.00000  Uiso   1.00
O1232  O     0.50001   0.79373   0.81487   0.00000  Uiso   1.00
O1233  O     0.50001   0.87293   0.81487   0.00000  Uiso   1.00
O1234  O     0.49999   0.79373   0.68513   0.00000  Uiso   1.00
F1235  F     0.48914   0.74999   0.88355   0.00000  Uiso   1.00
F1236  F     0.52094   0.91329   0.61804   0.00000  Uiso   1.00
F1237  F     0.48448   0.70920   0.54271   0.00000  Uiso   1.00
F1238  F     0.51022   0.95659   0.95657   0.00000  Uiso   1.00
S1239  S     0.42848   0.72153   0.67911   0.00000  Uiso   1.00
O1240  O     0.42591   0.70306   0.63235   0.00000  Uiso   1.00
O1241  O     0.38841   0.71057   0.69451   0.00000  Uiso   1.00
O1242  O     0.42669   0.77844   0.67044   0.00000  Uiso   1.00
H1243  H     0.39907   0.78455   0.65079   0.00000  Uiso   1.00
S1244  S     0.56582   0.94501   0.82707   0.00000  Uiso   1.00
O1245  O     0.60930   0.96337   0.82989   0.00000  Uiso   1.00
O1246  O     0.55162   0.95590   0.87024   0.00000  Uiso   1.00
O1247  O     0.57381   0.88810   0.82896   0.00000  Uiso   1.00
H1248  H     0.59175   0.88188   0.85884   0.00000  Uiso   1.00
S1249  S     0.57193   0.72148   0.82045   0.00000  Uiso   1.00
O1250  O     0.57562   0.70284   0.86732   0.00000  Uiso   1.00
O1251  O     0.61169   0.71105   0.80423   0.00000  Uiso   1.00
O1252  O     0.57328   0.77830   0.82945   0.00000  Uiso   1.00
H1253  H     0.60134   0.78468   0.84800   0.00000  Uiso   1.00
S1254  S     0.43500   0.94511   0.67215   0.00000  Uiso   1.00
O1255  O     0.39147   0.96399   0.66729   0.00000  Uiso   1.00
O1256  O     0.45081   0.95502   0.62962   0.00000  Uiso   1.00
O1257  O     0.42623   0.88835   0.67108   0.00000  Uiso   1.00
H1258  H     0.40942   0.88180   0.64070   0.00000  Uiso   1.00
C1259  C     0.75429   0.83342   0.75086   0.00000  Uiso   1.00
C1260  C     0.91236   0.83341   0.74908   0.00000  Uiso   1.00
C1261  C     0.82253   0.74964   0.52165   0.00000  Uiso   1.00
C1262  C     0.84032   0.91594   0.97787   0.00000  Uiso   1.00
C1263  C     0.68803   0.79218   0.75087   0.00000  Uiso   1.00
C1264  C     0.97867   0.87562   0.74998   0.00000  Uiso   1.00
C1265  C     0.97846   0.79220   0.74800   0.00000  Uiso   1.00
C1266  C     0.68807   0.87563   0.75060   0.00000  Uiso   1.00
C1267  C     0.95699   0.83378   0.74874   0.00000  Uiso   1.00
C1268  C     0.70963   0.83377   0.75106   0.00000  Uiso   1.00
C1269  C     0.80394   0.69186   0.71861   0.00000  Uiso   1.00
C1270  C     0.86243   0.97478   0.78172   0.00000  Uiso   1.00
C1271  C     0.86279   0.69180   0.78135   0.00000  Uiso   1.00
C1272  C     0.80432   0.97484   0.71817   0.00000  Uiso   1.00
C1273  C     0.83456   0.83336   0.66468   0.00000  Uiso   1.00
C1274  C     0.83190   0.83314   0.83532   0.00000  Uiso   1.00
C1275  C     0.83202   0.87405   0.90715   0.00000  Uiso   1.00
C1276  C     0.82888   0.79188   0.59215   0.00000  Uiso   1.00
C1277  C     0.82994   0.83246   0.88350   0.00000  Uiso   1.00
C1278  C     0.83566   0.83324   0.61640   0.00000  Uiso   1.00
C1279  C     0.82632   0.79066   0.90621   0.00000  Uiso   1.00
C1280  C     0.84309   0.87410   0.59424   0.00000  Uiso   1.00
C1281  C     0.82636   0.79067   0.95252   0.00000  Uiso   1.00
C1282  C     0.84012   0.87440   0.54751   0.00000  Uiso   1.00
C1283  C     0.83132   0.83261   0.97648   0.00000  Uiso   1.00
C1284  C     0.83312   0.83272   0.52329   0.00000  Uiso   1.00
C1285  C     0.83440   0.87448   0.95367   0.00000  Uiso   1.00
C1286  C     0.82827   0.79111   0.54586   0.00000  Uiso   1.00
C1287  C     0.82199   0.74945   0.97541   0.00000  Uiso   1.00
C1288  C     0.84385   0.91572   0.52455   0.00000  Uiso   1.00
Cu1289 Cu    0.83333   0.88022   0.75000   0.00000  Uiso   1.00
Cu1290 Cu    0.83333   0.78645   0.75000   0.00000  Uiso   1.00
H1291  H     0.83210   0.90620   0.88934   0.00000  Uiso   1.00
H1292  H     0.82400   0.76019   0.60933   0.00000  Uiso   1.00
H1293  H     0.81797   0.71694   0.95760   0.00000  Uiso   1.00
H1294  H     0.84892   0.94807   0.54255   0.00000  Uiso   1.00
H1295  H     0.70416   0.75958   0.75296   0.00000  Uiso   1.00
H1296  H     0.96271   0.90830   0.75030   0.00000  Uiso   1.00
H1297  H     0.96222   0.75967   0.74516   0.00000  Uiso   1.00
H1298  H     0.70412   0.90831   0.75092   0.00000  Uiso   1.00
N1299  N     0.83333   0.95069   0.75000   0.00000  Uiso   1.00
N1300  N     0.83333   0.71598   0.75000   0.00000  Uiso   1.00
O1301  O     0.77321   0.87291   0.74999   0.00000  Uiso   1.00
O1302  O     0.89345   0.79375   0.75000   0.00000  Uiso   1.00
O1303  O     0.89345   0.87291   0.75000   0.00000  Uiso   1.00
O1304  O     0.77321   0.79375   0.74999   0.00000  Uiso   1.00
O1305  O     0.83332   0.87293   0.68513   0.00000  Uiso   1.00
O1306  O     0.83334   0.79373   0.81487   0.00000  Uiso   1.00
O1307  O     0.83334   0.87293   0.81487   0.00000  Uiso   1.00
O1308  O     0.83332   0.79373   0.68513   0.00000  Uiso   1.00
F1309  F     0.82247   0.74999   0.88355   0.00000  Uiso   1.00
F1310  F     0.85427   0.91329   0.61804   0.00000  Uiso   1.00
F1311  F     0.81782   0.70920   0.54271   0.00000  Uiso   1.00
F1312  F     0.84355   0.95659   0.95657   0.00000  Uiso   1.00
S1313  S     0.76181   0.72153   0.67911   0.00000  Uiso   1.00
O1314  O     0.75924   0.70306   0.63235   0.00000  Uiso   1.00
O1315  O     0.72174   0.71057   0.69451   0.00000  Uiso   1.00
O1316  O     0.76002   0.77844   0.67044   0.00000  Uiso   1.00
H1317  H     0.73240   0.78455   0.65079   0.00000  Uiso   1.00
S1318  S     0.89915   0.94501   0.82707   0.00000  Uiso   1.00
O1319  O     0.94263   0.96337   0.82989   0.00000  Uiso   1.00
O1320  O     0.88495   0.95590   0.87024   0.00000  Uiso   1.00
O1321  O     0.90715   0.88810   0.82896   0.00000  Uiso   1.00
H1322  H     0.92508   0.88188   0.85884   0.00000  Uiso   1.00
S1323  S     0.90526   0.72148   0.82045   0.00000  Uiso   1.00
O1324  O     0.90895   0.70284   0.86732   0.00000  Uiso   1.00
O1325  O     0.94502   0.71105   0.80423   0.00000  Uiso   1.00
O1326  O     0.90661   0.77830   0.82945   0.00000  Uiso   1.00
H1327  H     0.93468   0.78468   0.84800   0.00000  Uiso   1.00
S1328  S     0.76833   0.94511   0.67215   0.00000  Uiso   1.00
O1329  O     0.72481   0.96399   0.66729   0.00000  Uiso   1.00
O1330  O     0.78414   0.95502   0.62962   0.00000  Uiso   1.00
O1331  O     0.75957   0.88835   0.67108   0.00000  Uiso   1.00
H1332  H     0.74276   0.88180   0.64070   0.00000  Uiso   1.00
loop_
_geom_bond_atom_site_label_1
_geom_bond_atom_site_label_2
_geom_bond_distance
_geom_bond_site_symmetry_2
_ccdc_geom_bond_type
C1     O46     1.309   .     A
C1     O43     1.305   .     A
C1     C10     1.454   .     S
C2     O44     1.310   .     A
C2     O45     1.305   .     A
C2     C9      1.454   .     S
C3     C28     1.404   .     A
C3     F53     1.358   .     S
C3     C695    1.394   1_554 S
C4     C27     1.404   .     A
C4     F54     1.358   .     S
C4     C696    1.393   .     S
C5     H37     1.078   .     S
C5     C10     1.398   .     A
C5     C155    1.381   1_455 S
C6     C9      1.403   .     A
C6     H38     1.083   .     S
C6     C82     1.387   .     S
C7     C9      1.398   .     A
C7     H39     1.079   .     S
C7     C79     1.381   .     S
C8     C10     1.403   .     A
C8     H40     1.083   .     S
C8     C154    1.387   1_455 S
C11    N42     1.397   .     A
C11    S55     1.845   .     S
C11    C458    1.464   1_545 S
C12    N41     1.397   .     A
C12    S60     1.846   .     S
C12    C235    1.464   .     S
C13    S65     1.848   .     S
C13    N42     1.397   .     A
C13    C456    1.464   1_545 S
C14    S70     1.849   .     S
C14    N41     1.397   .     A
C14    C233    1.464   .     S
C15    O47     1.311   .     A
C15    O50     1.310   .     A
C15    C20     1.466   .     S
C16    O48     1.307   .     A
C16    O49     1.315   .     A
C16    C19     1.470   .     S
C17    H33     1.078   .     S
C17    C27     1.393   .     A
C17    C19     1.400   .     A
C18    C28     1.395   .     A
C18    H34     1.083   .     S
C18    C20     1.404   .     A
C19    C21     1.411   .     A
C20    C22     1.406   .     A
C21    F51     1.360   .     S
C21    C23     1.399   .     A
C22    C24     1.396   .     A
C22    F52     1.359   .     S
C23    C29     1.404   .     A
C23    C25     1.412   .     A
C24    C26     1.412   .     A
C24    C30     1.403   .     A
C25    C27     1.411   .     A
C25    C692    1.404   .     S
C26    C28     1.411   .     A
C26    C691    1.404   1_554 S
C29    H35     1.083   .     S
C29    C669    1.394   .     S
C30    H36     1.083   .     S
C30    C670    1.393   1_554 S
Cu31   O43     1.967   .     S
Cu31   O47     1.972   .     S
Cu31   O49     1.971   .     S
Cu31   Cu32    2.725   .     S
Cu31   N41     2.048   .     S
Cu31   O45     1.967   .     S
Cu32   O48     1.972   .     S
Cu32   O44     1.967   .     S
Cu32   O50     1.971   .     S
Cu32   O46     1.967   .     S
Cu32   N42     2.048   .     S
S55    O56     1.499   .     D
S55    O57     1.501   .     D
S55    O58     1.673   .     S
O58    H59     0.991   .     S
S60    O63     1.673   .     S
S60    O62     1.501   .     D
S60    O61     1.499   .     D
O63    H64     0.991   .     S
S65    O67     1.501   .     D
S65    O68     1.673   .     S
S65    O66     1.498   .     D
O68    H69     0.991   .     S
S70    O71     1.498   .     D
S70    O73     1.673   .     S
S70    O72     1.502   .     D
O73    H74     0.991   .     S
C75    O120    1.309   .     A
C75    O117    1.305   .     A
C75    C84     1.454   .     S
C76    O118    1.310   .     A
C76    O119    1.305   .     A
C76    C83     1.454   .     S
C77    C102    1.404   .     A
C77    F127    1.358   .     S
C77    C769    1.394   1_554 S
C78    C101    1.404   .     A
C78    F128    1.358   .     S
C78    C770    1.393   .     S
C79    H111    1.078   .     S
C79    C84     1.398   .     A
C80    C83     1.403   .     A
C80    H112    1.083   .     S
C80    C156    1.387   .     S
C81    C83     1.398   .     A
C81    H113    1.079   .     S
C81    C153    1.381   .     S
C82    C84     1.403   .     A
C82    H114    1.083   .     S
C85    N116    1.397   .     A
C85    S129    1.845   .     S
C85    C532    1.464   1_545 S
C86    N115    1.397   .     A
C86    S134    1.846   .     S
C86    C309    1.464   .     S
C87    S139    1.848   .     S
C87    N116    1.397   .     A
C87    C530    1.464   1_545 S
C88    S144    1.849   .     S
C88    N115    1.397   .     A
C88    C307    1.464   .     S
C89    O121    1.311   .     A
C89    O124    1.310   .     A
C89    C94     1.466   .     S
C90    O122    1.307   .     A
C90    O123    1.315   .     A
C90    C93     1.470   .     S
C91    H107    1.078   .     S
C91    C101    1.393   .     A
C91    C93     1.400   .     A
C92    C102    1.395   .     A
C92    H108    1.083   .     S
C92    C94     1.404   .     A
C93    C95     1.411   .     A
C94    C96     1.406   .     A
C95    F125    1.360   .     S
C95    C97     1.399   .     A
C96    C98     1.396   .     A
C96    F126    1.359   .     S
C97    C103    1.404   .     A
C97    C99     1.412   .     A
C98    C100    1.412   .     A
C98    C104    1.403   .     A
C99    C101    1.411   .     A
C99    C766    1.404   .     S
C100   C102    1.411   .     A
C100   C765    1.404   1_554 S
C103   H109    1.083   .     S
C103   C743    1.394   .     S
C104   H110    1.083   .     S
C104   C744    1.393   1_554 S
Cu105  O117    1.967   .     S
Cu105  O121    1.972   .     S
Cu105  O123    1.971   .     S
Cu105  Cu106   2.725   .     S
Cu105  N115    2.048   .     S
Cu105  O119    1.967   .     S
Cu106  O122    1.972   .     S
Cu106  O118    1.967   .     S
Cu106  O124    1.971   .     S
Cu106  O120    1.967   .     S
Cu106  N116    2.048   .     S
S129   O130    1.499   .     D
S129   O131    1.501   .     D
S129   O132    1.673   .     S
O132   H133    0.991   .     S
S134   O137    1.673   .     S
S134   O136    1.501   .     D
S134   O135    1.499   .     D
O137   H138    0.991   .     S
S139   O141    1.501   .     D
S139   O142    1.673   .     S
S139   O140    1.498   .     D
O142   H143    0.991   .     S
S144   O145    1.498   .     D
S144   O147    1.673   .     S
S144   O146    1.502   .     D
O147   H148    0.991   .     S
C149   O194    1.309   .     A
C149   O191    1.305   .     A
C149   C158    1.454   .     S
C150   O192    1.310   .     A
C150   O193    1.305   .     A
C150   C157    1.454   .     S
C151   C176    1.404   .     A
C151   F201    1.358   .     S
C151   C843    1.394   1_554 S
C152   C175    1.404   .     A
C152   F202    1.358   .     S
C152   C844    1.393   .     S
C153   H185    1.078   .     S
C153   C158    1.398   .     A
C154   C157    1.403   .     A
C154   H186    1.083   .     S
C154   C8      1.387   1_655 S
C155   C157    1.398   .     A
C155   H187    1.079   .     S
C155   C5      1.381   1_655 S
C156   C158    1.403   .     A
C156   H188    1.083   .     S
C159   N190    1.397   .     A
C159   S203    1.845   .     S
C159   C606    1.464   1_545 S
C160   N189    1.397   .     A
C160   S208    1.846   .     S
C160   C383    1.464   .     S
C161   S213    1.848   .     S
C161   N190    1.397   .     A
C161   C604    1.464   1_545 S
C162   S218    1.849   .     S
C162   N189    1.397   .     A
C162   C381    1.464   .     S
C163   O195    1.311   .     A
C163   O198    1.310   .     A
C163   C168    1.466   .     S
C164   O196    1.307   .     A
C164   O197    1.315   .     A
C164   C167    1.470   .     S
C165   H181    1.078   .     S
C165   C175    1.393   .     A
C165   C167    1.400   .     A
C166   C176    1.395   .     A
C166   H182    1.083   .     S
C166   C168    1.404   .     A
C167   C169    1.411   .     A
C168   C170    1.406   .     A
C169   F199    1.360   .     S
C169   C171    1.399   .     A
C170   C172    1.396   .     A
C170   F200    1.359   .     S
C171   C177    1.404   .     A
C171   C173    1.412   .     A
C172   C174    1.412   .     A
C172   C178    1.403   .     A
C173   C175    1.411   .     A
C173   C840    1.404   .     S
C174   C176    1.411   .     A
C174   C839    1.404   1_554 S
C177   H183    1.083   .     S
C177   C817    1.394   .     S
C178   H184    1.083   .     S
C178   C818    1.393   1_554 S
Cu179  O191    1.967   .     S
Cu179  O195    1.972   .     S
Cu179  O197    1.971   .     S
Cu179  Cu180   2.725   .     S
Cu179  N189    2.048   .     S
Cu179  O193    1.967   .     S
Cu180  O196    1.972   .     S
Cu180  O192    1.967   .     S
Cu180  O198    1.971   .     S
Cu180  O194    1.967   .     S
Cu180  N190    2.048   .     S
S203   O204    1.499   .     D
S203   O205    1.501   .     D
S203   O206    1.673   .     S
O206   H207    0.991   .     S
S208   O211    1.673   .     S
S208   O210    1.501   .     D
S208   O209    1.499   .     D
O211   H212    0.991   .     S
S213   O215    1.501   .     D
S213   O216    1.673   .     S
S213   O214    1.498   .     D
O216   H217    0.991   .     S
S218   O219    1.498   .     D
S218   O221    1.673   .     S
S218   O220    1.502   .     D
O221   H222    0.991   .     S
C223   O268    1.309   .     A
C223   O265    1.305   .     A
C223   C232    1.454   .     S
C224   O266    1.310   .     A
C224   O267    1.305   .     A
C224   C231    1.454   .     S
C225   C250    1.404   .     A
C225   F275    1.358   .     S
C225   C917    1.394   1_554 S
C226   C249    1.404   .     A
C226   F276    1.358   .     S
C226   C918    1.393   .     S
C227   H259    1.078   .     S
C227   C232    1.398   .     A
C227   C377    1.381   1_455 S
C228   C231    1.403   .     A
C228   H260    1.083   .     S
C228   C304    1.387   .     S
C229   C231    1.398   .     A
C229   H261    1.079   .     S
C229   C301    1.381   .     S
C230   C232    1.403   .     A
C230   H262    1.083   .     S
C230   C376    1.387   1_455 S
C233   N264    1.397   .     A
C233   S277    1.845   .     S
C234   N263    1.397   .     A
C234   S282    1.846   .     S
C234   C457    1.464   .     S
C235   S287    1.848   .     S
C235   N264    1.397   .     A
C236   S292    1.849   .     S
C236   N263    1.397   .     A
C236   C455    1.464   .     S
C237   O269    1.311   .     A
C237   O272    1.310   .     A
C237   C242    1.466   .     S
C238   O270    1.307   .     A
C238   O271    1.315   .     A
C238   C241    1.470   .     S
C239   H255    1.078   .     S
C239   C249    1.393   .     A
C239   C241    1.400   .     A
C240   C250    1.395   .     A
C240   H256    1.083   .     S
C240   C242    1.404   .     A
C241   C243    1.411   .     A
C242   C244    1.406   .     A
C243   F273    1.360   .     S
C243   C245    1.399   .     A
C244   C246    1.396   .     A
C244   F274    1.359   .     S
C245   C251    1.404   .     A
C245   C247    1.412   .     A
C246   C248    1.412   .     A
C246   C252    1.403   .     A
C247   C249    1.411   .     A
C247   C914    1.404   .     S
C248   C250    1.411   .     A
C248   C913    1.404   1_554 S
C251   H257    1.083   .     S
C251   C891    1.394   .     S
C252   H258    1.083   .     S
C252   C892    1.393   1_554 S
Cu253  O265    1.967   .     S
Cu253  O269    1.972   .     S
Cu253  O271    1.971   .     S
Cu253  Cu254   2.725   .     S
Cu253  N263    2.048   .     S
Cu253  O267    1.967   .     S
Cu254  O270    1.972   .     S
Cu254  O266    1.967   .     S
Cu254  O272    1.971   .     S
Cu254  O268    1.967   .     S
Cu254  N264    2.048   .     S
S277   O278    1.499   .     D
S277   O279    1.501   .     D
S277   O280    1.673   .     S
O280   H281    0.991   .     S
S282   O285    1.673   .     S
S282   O284    1.501   .     D
S282   O283    1.499   .     D
O285   H286    0.991   .     S
S287   O289    1.501   .     D
S287   O290    1.673   .     S
S287   O288    1.498   .     D
O290   H291    0.991   .     S
S292   O293    1.498   .     D
S292   O295    1.673   .     S
S292   O294    1.502   .     D
O295   H296    0.991   .     S
C297   O342    1.309   .     A
C297   O339    1.305   .     A
C297   C306    1.454   .     S
C298   O340    1.310   .     A
C298   O341    1.305   .     A
C298   C305    1.454   .     S
C299   C324    1.404   .     A
C299   F349    1.358   .     S
C299   C991    1.394   1_554 S
C300   C323    1.404   .     A
C300   F350    1.358   .     S
C300   C992    1.393   .     S
C301   H333    1.078   .     S
C301   C306    1.398   .     A
C302   C305    1.403   .     A
C302   H334    1.083   .     S
C302   C378    1.387   .     S
C303   C305    1.398   .     A
C303   H335    1.079   .     S
C303   C375    1.381   .     S
C304   C306    1.403   .     A
C304   H336    1.083   .     S
C307   N338    1.397   .     A
C307   S351    1.845   .     S
C308   N337    1.397   .     A
C308   S356    1.846   .     S
C308   C531    1.464   .     S
C309   S361    1.848   .     S
C309   N338    1.397   .     A
C310   S366    1.849   .     S
C310   N337    1.397   .     A
C310   C529    1.464   .     S
C311   O343    1.311   .     A
C311   O346    1.310   .     A
C311   C316    1.466   .     S
C312   O344    1.307   .     A
C312   O345    1.315   .     A
C312   C315    1.470   .     S
C313   H329    1.078   .     S
C313   C323    1.393   .     A
C313   C315    1.400   .     A
C314   C324    1.395   .     A
C314   H330    1.083   .     S
C314   C316    1.404   .     A
C315   C317    1.411   .     A
C316   C318    1.406   .     A
C317   F347    1.360   .     S
C317   C319    1.399   .     A
C318   C320    1.396   .     A
C318   F348    1.359   .     S
C319   C325    1.404   .     A
C319   C321    1.412   .     A
C320   C322    1.412   .     A
C320   C326    1.403   .     A
C321   C323    1.411   .     A
C321   C988    1.404   .     S
C322   C324    1.411   .     A
C322   C987    1.404   1_554 S
C325   H331    1.083   .     S
C325   C965    1.394   .     S
C326   H332    1.083   .     S
C326   C966    1.393   1_554 S
Cu327  O339    1.967   .     S
Cu327  O343    1.972   .     S
Cu327  O345    1.971   .     S
Cu327  Cu328   2.725   .     S
Cu327  N337    2.048   .     S
Cu327  O341    1.967   .     S
Cu328  O344    1.972   .     S
Cu328  O340    1.967   .     S
Cu328  O346    1.971   .     S
Cu328  O342    1.967   .     S
Cu328  N338    2.048   .     S
S351   O352    1.499   .     D
S351   O353    1.501   .     D
S351   O354    1.673   .     S
O354   H355    0.991   .     S
S356   O359    1.673   .     S
S356   O358    1.501   .     D
S356   O357    1.499   .     D
O359   H360    0.991   .     S
S361   O363    1.501   .     D
S361   O364    1.673   .     S
S361   O362    1.498   .     D
O364   H365    0.991   .     S
S366   O367    1.498   .     D
S366   O369    1.673   .     S
S366   O368    1.502   .     D
O369   H370    0.991   .     S
C371   O416    1.309   .     A
C371   O413    1.305   .     A
C371   C380    1.454   .     S
C372   O414    1.310   .     A
C372   O415    1.305   .     A
C372   C379    1.454   .     S
C373   C398    1.404   .     A
C373   F423    1.358   .     S
C373   C1065   1.394   1_554 S
C374   C397    1.404   .     A
C374   F424    1.358   .     S
C374   C1066   1.393   .     S
C375   H407    1.078   .     S
C375   C380    1.398   .     A
C376   C379    1.403   .     A
C376   H408    1.083   .     S
C376   C230    1.387   1_655 S
C377   C379    1.398   .     A
C377   H409    1.079   .     S
C377   C227    1.381   1_655 S
C378   C380    1.403   .     A
C378   H410    1.083   .     S
C381   N412    1.397   .     A
C381   S425    1.845   .     S
C382   N411    1.397   .     A
C382   S430    1.846   .     S
C382   C605    1.464   .     S
C383   S435    1.848   .     S
C383   N412    1.397   .     A
C384   S440    1.849   .     S
C384   N411    1.397   .     A
C384   C603    1.464   .     S
C385   O417    1.311   .     A
C385   O420    1.310   .     A
C385   C390    1.466   .     S
C386   O418    1.307   .     A
C386   O419    1.315   .     A
C386   C389    1.470   .     S
C387   H403    1.078   .     S
C387   C397    1.393   .     A
C387   C389    1.400   .     A
C388   C398    1.395   .     A
C388   H404    1.083   .     S
C388   C390    1.404   .     A
C389   C391    1.411   .     A
C390   C392    1.406   .     A
C391   F421    1.360   .     S
C391   C393    1.399   .     A
C392   C394    1.396   .     A
C392   F422    1.359   .     S
C393   C399    1.404   .     A
C393   C395    1.412   .     A
C394   C396    1.412   .     A
C394   C400    1.403   .     A
C395   C397    1.411   .     A
C395   C1062   1.404   .     S
C396   C398    1.411   .     A
C396   C1061   1.404   1_554 S
C399   H405    1.083   .     S
C399   C1039   1.394   .     S
C400   H406    1.083   .     S
C400   C1040   1.393   1_554 S
Cu401  O413    1.967   .     S
Cu401  O417    1.972   .     S
Cu401  O419    1.971   .     S
Cu401  Cu402   2.725   .     S
Cu401  N411    2.048   .     S
Cu401  O415    1.967   .     S
Cu402  O418    1.972   .     S
Cu402  O414    1.967   .     S
Cu402  O420    1.971   .     S
Cu402  O416    1.967   .     S
Cu402  N412    2.048   .     S
S425   O426    1.499   .     D
S425   O427    1.501   .     D
S425   O428    1.673   .     S
O428   H429    0.991   .     S
S430   O433    1.673   .     S
S430   O432    1.501   .     D
S430   O431    1.499   .     D
O433   H434    0.991   .     S
S435   O437    1.501   .     D
S435   O438    1.673   .     S
S435   O436    1.498   .     D
O438   H439    0.991   .     S
S440   O441    1.498   .     D
S440   O443    1.673   .     S
S440   O442    1.502   .     D
O443   H444    0.991   .     S
C445   O490    1.309   .     A
C445   O487    1.305   .     A
C445   C454    1.454   .     S
C446   O488    1.310   .     A
C446   O489    1.305   .     A
C446   C453    1.454   .     S
C447   C472    1.404   .     A
C447   F497    1.358   .     S
C447   C1139   1.394   1_554 S
C448   C471    1.404   .     A
C448   F498    1.358   .     S
C448   C1140   1.393   .     S
C449   H481    1.078   .     S
C449   C454    1.398   .     A
C449   C599    1.381   1_455 S
C450   C453    1.403   .     A
C450   H482    1.083   .     S
C450   C526    1.387   .     S
C451   C453    1.398   .     A
C451   H483    1.079   .     S
C451   C523    1.381   .     S
C452   C454    1.403   .     A
C452   H484    1.083   .     S
C452   C598    1.387   1_455 S
C455   N486    1.397   .     A
C455   S499    1.845   .     S
C456   N485    1.397   .     A
C456   S504    1.846   .     S
C456   C13     1.464   1_565 S
C457   S509    1.848   .     S
C457   N486    1.397   .     A
C458   S514    1.849   .     S
C458   N485    1.397   .     A
C458   C11     1.464   1_565 S
C459   O491    1.311   .     A
C459   O494    1.310   .     A
C459   C464    1.466   .     S
C460   O492    1.307   .     A
C460   O493    1.315   .     A
C460   C463    1.470   .     S
C461   H477    1.078   .     S
C461   C471    1.393   .     A
C461   C463    1.400   .     A
C462   C472    1.395   .     A
C462   H478    1.083   .     S
C462   C464    1.404   .     A
C463   C465    1.411   .     A
C464   C466    1.406   .     A
C465   F495    1.360   .     S
C465   C467    1.399   .     A
C466   C468    1.396   .     A
C466   F496    1.359   .     S
C467   C473    1.404   .     A
C467   C469    1.412   .     A
C468   C470    1.412   .     A
C468   C474    1.403   .     A
C469   C471    1.411   .     A
C469   C1136   1.404   .     S
C470   C472    1.411   .     A
C470   C1135   1.404   1_554 S
C473   H479    1.083   .     S
C473   C1113   1.394   .     S
C474   H480    1.083   .     S
C474   C1114   1.393   1_554 S
Cu475  O487    1.967   .     S
Cu475  O491    1.972   .     S
Cu475  O493    1.971   .     S
Cu475  Cu476   2.725   .     S
Cu475  N485    2.048   .     S
Cu475  O489    1.967   .     S
Cu476  O492    1.972   .     S
Cu476  O488    1.967   .     S
Cu476  O494    1.971   .     S
Cu476  O490    1.967   .     S
Cu476  N486    2.048   .     S
S499   O500    1.499   .     D
S499   O501    1.501   .     D
S499   O502    1.673   .     S
O502   H503    0.991   .     S
S504   O507    1.673   .     S
S504   O506    1.501   .     D
S504   O505    1.499   .     D
O507   H508    0.991   .     S
S509   O511    1.501   .     D
S509   O512    1.673   .     S
S509   O510    1.498   .     D
O512   H513    0.991   .     S
S514   O515    1.498   .     D
S514   O517    1.673   .     S
S514   O516    1.502   .     D
O517   H518    0.991   .     S
C519   O564    1.309   .     A
C519   O561    1.305   .     A
C519   C528    1.454   .     S
C520   O562    1.310   .     A
C520   O563    1.305   .     A
C520   C527    1.454   .     S
C521   C546    1.404   .     A
C521   F571    1.358   .     S
C521   C1213   1.394   1_554 S
C522   C545    1.404   .     A
C522   F572    1.358   .     S
C522   C1214   1.393   .     S
C523   H555    1.078   .     S
C523   C528    1.398   .     A
C524   C527    1.403   .     A
C524   H556    1.083   .     S
C524   C600    1.387   .     S
C525   C527    1.398   .     A
C525   H557    1.079   .     S
C525   C597    1.381   .     S
C526   C528    1.403   .     A
C526   H558    1.083   .     S
C529   N560    1.397   .     A
C529   S573    1.845   .     S
C530   N559    1.397   .     A
C530   S578    1.846   .     S
C530   C87     1.464   1_565 S
C531   S583    1.848   .     S
C531   N560    1.397   .     A
C532   S588    1.849   .     S
C532   N559    1.397   .     A
C532   C85     1.464   1_565 S
C533   O565    1.311   .     A
C533   O568    1.310   .     A
C533   C538    1.466   .     S
C534   O566    1.307   .     A
C534   O567    1.315   .     A
C534   C537    1.470   .     S
C535   H551    1.078   .     S
C535   C545    1.393   .     A
C535   C537    1.400   .     A
C536   C546    1.395   .     A
C536   H552    1.083   .     S
C536   C538    1.404   .     A
C537   C539    1.411   .     A
C538   C540    1.406   .     A
C539   F569    1.360   .     S
C539   C541    1.399   .     A
C540   C542    1.396   .     A
C540   F570    1.359   .     S
C541   C547    1.404   .     A
C541   C543    1.412   .     A
C542   C544    1.412   .     A
C542   C548    1.403   .     A
C543   C545    1.411   .     A
C543   C1210   1.404   .     S
C544   C546    1.411   .     A
C544   C1209   1.404   1_554 S
C547   H553    1.083   .     S
C547   C1187   1.394   .     S
C548   H554    1.083   .     S
C548   C1188   1.393   1_554 S
Cu549  O561    1.967   .     S
Cu549  O565    1.972   .     S
Cu549  O567    1.971   .     S
Cu549  Cu550   2.725   .     S
Cu549  N559    2.048   .     S
Cu549  O563    1.967   .     S
Cu550  O566    1.972   .     S
Cu550  O562    1.967   .     S
Cu550  O568    1.971   .     S
Cu550  O564    1.967   .     S
Cu550  N560    2.048   .     S
S573   O574    1.499   .     D
S573   O575    1.501   .     D
S573   O576    1.673   .     S
O576   H577    0.991   .     S
S578   O581    1.673   .     S
S578   O580    1.501   .     D
S578   O579    1.499   .     D
O581   H582    0.991   .     S
S583   O585    1.501   .     D
S583   O586    1.673   .     S
S583   O584    1.498   .     D
O586   H587    0.991   .     S
S588   O589    1.498   .     D
S588   O591    1.673   .     S
S588   O590    1.502   .     D
O591   H592    0.991   .     S
C593   O638    1.309   .     A
C593   O635    1.305   .     A
C593   C602    1.454   .     S
C594   O636    1.310   .     A
C594   O637    1.305   .     A
C594   C601    1.454   .     S
C595   C620    1.404   .     A
C595   F645    1.358   .     S
C595   C1287   1.394   1_554 S
C596   C619    1.404   .     A
C596   F646    1.358   .     S
C596   C1288   1.393   .     S
C597   H629    1.078   .     S
C597   C602    1.398   .     A
C598   C601    1.403   .     A
C598   H630    1.083   .     S
C598   C452    1.387   1_655 S
C599   C601    1.398   .     A
C599   H631    1.079   .     S
C599   C449    1.381   1_655 S
C600   C602    1.403   .     A
C600   H632    1.083   .     S
C603   N634    1.397   .     A
C603   S647    1.845   .     S
C604   N633    1.397   .     A
C604   S652    1.846   .     S
C604   C161    1.464   1_565 S
C605   S657    1.848   .     S
C605   N634    1.397   .     A
C606   S662    1.849   .     S
C606   N633    1.397   .     A
C606   C159    1.464   1_565 S
C607   O639    1.311   .     A
C607   O642    1.310   .     A
C607   C612    1.466   .     S
C608   O640    1.307   .     A
C608   O641    1.315   .     A
C608   C611    1.470   .     S
C609   H625    1.078   .     S
C609   C619    1.393   .     A
C609   C611    1.400   .     A
C610   C620    1.395   .     A
C610   H626    1.083   .     S
C610   C612    1.404   .     A
C611   C613    1.411   .     A
C612   C614    1.406   .     A
C613   F643    1.360   .     S
C613   C615    1.399   .     A
C614   C616    1.396   .     A
C614   F644    1.359   .     S
C615   C621    1.404   .     A
C615   C617    1.412   .     A
C616   C618    1.412   .     A
C616   C622    1.403   .     A
C617   C619    1.411   .     A
C617   C1284   1.404   .     S
C618   C620    1.411   .     A
C618   C1283   1.404   1_554 S
C621   H627    1.083   .     S
C621   C1261   1.394   .     S
C622   H628    1.083   .     S
C622   C1262   1.393   1_554 S
Cu623  O635    1.967   .     S
Cu623  O639    1.972   .     S
Cu623  O641    1.971   .     S
Cu623  Cu624   2.725   .     S
Cu623  N633    2.048   .     S
Cu623  O637    1.967   .     S
Cu624  O640    1.972   .     S
Cu624  O636    1.967   .     S
Cu624  O642    1.971   .     S
Cu624  O638    1.967   .     S
Cu624  N634    2.048   .     S
S647   O648    1.499   .     D
S647   O649    1.501   .     D
S647   O650    1.673   .     S
O650   H651    0.991   .     S
S652   O655    1.673   .     S
S652   O654    1.501   .     D
S652   O653    1.499   .     D
O655   H656    0.991   .     S
S657   O659    1.501   .     D
S657   O660    1.673   .     S
S657   O658    1.498   .     D
O660   H661    0.991   .     S
S662   O663    1.498   .     D
S662   O665    1.673   .     S
S662   O664    1.502   .     D
O665   H666    0.991   .     S
C667   O712    1.309   .     A
C667   O709    1.305   .     A
C667   C676    1.454   .     S
C668   O710    1.310   .     A
C668   O711    1.305   .     A
C668   C675    1.454   .     S
C669   C694    1.404   .     A
C669   F719    1.358   .     S
C670   C693    1.404   .     A
C670   F720    1.358   .     S
C670   C30     1.393   1_556 S
C671   H703    1.078   .     S
C671   C676    1.398   .     A
C671   C821    1.381   1_455 S
C672   C675    1.403   .     A
C672   H704    1.083   .     S
C672   C748    1.387   .     S
C673   C675    1.398   .     A
C673   H705    1.079   .     S
C673   C745    1.381   .     S
C674   C676    1.403   .     A
C674   H706    1.083   .     S
C674   C820    1.387   1_455 S
C677   N708    1.397   .     A
C677   S721    1.845   .     S
C677   C1124   1.464   1_545 S
C678   N707    1.397   .     A
C678   S726    1.846   .     S
C678   C901    1.464   .     S
C679   S731    1.848   .     S
C679   N708    1.397   .     A
C679   C1122   1.464   1_545 S
C680   S736    1.849   .     S
C680   N707    1.397   .     A
C680   C899    1.464   .     S
C681   O713    1.311   .     A
C681   O716    1.310   .     A
C681   C686    1.466   .     S
C682   O714    1.307   .     A
C682   O715    1.315   .     A
C682   C685    1.470   .     S
C683   H699    1.078   .     S
C683   C693    1.393   .     A
C683   C685    1.400   .     A
C684   C694    1.395   .     A
C684   H700    1.083   .     S
C684   C686    1.404   .     A
C685   C687    1.411   .     A
C686   C688    1.406   .     A
C687   F717    1.360   .     S
C687   C689    1.399   .     A
C688   C690    1.396   .     A
C688   F718    1.359   .     S
C689   C695    1.404   .     A
C689   C691    1.412   .     A
C690   C692    1.412   .     A
C690   C696    1.403   .     A
C691   C693    1.411   .     A
C691   C26     1.404   1_556 S
C692   C694    1.411   .     A
C695   H701    1.083   .     S
C695   C3      1.394   1_556 S
C696   H702    1.083   .     S
Cu697  O709    1.967   .     S
Cu697  O713    1.972   .     S
Cu697  O715    1.971   .     S
Cu697  Cu698   2.725   .     S
Cu697  N707    2.048   .     S
Cu697  O711    1.967   .     S
Cu698  O714    1.972   .     S
Cu698  O710    1.967   .     S
Cu698  O716    1.971   .     S
Cu698  O712    1.967   .     S
Cu698  N708    2.048   .     S
S721   O722    1.499   .     D
S721   O723    1.501   .     D
S721   O724    1.673   .     S
O724   H725    0.991   .     S
S726   O729    1.673   .     S
S726   O728    1.501   .     D
S726   O727    1.499   .     D
O729   H730    0.991   .     S
S731   O733    1.501   .     D
S731   O734    1.673   .     S
S731   O732    1.498   .     D
O734   H735    0.991   .     S
S736   O737    1.498   .     D
S736   O739    1.673   .     S
S736   O738    1.502   .     D
O739   H740    0.991   .     S
C741   O786    1.309   .     A
C741   O783    1.305   .     A
C741   C750    1.454   .     S
C742   O784    1.310   .     A
C742   O785    1.305   .     A
C742   C749    1.454   .     S
C743   C768    1.404   .     A
C743   F793    1.358   .     S
C744   C767    1.404   .     A
C744   F794    1.358   .     S
C744   C104    1.393   1_556 S
C745   H777    1.078   .     S
C745   C750    1.398   .     A
C746   C749    1.403   .     A
C746   H778    1.083   .     S
C746   C822    1.387   .     S
C747   C749    1.398   .     A
C747   H779    1.079   .     S
C747   C819    1.381   .     S
C748   C750    1.403   .     A
C748   H780    1.083   .     S
C751   N782    1.397   .     A
C751   S795    1.845   .     S
C751   C1198   1.464   1_545 S
C752   N781    1.397   .     A
C752   S800    1.846   .     S
C752   C975    1.464   .     S
C753   S805    1.848   .     S
C753   N782    1.397   .     A
C753   C1196   1.464   1_545 S
C754   S810    1.849   .     S
C754   N781    1.397   .     A
C754   C973    1.464   .     S
C755   O787    1.311   .     A
C755   O790    1.310   .     A
C755   C760    1.466   .     S
C756   O788    1.307   .     A
C756   O789    1.315   .     A
C756   C759    1.470   .     S
C757   H773    1.078   .     S
C757   C767    1.393   .     A
C757   C759    1.400   .     A
C758   C768    1.395   .     A
C758   H774    1.083   .     S
C758   C760    1.404   .     A
C759   C761    1.411   .     A
C760   C762    1.406   .     A
C761   F791    1.360   .     S
C761   C763    1.399   .     A
C762   C764    1.396   .     A
C762   F792    1.359   .     S
C763   C769    1.404   .     A
C763   C765    1.412   .     A
C764   C766    1.412   .     A
C764   C770    1.403   .     A
C765   C767    1.411   .     A
C765   C100    1.404   1_556 S
C766   C768    1.411   .     A
C769   H775    1.083   .     S
C769   C77     1.394   1_556 S
C770   H776    1.083   .     S
Cu771  O783    1.967   .     S
Cu771  O787    1.972   .     S
Cu771  O789    1.971   .     S
Cu771  Cu772   2.725   .     S
Cu771  N781    2.048   .     S
Cu771  O785    1.967   .     S
Cu772  O788    1.972   .     S
Cu772  O784    1.967   .     S
Cu772  O790    1.971   .     S
Cu772  O786    1.967   .     S
Cu772  N782    2.048   .     S
S795   O796    1.499   .     D
S795   O797    1.501   .     D
S795   O798    1.673   .     S
O798   H799    0.991   .     S
S800   O803    1.673   .     S
S800   O802    1.501   .     D
S800   O801    1.499   .     D
O803   H804    0.991   .     S
S805   O807    1.501   .     D
S805   O808    1.673   .     S
S805   O806    1.498   .     D
O808   H809    0.991   .     S
S810   O811    1.498   .     D
S810   O813    1.673   .     S
S810   O812    1.502   .     D
O813   H814    0.991   .     S
C815   O860    1.309   .     A
C815   O857    1.305   .     A
C815   C824    1.454   .     S
C816   O858    1.310   .     A
C816   O859    1.305   .     A
C816   C823    1.454   .     S
C817   C842    1.404   .     A
C817   F867    1.358   .     S
C818   C841    1.404   .     A
C818   F868    1.358   .     S
C818   C178    1.393   1_556 S
C819   H851    1.078   .     S
C819   C824    1.398   .     A
C820   C823    1.403   .     A
C820   H852    1.083   .     S
C820   C674    1.387   1_655 S
C821   C823    1.398   .     A
C821   H853    1.079   .     S
C821   C671    1.381   1_655 S
C822   C824    1.403   .     A
C822   H854    1.083   .     S
C825   N856    1.397   .     A
C825   S869    1.845   .     S
C825   C1272   1.464   1_545 S
C826   N855    1.397   .     A
C826   S874    1.846   .     S
C826   C1049   1.464   .     S
C827   S879    1.848   .     S
C827   N856    1.397   .     A
C827   C1270   1.464   1_545 S
C828   S884    1.849   .     S
C828   N855    1.397   .     A
C828   C1047   1.464   .     S
C829   O861    1.311   .     A
C829   O864    1.310   .     A
C829   C834    1.466   .     S
C830   O862    1.307   .     A
C830   O863    1.315   .     A
C830   C833    1.470   .     S
C831   H847    1.078   .     S
C831   C841    1.393   .     A
C831   C833    1.400   .     A
C832   C842    1.395   .     A
C832   H848    1.083   .     S
C832   C834    1.404   .     A
C833   C835    1.411   .     A
C834   C836    1.406   .     A
C835   F865    1.360   .     S
C835   C837    1.399   .     A
C836   C838    1.396   .     A
C836   F866    1.359   .     S
C837   C843    1.404   .     A
C837   C839    1.412   .     A
C838   C840    1.412   .     A
C838   C844    1.403   .     A
C839   C841    1.411   .     A
C839   C174    1.404   1_556 S
C840   C842    1.411   .     A
C843   H849    1.083   .     S
C843   C151    1.394   1_556 S
C844   H850    1.083   .     S
Cu845  O857    1.967   .     S
Cu845  O861    1.972   .     S
Cu845  O863    1.971   .     S
Cu845  Cu846   2.725   .     S
Cu845  N855    2.048   .     S
Cu845  O859    1.967   .     S
Cu846  O862    1.972   .     S
Cu846  O858    1.967   .     S
Cu846  O864    1.971   .     S
Cu846  O860    1.967   .     S
Cu846  N856    2.048   .     S
S869   O870    1.499   .     D
S869   O871    1.501   .     D
S869   O872    1.673   .     S
O872   H873    0.991   .     S
S874   O877    1.673   .     S
S874   O876    1.501   .     D
S874   O875    1.499   .     D
O877   H878    0.991   .     S
S879   O881    1.501   .     D
S879   O882    1.673   .     S
S879   O880    1.498   .     D
O882   H883    0.991   .     S
S884   O885    1.498   .     D
S884   O887    1.673   .     S
S884   O886    1.502   .     D
O887   H888    0.991   .     S
C889   O934    1.309   .     A
C889   O931    1.305   .     A
C889   C898    1.454   .     S
C890   O932    1.310   .     A
C890   O933    1.305   .     A
C890   C897    1.454   .     S
C891   C916    1.404   .     A
C891   F941    1.358   .     S
C892   C915    1.404   .     A
C892   F942    1.358   .     S
C892   C252    1.393   1_556 S
C893   H925    1.078   .     S
C893   C898    1.398   .     A
C893   C1043   1.381   1_455 S
C894   C897    1.403   .     A
C894   H926    1.083   .     S
C894   C970    1.387   .     S
C895   C897    1.398   .     A
C895   H927    1.079   .     S
C895   C967    1.381   .     S
C896   C898    1.403   .     A
C896   H928    1.083   .     S
C896   C1042   1.387   1_455 S
C899   N930    1.397   .     A
C899   S943    1.845   .     S
C900   N929    1.397   .     A
C900   S948    1.846   .     S
C900   C1123   1.464   .     S
C901   S953    1.848   .     S
C901   N930    1.397   .     A
C902   S958    1.849   .     S
C902   N929    1.397   .     A
C902   C1121   1.464   .     S
C903   O935    1.311   .     A
C903   O938    1.310   .     A
C903   C908    1.466   .     S
C904   O936    1.307   .     A
C904   O937    1.315   .     A
C904   C907    1.470   .     S
C905   H921    1.078   .     S
C905   C915    1.393   .     A
C905   C907    1.400   .     A
C906   C916    1.395   .     A
C906   H922    1.083   .     S
C906   C908    1.404   .     A
C907   C909    1.411   .     A
C908   C910    1.406   .     A
C909   F939    1.360   .     S
C909   C911    1.399   .     A
C910   C912    1.396   .     A
C910   F940    1.359   .     S
C911   C917    1.404   .     A
C911   C913    1.412   .     A
C912   C914    1.412   .     A
C912   C918    1.403   .     A
C913   C915    1.411   .     A
C913   C248    1.404   1_556 S
C914   C916    1.411   .     A
C917   H923    1.083   .     S
C917   C225    1.394   1_556 S
C918   H924    1.083   .     S
Cu919  O931    1.967   .     S
Cu919  O935    1.972   .     S
Cu919  O937    1.971   .     S
Cu919  Cu920   2.725   .     S
Cu919  N929    2.048   .     S
Cu919  O933    1.967   .     S
Cu920  O936    1.972   .     S
Cu920  O932    1.967   .     S
Cu920  O938    1.971   .     S
Cu920  O934    1.967   .     S
Cu920  N930    2.048   .     S
S943   O944    1.499   .     D
S943   O945    1.501   .     D
S943   O946    1.673   .     S
O946   H947    0.991   .     S
S948   O951    1.673   .     S
S948   O950    1.501   .     D
S948   O949    1.499   .     D
O951   H952    0.991   .     S
S953   O955    1.501   .     D
S953   O956    1.673   .     S
S953   O954    1.498   .     D
O956   H957    0.991   .     S
S958   O959    1.498   .     D
S958   O961    1.673   .     S
S958   O960    1.502   .     D
O961   H962    0.991   .     S
C963   O1008   1.309   .     A
C963   O1005   1.305   .     A
C963   C972    1.454   .     S
C964   O1006   1.310   .     A
C964   O1007   1.305   .     A
C964   C971    1.454   .     S
C965   C990    1.404   .     A
C965   F1015   1.358   .     S
C966   C989    1.404   .     A
C966   F1016   1.358   .     S
C966   C326    1.393   1_556 S
C967   H999    1.078   .     S
C967   C972    1.398   .     A
C968   C971    1.403   .     A
C968   H1000   1.083   .     S
C968   C1044   1.387   .     S
C969   C971    1.398   .     A
C969   H1001   1.079   .     S
C969   C1041   1.381   .     S
C970   C972    1.403   .     A
C970   H1002   1.083   .     S
C973   N1004   1.397   .     A
C973   S1017   1.845   .     S
C974   N1003   1.397   .     A
C974   S1022   1.846   .     S
C974   C1197   1.464   .     S
C975   S1027   1.848   .     S
C975   N1004   1.397   .     A
C976   S1032   1.849   .     S
C976   N1003   1.397   .     A
C976   C1195   1.464   .     S
C977   O1009   1.311   .     A
C977   O1012   1.310   .     A
C977   C982    1.466   .     S
C978   O1010   1.307   .     A
C978   O1011   1.315   .     A
C978   C981    1.470   .     S
C979   H995    1.078   .     S
C979   C989    1.393   .     A
C979   C981    1.400   .     A
C980   C990    1.395   .     A
C980   H996    1.083   .     S
C980   C982    1.404   .     A
C981   C983    1.411   .     A
C982   C984    1.406   .     A
C983   F1013   1.360   .     S
C983   C985    1.399   .     A
C984   C986    1.396   .     A
C984   F1014   1.359   .     S
C985   C991    1.404   .     A
C985   C987    1.412   .     A
C986   C988    1.412   .     A
C986   C992    1.403   .     A
C987   C989    1.411   .     A
C987   C322    1.404   1_556 S
C988   C990    1.411   .     A
C991   H997    1.083   .     S
C991   C299    1.394   1_556 S
C992   H998    1.083   .     S
Cu993  O1005   1.967   .     S
Cu993  O1009   1.972   .     S
Cu993  O1011   1.971   .     S
Cu993  Cu994   2.725   .     S
Cu993  N1003   2.048   .     S
Cu993  O1007   1.967   .     S
Cu994  O1010   1.972   .     S
Cu994  O1006   1.967   .     S
Cu994  O1012   1.971   .     S
Cu994  O1008   1.967   .     S
Cu994  N1004   2.048   .     S
S1017  O1018   1.499   .     D
S1017  O1019   1.501   .     D
S1017  O1020   1.673   .     S
O1020  H1021   0.991   .     S
S1022  O1025   1.673   .     S
S1022  O1024   1.501   .     D
S1022  O1023   1.499   .     D
O1025  H1026   0.991   .     S
S1027  O1029   1.501   .     D
S1027  O1030   1.673   .     S
S1027  O1028   1.498   .     D
O1030  H1031   0.991   .     S
S1032  O1033   1.498   .     D
S1032  O1035   1.673   .     S
S1032  O1034   1.502   .     D
O1035  H1036   0.991   .     S
C1037  O1082   1.309   .     A
C1037  O1079   1.305   .     A
C1037  C1046   1.454   .     S
C1038  O1080   1.310   .     A
C1038  O1081   1.305   .     A
C1038  C1045   1.454   .     S
C1039  C1064   1.404   .     A
C1039  F1089   1.358   .     S
C1040  C1063   1.404   .     A
C1040  F1090   1.358   .     S
C1040  C400    1.393   1_556 S
C1041  H1073   1.078   .     S
C1041  C1046   1.398   .     A
C1042  C1045   1.403   .     A
C1042  H1074   1.083   .     S
C1042  C896    1.387   1_655 S
C1043  C1045   1.398   .     A
C1043  H1075   1.079   .     S
C1043  C893    1.381   1_655 S
C1044  C1046   1.403   .     A
C1044  H1076   1.083   .     S
C1047  N1078   1.397   .     A
C1047  S1091   1.845   .     S
C1048  N1077   1.397   .     A
C1048  S1096   1.846   .     S
C1048  C1271   1.464   .     S
C1049  S1101   1.848   .     S
C1049  N1078   1.397   .     A
C1050  S1106   1.849   .     S
C1050  N1077   1.397   .     A
C1050  C1269   1.464   .     S
C1051  O1083   1.311   .     A
C1051  O1086   1.310   .     A
C1051  C1056   1.466   .     S
C1052  O1084   1.307   .     A
C1052  O1085   1.315   .     A
C1052  C1055   1.470   .     S
C1053  H1069   1.078   .     S
C1053  C1063   1.393   .     A
C1053  C1055   1.400   .     A
C1054  C1064   1.395   .     A
C1054  H1070   1.083   .     S
C1054  C1056   1.404   .     A
C1055  C1057   1.411   .     A
C1056  C1058   1.406   .     A
C1057  F1087   1.360   .     S
C1057  C1059   1.399   .     A
C1058  C1060   1.396   .     A
C1058  F1088   1.359   .     S
C1059  C1065   1.404   .     A
C1059  C1061   1.412   .     A
C1060  C1062   1.412   .     A
C1060  C1066   1.403   .     A
C1061  C1063   1.411   .     A
C1061  C396    1.404   1_556 S
C1062  C1064   1.411   .     A
C1065  H1071   1.083   .     S
C1065  C373    1.394   1_556 S
C1066  H1072   1.083   .     S
Cu1067 O1079   1.967   .     S
Cu1067 O1083   1.972   .     S
Cu1067 O1085   1.971   .     S
Cu1067 Cu1068  2.725   .     S
Cu1067 N1077   2.048   .     S
Cu1067 O1081   1.967   .     S
Cu1068 O1084   1.972   .     S
Cu1068 O1080   1.967   .     S
Cu1068 O1086   1.971   .     S
Cu1068 O1082   1.967   .     S
Cu1068 N1078   2.048   .     S
S1091  O1092   1.499   .     D
S1091  O1093   1.501   .     D
S1091  O1094   1.673   .     S
O1094  H1095   0.991   .     S
S1096  O1099   1.673   .     S
S1096  O1098   1.501   .     D
S1096  O1097   1.499   .     D
O1099  H1100   0.991   .     S
S1101  O1103   1.501   .     D
S1101  O1104   1.673   .     S
S1101  O1102   1.498   .     D
O1104  H1105   0.991   .     S
S1106  O1107   1.498   .     D
S1106  O1109   1.673   .     S
S1106  O1108   1.502   .     D
O1109  H1110   0.991   .     S
C1111  O1156   1.309   .     A
C1111  O1153   1.305   .     A
C1111  C1120   1.454   .     S
C1112  O1154   1.310   .     A
C1112  O1155   1.305   .     A
C1112  C1119   1.454   .     S
C1113  C1138   1.404   .     A
C1113  F1163   1.358   .     S
C1114  C1137   1.404   .     A
C1114  F1164   1.358   .     S
C1114  C474    1.393   1_556 S
C1115  H1147   1.078   .     S
C1115  C1120   1.398   .     A
C1115  C1265   1.381   1_455 S
C1116  C1119   1.403   .     A
C1116  H1148   1.083   .     S
C1116  C1192   1.387   .     S
C1117  C1119   1.398   .     A
C1117  H1149   1.079   .     S
C1117  C1189   1.381   .     S
C1118  C1120   1.403   .     A
C1118  H1150   1.083   .     S
C1118  C1264   1.387   1_455 S
C1121  N1152   1.397   .     A
C1121  S1165   1.845   .     S
C1122  N1151   1.397   .     A
C1122  S1170   1.846   .     S
C1122  C679    1.464   1_565 S
C1123  S1175   1.848   .     S
C1123  N1152   1.397   .     A
C1124  S1180   1.849   .     S
C1124  N1151   1.397   .     A
C1124  C677    1.464   1_565 S
C1125  O1157   1.311   .     A
C1125  O1160   1.310   .     A
C1125  C1130   1.466   .     S
C1126  O1158   1.307   .     A
C1126  O1159   1.315   .     A
C1126  C1129   1.470   .     S
C1127  H1143   1.078   .     S
C1127  C1137   1.393   .     A
C1127  C1129   1.400   .     A
C1128  C1138   1.395   .     A
C1128  H1144   1.083   .     S
C1128  C1130   1.404   .     A
C1129  C1131   1.411   .     A
C1130  C1132   1.406   .     A
C1131  F1161   1.360   .     S
C1131  C1133   1.399   .     A
C1132  C1134   1.396   .     A
C1132  F1162   1.359   .     S
C1133  C1139   1.404   .     A
C1133  C1135   1.412   .     A
C1134  C1136   1.412   .     A
C1134  C1140   1.403   .     A
C1135  C1137   1.411   .     A
C1135  C470    1.404   1_556 S
C1136  C1138   1.411   .     A
C1139  H1145   1.083   .     S
C1139  C447    1.394   1_556 S
C1140  H1146   1.083   .     S
Cu1141 O1153   1.967   .     S
Cu1141 O1157   1.972   .     S
Cu1141 O1159   1.971   .     S
Cu1141 Cu1142  2.725   .     S
Cu1141 N1151   2.048   .     S
Cu1141 O1155   1.967   .     S
Cu1142 O1158   1.972   .     S
Cu1142 O1154   1.967   .     S
Cu1142 O1160   1.971   .     S
Cu1142 O1156   1.967   .     S
Cu1142 N1152   2.048   .     S
S1165  O1166   1.499   .     D
S1165  O1167   1.501   .     D
S1165  O1168   1.673   .     S
O1168  H1169   0.991   .     S
S1170  O1173   1.673   .     S
S1170  O1172   1.501   .     D
S1170  O1171   1.499   .     D
O1173  H1174   0.991   .     S
S1175  O1177   1.501   .     D
S1175  O1178   1.673   .     S
S1175  O1176   1.498   .     D
O1178  H1179   0.991   .     S
S1180  O1181   1.498   .     D
S1180  O1183   1.673   .     S
S1180  O1182   1.502   .     D
O1183  H1184   0.991   .     S
C1185  O1230   1.309   .     A
C1185  O1227   1.305   .     A
C1185  C1194   1.454   .     S
C1186  O1228   1.310   .     A
C1186  O1229   1.305   .     A
C1186  C1193   1.454   .     S
C1187  C1212   1.404   .     A
C1187  F1237   1.358   .     S
C1188  C1211   1.404   .     A
C1188  F1238   1.358   .     S
C1188  C548    1.393   1_556 S
C1189  H1221   1.078   .     S
C1189  C1194   1.398   .     A
C1190  C1193   1.403   .     A
C1190  H1222   1.083   .     S
C1190  C1266   1.387   .     S
C1191  C1193   1.398   .     A
C1191  H1223   1.079   .     S
C1191  C1263   1.381   .     S
C1192  C1194   1.403   .     A
C1192  H1224   1.083   .     S
C1195  N1226   1.397   .     A
C1195  S1239   1.845   .     S
C1196  N1225   1.397   .     A
C1196  S1244   1.846   .     S
C1196  C753    1.464   1_565 S
C1197  S1249   1.848   .     S
C1197  N1226   1.397   .     A
C1198  S1254   1.849   .     S
C1198  N1225   1.397   .     A
C1198  C751    1.464   1_565 S
C1199  O1231   1.311   .     A
C1199  O1234   1.310   .     A
C1199  C1204   1.466   .     S
C1200  O1232   1.307   .     A
C1200  O1233   1.315   .     A
C1200  C1203   1.470   .     S
C1201  H1217   1.078   .     S
C1201  C1211   1.393   .     A
C1201  C1203   1.400   .     A
C1202  C1212   1.395   .     A
C1202  H1218   1.083   .     S
C1202  C1204   1.404   .     A
C1203  C1205   1.411   .     A
C1204  C1206   1.406   .     A
C1205  F1235   1.360   .     S
C1205  C1207   1.399   .     A
C1206  C1208   1.396   .     A
C1206  F1236   1.359   .     S
C1207  C1213   1.404   .     A
C1207  C1209   1.412   .     A
C1208  C1210   1.412   .     A
C1208  C1214   1.403   .     A
C1209  C1211   1.411   .     A
C1209  C544    1.404   1_556 S
C1210  C1212   1.411   .     A
C1213  H1219   1.083   .     S
C1213  C521    1.394   1_556 S
C1214  H1220   1.083   .     S
Cu1215 O1227   1.967   .     S
Cu1215 O1231   1.972   .     S
Cu1215 O1233   1.971   .     S
Cu1215 Cu1216  2.725   .     S
Cu1215 N1225   2.048   .     S
Cu1215 O1229   1.967   .     S
Cu1216 O1232   1.972   .     S
Cu1216 O1228   1.967   .     S
Cu1216 O1234   1.971   .     S
Cu1216 O1230   1.967   .     S
Cu1216 N1226   2.048   .     S
S1239  O1240   1.499   .     D
S1239  O1241   1.501   .     D
S1239  O1242   1.673   .     S
O1242  H1243   0.991   .     S
S1244  O1247   1.673   .     S
S1244  O1246   1.501   .     D
S1244  O1245   1.499   .     D
O1247  H1248   0.991   .     S
S1249  O1251   1.501   .     D
S1249  O1252   1.673   .     S
S1249  O1250   1.498   .     D
O1252  H1253   0.991   .     S
S1254  O1255   1.498   .     D
S1254  O1257   1.673   .     S
S1254  O1256   1.502   .     D
O1257  H1258   0.991   .     S
C1259  O1304   1.309   .     A
C1259  O1301   1.305   .     A
C1259  C1268   1.454   .     S
C1260  O1302   1.310   .     A
C1260  O1303   1.305   .     A
C1260  C1267   1.454   .     S
C1261  C1286   1.404   .     A
C1261  F1311   1.358   .     S
C1262  C1285   1.404   .     A
C1262  F1312   1.358   .     S
C1262  C622    1.393   1_556 S
C1263  H1295   1.078   .     S
C1263  C1268   1.398   .     A
C1264  C1267   1.403   .     A
C1264  H1296   1.083   .     S
C1264  C1118   1.387   1_655 S
C1265  C1267   1.398   .     A
C1265  H1297   1.079   .     S
C1265  C1115   1.381   1_655 S
C1266  C1268   1.403   .     A
C1266  H1298   1.083   .     S
C1269  N1300   1.397   .     A
C1269  S1313   1.845   .     S
C1270  N1299   1.397   .     A
C1270  S1318   1.846   .     S
C1270  C827    1.464   1_565 S
C1271  S1323   1.848   .     S
C1271  N1300   1.397   .     A
C1272  S1328   1.849   .     S
C1272  N1299   1.397   .     A
C1272  C825    1.464   1_565 S
C1273  O1305   1.311   .     A
C1273  O1308   1.310   .     A
C1273  C1278   1.466   .     S
C1274  O1306   1.307   .     A
C1274  O1307   1.315   .     A
C1274  C1277   1.470   .     S
C1275  H1291   1.078   .     S
C1275  C1285   1.393   .     A
C1275  C1277   1.400   .     A
C1276  C1286   1.395   .     A
C1276  H1292   1.083   .     S
C1276  C1278   1.404   .     A
C1277  C1279   1.411   .     A
C1278  C1280   1.406   .     A
C1279  F1309   1.360   .     S
C1279  C1281   1.399   .     A
C1280  C1282   1.396   .     A
C1280  F1310   1.359   .     S
C1281  C1287   1.404   .     A
C1281  C1283   1.412   .     A
C1282  C1284   1.412   .     A
C1282  C1288   1.403   .     A
C1283  C1285   1.411   .     A
C1283  C618    1.404   1_556 S
C1284  C1286   1.411   .     A
C1287  H1293   1.083   .     S
C1287  C595    1.394   1_556 S
C1288  H1294   1.083   .     S
Cu1289 O1301   1.967   .     S
Cu1289 O1305   1.972   .     S
Cu1289 O1307   1.971   .     S
Cu1289 Cu1290  2.725   .     S
Cu1289 N1299   2.048   .     S
Cu1289 O1303   1.967   .     S
Cu1290 O1306   1.972   .     S
Cu1290 O1302   1.967   .     S
Cu1290 O1308   1.971   .     S
Cu1290 O1304   1.967   .     S
Cu1290 N1300   2.048   .     S
S1313  O1314   1.499   .     D
S1313  O1315   1.501   .     D
S1313  O1316   1.673   .     S
O1316  H1317   0.991   .     S
S1318  O1321   1.673   .     S
S1318  O1320   1.501   .     D
S1318  O1319   1.499   .     D
O1321  H1322   0.991   .     S
S1323  O1325   1.501   .     D
S1323  O1326   1.673   .     S
S1323  O1324   1.498   .     D
O1326  H1327   0.991   .     S
S1328  O1329   1.498   .     D
S1328  O1331   1.673   .     S
S1328  O1330   1.502   .     D
O1331  H1332   0.991   .     S
