data_str_m1_o1_o17_pcu_sym.123
_audit_creation_date              2020-01-03
_audit_creation_method            'Materials Studio'
_symmetry_space_group_name_H-M    'P1'
_symmetry_Int_Tables_number       1
_symmetry_cell_setting            triclinic
loop_
_symmetry_equiv_pos_as_xyz
  x,y,z
_cell_length_a                    36.6646
_cell_length_b                    36.6575
_cell_length_c                    34.3931
_cell_angle_alpha                 89.9767
_cell_angle_beta                  89.9693
_cell_angle_gamma                 90.0048
loop_
_atom_site_label
_atom_site_type_symbol
_atom_site_fract_x
_atom_site_fract_y
_atom_site_fract_z
_atom_site_U_iso_or_equiv
_atom_site_adp_type
_atom_site_occupancy
Zn1    Zn    0.20660   0.00000   0.21735   0.00000  Uiso   1.00
Zn2    Zn    0.29341   0.00000   0.78265   0.00000  Uiso   1.00
Zn3    Zn    0.00000   0.20660   0.21735   0.00000  Uiso   1.00
Zn4    Zn    0.00000   0.29341   0.78265   0.00000  Uiso   1.00
Zn5    Zn    0.29341   0.00000   0.21735   0.00000  Uiso   1.00
Zn6    Zn    0.20660   0.00000   0.78265   0.00000  Uiso   1.00
Zn7    Zn    0.00000   0.29341   0.21735   0.00000  Uiso   1.00
Zn8    Zn    0.00000   0.20660   0.78265   0.00000  Uiso   1.00
Zn9    Zn    0.45660   0.25000   0.71735   0.00000  Uiso   1.00
Zn10   Zn    0.04341   0.25000   0.28265   0.00000  Uiso   1.00
Zn11   Zn    0.25000   0.45660   0.71735   0.00000  Uiso   1.00
Zn12   Zn    0.25000   0.04341   0.28265   0.00000  Uiso   1.00
Zn13   Zn    0.04341   0.25000   0.71735   0.00000  Uiso   1.00
Zn14   Zn    0.45660   0.25000   0.28265   0.00000  Uiso   1.00
Zn15   Zn    0.25000   0.04341   0.71735   0.00000  Uiso   1.00
Zn16   Zn    0.25000   0.45660   0.28265   0.00000  Uiso   1.00
C17    C     0.49185   0.28228   0.41809   0.00000  Uiso   1.00
C18    C     0.49268   0.21753   0.58182   0.00000  Uiso   1.00
C19    C     0.22294   0.48062   0.41827   0.00000  Uiso   1.00
C20    C     0.28164   0.01028   0.58224   0.00000  Uiso   1.00
C21    C     0.00798   0.21767   0.41810   0.00000  Uiso   1.00
C22    C     0.00735   0.28244   0.58177   0.00000  Uiso   1.00
C23    C     0.27698   0.01951   0.41820   0.00000  Uiso   1.00
C24    C     0.21829   0.48984   0.58231   0.00000  Uiso   1.00
C25    C     0.23365   0.02902   0.91817   0.00000  Uiso   1.00
C26    C     0.26613   0.47085   0.08207   0.00000  Uiso   1.00
C27    C     0.46755   0.24201   0.91810   0.00000  Uiso   1.00
C28    C     0.03215   0.24186   0.08165   0.00000  Uiso   1.00
C29    C     0.26630   0.47094   0.91817   0.00000  Uiso   1.00
C30    C     0.23379   0.02910   0.08204   0.00000  Uiso   1.00
C31    C     0.03220   0.25794   0.91810   0.00000  Uiso   1.00
C32    C     0.46754   0.25768   0.08179   0.00000  Uiso   1.00
C33    C     0.49995   0.24999   0.39800   0.00000  Uiso   1.00
C34    C     0.00003   0.24999   0.60189   0.00000  Uiso   1.00
C35    C     0.24999   0.00002   0.39821   0.00000  Uiso   1.00
C36    C     0.24998   0.00003   0.60222   0.00000  Uiso   1.00
C37    C     0.24998   0.49998   0.89809   0.00000  Uiso   1.00
C38    C     0.25000   0.00001   0.10204   0.00000  Uiso   1.00
C39    C     0.49989   0.24999   0.89799   0.00000  Uiso   1.00
C40    C     0.49992   0.24993   0.10185   0.00000  Uiso   1.00
O41    O     0.25000   0.00000   0.25000   0.00000  Uiso   1.00
O42    O     0.25000   0.00000   0.75000   0.00000  Uiso   1.00
O43    O     0.00000   0.25000   0.25000   0.00000  Uiso   1.00
O44    O     0.00000   0.25000   0.75000   0.00000  Uiso   1.00
O45    O     0.25000   0.46964   0.33755   0.00000  Uiso   1.00
O46    O     0.25000   0.03037   0.66245   0.00000  Uiso   1.00
O47    O     0.03037   0.25000   0.33755   0.00000  Uiso   1.00
O48    O     0.46964   0.25000   0.66245   0.00000  Uiso   1.00
O49    O     0.25000   0.03037   0.33755   0.00000  Uiso   1.00
O50    O     0.25000   0.46964   0.66245   0.00000  Uiso   1.00
O51    O     0.46964   0.25000   0.33755   0.00000  Uiso   1.00
O52    O     0.03037   0.25000   0.66245   0.00000  Uiso   1.00
O53    O     0.00000   0.21964   0.83755   0.00000  Uiso   1.00
O54    O     0.00000   0.28037   0.16245   0.00000  Uiso   1.00
O55    O     0.28037   0.00000   0.83755   0.00000  Uiso   1.00
O56    O     0.21964   0.00000   0.16245   0.00000  Uiso   1.00
O57    O     0.00000   0.28037   0.83755   0.00000  Uiso   1.00
O58    O     0.00000   0.21964   0.16245   0.00000  Uiso   1.00
O59    O     0.21964   0.00000   0.83755   0.00000  Uiso   1.00
O60    O     0.28037   0.00000   0.16245   0.00000  Uiso   1.00
O61    O     0.20725   0.07308   0.27302   0.00000  Uiso   1.00
O62    O     0.29276   0.42693   0.72698   0.00000  Uiso   1.00
O63    O     0.42693   0.20725   0.27302   0.00000  Uiso   1.00
O64    O     0.07308   0.29276   0.72698   0.00000  Uiso   1.00
O65    O     0.29276   0.42693   0.27302   0.00000  Uiso   1.00
O66    O     0.20725   0.07308   0.72698   0.00000  Uiso   1.00
O67    O     0.07308   0.29276   0.27302   0.00000  Uiso   1.00
O68    O     0.42693   0.20725   0.72698   0.00000  Uiso   1.00
O69    O     0.20725   0.42693   0.72698   0.00000  Uiso   1.00
O70    O     0.29276   0.07308   0.27302   0.00000  Uiso   1.00
O71    O     0.42693   0.29276   0.72698   0.00000  Uiso   1.00
O72    O     0.07308   0.20725   0.27302   0.00000  Uiso   1.00
O73    O     0.29276   0.07308   0.72698   0.00000  Uiso   1.00
O74    O     0.20725   0.42693   0.27302   0.00000  Uiso   1.00
O75    O     0.07308   0.20725   0.72698   0.00000  Uiso   1.00
O76    O     0.42693   0.29276   0.27302   0.00000  Uiso   1.00
O77    O     0.45725   0.32308   0.77302   0.00000  Uiso   1.00
O78    O     0.04276   0.17693   0.22698   0.00000  Uiso   1.00
O79    O     0.17693   0.45725   0.77302   0.00000  Uiso   1.00
O80    O     0.32308   0.04276   0.22698   0.00000  Uiso   1.00
O81    O     0.04276   0.17693   0.77302   0.00000  Uiso   1.00
O82    O     0.45725   0.32308   0.22698   0.00000  Uiso   1.00
O83    O     0.32308   0.04276   0.77302   0.00000  Uiso   1.00
O84    O     0.17693   0.45725   0.22698   0.00000  Uiso   1.00
O85    O     0.45725   0.17693   0.22698   0.00000  Uiso   1.00
O86    O     0.04276   0.32308   0.77302   0.00000  Uiso   1.00
O87    O     0.17693   0.04276   0.22698   0.00000  Uiso   1.00
O88    O     0.32308   0.45725   0.77302   0.00000  Uiso   1.00
O89    O     0.04276   0.32308   0.22698   0.00000  Uiso   1.00
O90    O     0.45725   0.17693   0.77302   0.00000  Uiso   1.00
O91    O     0.32308   0.45725   0.22698   0.00000  Uiso   1.00
O92    O     0.17693   0.04276   0.77302   0.00000  Uiso   1.00
C93    C     0.00157   0.18313   0.47955   0.00000  Uiso   1.00
C94    C     0.00093   0.31687   0.52021   0.00000  Uiso   1.00
C95    C     0.30919   0.03142   0.48008   0.00000  Uiso   1.00
C96    C     0.19056   0.46923   0.52083   0.00000  Uiso   1.00
C97    C     0.49830   0.31682   0.47950   0.00000  Uiso   1.00
C98    C     0.49901   0.18309   0.52027   0.00000  Uiso   1.00
C99    C     0.19057   0.46903   0.48015   0.00000  Uiso   1.00
C100   C     0.30922   0.03115   0.52075   0.00000  Uiso   1.00
C101   C     0.27166   0.43674   0.97973   0.00000  Uiso   1.00
C102   C     0.22806   0.06316   0.02044   0.00000  Uiso   1.00
C103   C     0.06668   0.25089   0.97945   0.00000  Uiso   1.00
C104   C     0.43299   0.25154   0.02025   0.00000  Uiso   1.00
C105   C     0.22830   0.06322   0.97970   0.00000  Uiso   1.00
C106   C     0.27191   0.43679   0.02048   0.00000  Uiso   1.00
C107   C     0.43301   0.24881   0.97953   0.00000  Uiso   1.00
C108   C     0.06668   0.24800   0.02014   0.00000  Uiso   1.00
C109   C     0.25000  -0.00000   0.35581   0.00000  Uiso   1.00
C110   C     0.25000   0.00001   0.64434   0.00000  Uiso   1.00
C111   C     0.49999   0.25000   0.35574   0.00000  Uiso   1.00
C112   C     0.00001   0.25000   0.64423   0.00000  Uiso   1.00
C113   C     0.49995   0.24999   0.85574   0.00000  Uiso   1.00
C114   C    -0.00000   0.24999   0.14421   0.00000  Uiso   1.00
C115   C     0.24999   0.49999   0.85577   0.00000  Uiso   1.00
C116   C     0.25000   0.00002   0.14428   0.00000  Uiso   1.00
C117   C     0.18002   0.07006   0.25004   0.00000  Uiso   1.00
C118   C     0.32004   0.43000   0.75013   0.00000  Uiso   1.00
C119   C     0.43003   0.17996   0.24997   0.00000  Uiso   1.00
C120   C     0.07019   0.31980   0.75020   0.00000  Uiso   1.00
C121   C     0.31999   0.42994   0.25005   0.00000  Uiso   1.00
C122   C     0.17996   0.07001   0.75014   0.00000  Uiso   1.00
C123   C     0.07007   0.31996   0.24975   0.00000  Uiso   1.00
C124   C     0.42982   0.18020   0.75021   0.00000  Uiso   1.00
C125   C     0.17994   0.43002   0.75005   0.00000  Uiso   1.00
C126   C     0.31992   0.07013   0.25000   0.00000  Uiso   1.00
C127   C     0.42994   0.31995   0.75001   0.00000  Uiso   1.00
C128   C     0.06979   0.17981   0.25021   0.00000  Uiso   1.00
C129   C     0.32006   0.06998   0.75004   0.00000  Uiso   1.00
C130   C     0.18009   0.42990   0.25008   0.00000  Uiso   1.00
C131   C     0.07007   0.18005   0.75001   0.00000  Uiso   1.00
C132   C     0.43021   0.32020   0.25021   0.00000  Uiso   1.00
C133   C     0.13695   0.39054   0.21401   0.00000  Uiso   1.00
C134   C     0.38482   0.08832   0.74331   0.00000  Uiso   1.00
C135   C     0.08825   0.11527   0.25768   0.00000  Uiso   1.00
C136   C     0.39165   0.36450   0.78536   0.00000  Uiso   1.00
C137   C     0.36487   0.10806   0.21446   0.00000  Uiso   1.00
C138   C     0.11519   0.41168   0.74328   0.00000  Uiso   1.00
C139   C     0.41175   0.38472   0.25768   0.00000  Uiso   1.00
C140   C     0.10831   0.13547   0.78537   0.00000  Uiso   1.00
C141   C     0.13413   0.10734   0.78520   0.00000  Uiso   1.00
C142   C     0.38460   0.41175   0.25752   0.00000  Uiso   1.00
C143   C     0.08848   0.38415   0.74146   0.00000  Uiso   1.00
C144   C     0.39228   0.13476   0.21453   0.00000  Uiso   1.00
C145   C     0.36583   0.39263   0.78519   0.00000  Uiso   1.00
C146   C     0.11541   0.08826   0.25754   0.00000  Uiso   1.00
C147   C     0.41154   0.11584   0.74152   0.00000  Uiso   1.00
C148   C     0.10976   0.36380   0.21380   0.00000  Uiso   1.00
C149   C     0.36538   0.16166   0.75831   0.00000  Uiso   1.00
C150   C     0.11451   0.35826   0.28479   0.00000  Uiso   1.00
C151   C     0.35840   0.38552   0.71461   0.00000  Uiso   1.00
C152   C     0.16174   0.13492   0.24389   0.00000  Uiso   1.00
C153   C     0.13461   0.33834   0.75834   0.00000  Uiso   1.00
C154   C     0.38479   0.14234   0.28503   0.00000  Uiso   1.00
C155   C     0.14167   0.11454   0.71462   0.00000  Uiso   1.00
C156   C     0.33827   0.36509   0.24392   0.00000  Uiso   1.00
C157   C     0.36577   0.33837   0.24209   0.00000  Uiso   1.00
C158   C     0.11509   0.14204   0.71468   0.00000  Uiso   1.00
C159   C     0.35646   0.11680   0.28472   0.00000  Uiso   1.00
C160   C     0.16164   0.36550   0.75818   0.00000  Uiso   1.00
C161   C     0.13424   0.16165   0.24211   0.00000  Uiso   1.00
C162   C     0.38498   0.35801   0.71467   0.00000  Uiso   1.00
C163   C     0.14305   0.38360   0.28466   0.00000  Uiso   1.00
C164   C     0.33835   0.13450   0.75813   0.00000  Uiso   1.00
C165   C     0.00304   0.21653   0.45886   0.00000  Uiso   1.00
C166   C     0.00262   0.28349   0.54098   0.00000  Uiso   1.00
C167   C     0.27912   0.01700   0.45915   0.00000  Uiso   1.00
C168   C     0.21940   0.48604   0.54147   0.00000  Uiso   1.00
C169   C     0.49682   0.28342   0.45884   0.00000  Uiso   1.00
C170   C     0.49736   0.21647   0.54102   0.00000  Uiso   1.00
C171   C     0.22073   0.48330   0.45920   0.00000  Uiso   1.00
C172   C     0.28045   0.01420   0.54142   0.00000  Uiso   1.00
C173   C     0.26309   0.46904   0.95905   0.00000  Uiso   1.00
C174   C     0.23679   0.03092   0.04116   0.00000  Uiso   1.00
C175   C     0.03330   0.25281   0.95882   0.00000  Uiso   1.00
C176   C     0.46638   0.25292   0.04099   0.00000  Uiso   1.00
C177   C     0.23687   0.03091   0.95903   0.00000  Uiso   1.00
C178   C     0.26317   0.46903   0.04118   0.00000  Uiso   1.00
C179   C     0.46640   0.24706   0.95884   0.00000  Uiso   1.00
C180   C     0.03329   0.24672   0.04090   0.00000  Uiso   1.00
C181   C     0.09820   0.34803   0.24935   0.00000  Uiso   1.00
C182   C     0.40172   0.15213   0.74982   0.00000  Uiso   1.00
C183   C     0.15193   0.09821   0.25047   0.00000  Uiso   1.00
C184   C     0.34868   0.40243   0.74996   0.00000  Uiso   1.00
C185   C     0.40205   0.15176   0.24985   0.00000  Uiso   1.00
C186   C     0.09829   0.34786   0.74979   0.00000  Uiso   1.00
C187   C     0.34808   0.40180   0.25047   0.00000  Uiso   1.00
C188   C     0.15132   0.09758   0.74997   0.00000  Uiso   1.00
C189   C     0.09838   0.15217   0.75003   0.00000  Uiso   1.00
C190   C     0.40214   0.34829   0.24979   0.00000  Uiso   1.00
C191   C     0.15179   0.40194   0.75048   0.00000  Uiso   1.00
C192   C     0.34738   0.09890   0.24969   0.00000  Uiso   1.00
C193   C     0.40163   0.34784   0.75003   0.00000  Uiso   1.00
C194   C     0.09785   0.15172   0.24980   0.00000  Uiso   1.00
C195   C     0.34820   0.09807   0.75044   0.00000  Uiso   1.00
C196   C     0.15303   0.40083   0.24954   0.00000  Uiso   1.00
C197   C     0.49995   0.24998   0.47941   0.00000  Uiso   1.00
C198   C     0.49998   0.24998   0.52046   0.00000  Uiso   1.00
C199   C     0.24993   0.00014   0.47973   0.00000  Uiso   1.00
C200   C     0.24992   0.00013   0.52084   0.00000  Uiso   1.00
C201   C     0.24999   0.49998   0.97958   0.00000  Uiso   1.00
C202   C     0.24999   0.49998   0.02063   0.00000  Uiso   1.00
C203   C     0.49984   0.24993   0.97938   0.00000  Uiso   1.00
C204   C     0.49983   0.24988   0.02041   0.00000  Uiso   1.00
N205   N     0.49974   0.14887   0.45944   0.00000  Uiso   1.00
O206   O     0.47140   0.14120   0.43822   0.00000  Uiso   1.00
O207   O     0.02425   0.12386   0.46566   0.00000  Uiso   1.00
N208   N     0.49917   0.35119   0.54020   0.00000  Uiso   1.00
O209   O     0.47046   0.35930   0.56070   0.00000  Uiso   1.00
O210   O     0.02400   0.37593   0.53422   0.00000  Uiso   1.00
N211   N     0.34115   0.04465   0.46052   0.00000  Uiso   1.00
O212   O     0.36337   0.02159   0.44419   0.00000  Uiso   1.00
O213   O     0.35080   0.07866   0.46393   0.00000  Uiso   1.00
N214   N     0.16224   0.44966   0.54080   0.00000  Uiso   1.00
O215   O     0.17017   0.42006   0.55989   0.00000  Uiso   1.00
O216   O     0.12824   0.45901   0.53649   0.00000  Uiso   1.00
N217   N     0.00006   0.35109   0.45934   0.00000  Uiso   1.00
O218   O     0.02834   0.35876   0.43800   0.00000  Uiso   1.00
O219   O     0.47556   0.37609   0.46565   0.00000  Uiso   1.00
N220   N     0.00079   0.14877   0.54029   0.00000  Uiso   1.00
O221   O     0.02953   0.14066   0.56072   0.00000  Uiso   1.00
O222   O     0.47595   0.12403   0.53441   0.00000  Uiso   1.00
N223   N     0.15849   0.45613   0.46062   0.00000  Uiso   1.00
O224   O     0.13669   0.47938   0.44399   0.00000  Uiso   1.00
O225   O     0.14839   0.42225   0.46417   0.00000  Uiso   1.00
N226   N     0.33746   0.05082   0.54071   0.00000  Uiso   1.00
O227   O     0.32937   0.08026   0.55998   0.00000  Uiso   1.00
O228   O     0.37151   0.04171   0.53624   0.00000  Uiso   1.00
N229   N     0.27453   0.40238   0.95990   0.00000  Uiso   1.00
O230   O     0.24635   0.38908   0.94183   0.00000  Uiso   1.00
O231   O     0.30459   0.38358   0.96132   0.00000  Uiso   1.00
N232   N     0.22448   0.09742   0.04028   0.00000  Uiso   1.00
O233   O     0.19351   0.11474   0.04034   0.00000  Uiso   1.00
O234   O     0.25274   0.11202   0.05703   0.00000  Uiso   1.00
N235   N     0.10092   0.24889   0.95928   0.00000  Uiso   1.00
O236   O     0.10825   0.22070   0.93768   0.00000  Uiso   1.00
O237   O     0.12621   0.27304   0.96579   0.00000  Uiso   1.00
N238   N     0.39867   0.25017   0.04028   0.00000  Uiso   1.00
O239   O     0.39027   0.22160   0.06087   0.00000  Uiso   1.00
O240   O     0.37418   0.27523   0.03425   0.00000  Uiso   1.00
N241   N     0.22542   0.09757   0.95985   0.00000  Uiso   1.00
O242   O     0.25361   0.11089   0.94175   0.00000  Uiso   1.00
O243   O     0.19534   0.11634   0.96123   0.00000  Uiso   1.00
N244   N     0.27553   0.40254   0.04032   0.00000  Uiso   1.00
O245   O     0.30654   0.38530   0.04044   0.00000  Uiso   1.00
O246   O     0.24724   0.38779   0.05692   0.00000  Uiso   1.00
N247   N     0.39878   0.25077   0.95940   0.00000  Uiso   1.00
O248   O     0.39138   0.27898   0.93783   0.00000  Uiso   1.00
O249   O     0.37355   0.22654   0.96587   0.00000  Uiso   1.00
N250   N     0.10101   0.24909   0.04014   0.00000  Uiso   1.00
O251   O     0.10956   0.27753   0.06084   0.00000  Uiso   1.00
O252   O     0.12537   0.22393   0.03398   0.00000  Uiso   1.00
N253   N     0.14816   0.40724   0.17839   0.00000  Uiso   1.00
H254   H     0.12800   0.40978   0.15767   0.00000  Uiso   1.00
C255   C     0.18219   0.39388   0.16243   0.00000  Uiso   1.00
H256   H     0.17907   0.36528   0.15247   0.00000  Uiso   1.00
H257   H     0.20440   0.39528   0.18430   0.00000  Uiso   1.00
H258   H     0.19016   0.41098   0.13716   0.00000  Uiso   1.00
N259   N     0.39381   0.05127   0.73494   0.00000  Uiso   1.00
H260   H     0.41018   0.04784   0.71084   0.00000  Uiso   1.00
C261   C     0.40605   0.02998   0.76797   0.00000  Uiso   1.00
H262   H     0.43367   0.03861   0.77732   0.00000  Uiso   1.00
H263   H     0.40712   0.00074   0.75967   0.00000  Uiso   1.00
H264   H     0.38721   0.03293   0.79301   0.00000  Uiso   1.00
N265   N     0.05141   0.10635   0.26708   0.00000  Uiso   1.00
H266   H     0.04768   0.09060   0.29158   0.00000  Uiso   1.00
C267   C     0.02796   0.09669   0.23478   0.00000  Uiso   1.00
H268   H     0.02075   0.06732   0.23624   0.00000  Uiso   1.00
H269   H     0.04113   0.10232   0.20624   0.00000  Uiso   1.00
H270   H     0.00239   0.11277   0.23664   0.00000  Uiso   1.00
N271   N     0.40745   0.35253   0.82106   0.00000  Uiso   1.00
H272   H     0.41262   0.37276   0.84107   0.00000  Uiso   1.00
C273   C     0.39006   0.32090   0.83806   0.00000  Uiso   1.00
H274   H     0.36135   0.32719   0.84592   0.00000  Uiso   1.00
H275   H     0.40496   0.31287   0.86480   0.00000  Uiso   1.00
H276   H     0.39058   0.29759   0.81744   0.00000  Uiso   1.00
N277   N     0.35363   0.09138   0.17889   0.00000  Uiso   1.00
H278   H     0.37337   0.08455   0.15888   0.00000  Uiso   1.00
C279   C     0.31925   0.10342   0.16253   0.00000  Uiso   1.00
H280   H     0.32419   0.11860   0.13509   0.00000  Uiso   1.00
H281   H     0.30394   0.12134   0.18291   0.00000  Uiso   1.00
H282   H     0.30219   0.07922   0.15586   0.00000  Uiso   1.00
N283   N     0.10621   0.44873   0.73489   0.00000  Uiso   1.00
H284   H     0.08989   0.45216   0.71077   0.00000  Uiso   1.00
C285   C     0.09392   0.47001   0.76789   0.00000  Uiso   1.00
H286   H     0.06630   0.46134   0.77725   0.00000  Uiso   1.00
H287   H     0.09282   0.49925   0.75956   0.00000  Uiso   1.00
H288   H     0.11274   0.46708   0.79293   0.00000  Uiso   1.00
N289   N     0.44857   0.39362   0.26712   0.00000  Uiso   1.00
H290   H     0.45227   0.40935   0.29163   0.00000  Uiso   1.00
C291   C     0.47209   0.40330   0.23484   0.00000  Uiso   1.00
H292   H     0.47931   0.43267   0.23631   0.00000  Uiso   1.00
H293   H     0.45897   0.39770   0.20629   0.00000  Uiso   1.00
H294   H     0.49765   0.38721   0.23673   0.00000  Uiso   1.00
N295   N     0.09246   0.14741   0.82107   0.00000  Uiso   1.00
H296   H     0.08728   0.12715   0.84107   0.00000  Uiso   1.00
C297   C     0.10980   0.17904   0.83807   0.00000  Uiso   1.00
H298   H     0.13850   0.17275   0.84596   0.00000  Uiso   1.00
H299   H     0.09484   0.18705   0.86478   0.00000  Uiso   1.00
H300   H     0.10932   0.20236   0.81744   0.00000  Uiso   1.00
N301   N     0.14415   0.08993   0.82072   0.00000  Uiso   1.00
H302   H     0.15069   0.10723   0.84329   0.00000  Uiso   1.00
C303   C     0.12163   0.05919   0.83220   0.00000  Uiso   1.00
H304   H     0.13945   0.03598   0.84042   0.00000  Uiso   1.00
H305   H     0.10340   0.05013   0.80825   0.00000  Uiso   1.00
H306   H     0.10464   0.06652   0.85777   0.00000  Uiso   1.00
N307   N     0.39343   0.44879   0.26600   0.00000  Uiso   1.00
H308   H     0.40890   0.45308   0.29057   0.00000  Uiso   1.00
C309   C     0.40362   0.47136   0.23314   0.00000  Uiso   1.00
H310   H     0.43309   0.47810   0.23451   0.00000  Uiso   1.00
H311   H     0.38796   0.49724   0.23428   0.00000  Uiso   1.00
H312   H     0.39784   0.45768   0.20493   0.00000  Uiso   1.00
N313   N     0.05186   0.39235   0.73046   0.00000  Uiso   1.00
H314   H     0.04197   0.41703   0.74001   0.00000  Uiso   1.00
C315   C     0.04390   0.38583   0.68986   0.00000  Uiso   1.00
H316   H     0.01439   0.39029   0.68448   0.00000  Uiso   1.00
H317   H     0.05071   0.35732   0.68181   0.00000  Uiso   1.00
H318   H     0.05978   0.40482   0.67121   0.00000  Uiso   1.00
N319   N     0.40928   0.14571   0.17909   0.00000  Uiso   1.00
H320   H     0.41645   0.12497   0.16042   0.00000  Uiso   1.00
C321   C     0.39223   0.17639   0.15995   0.00000  Uiso   1.00
H322   H     0.40814   0.18364   0.13359   0.00000  Uiso   1.00
H323   H     0.39159   0.20039   0.17962   0.00000  Uiso   1.00
H324   H     0.36399   0.16944   0.15106   0.00000  Uiso   1.00
N325   N     0.35577   0.41002   0.82072   0.00000  Uiso   1.00
H326   H     0.34919   0.39270   0.84327   0.00000  Uiso   1.00
C327   C     0.37830   0.44072   0.83221   0.00000  Uiso   1.00
H328   H     0.36049   0.46396   0.84039   0.00000  Uiso   1.00
H329   H     0.39661   0.44977   0.80829   0.00000  Uiso   1.00
H330   H     0.39522   0.43338   0.85782   0.00000  Uiso   1.00
N331   N     0.10658   0.05121   0.26607   0.00000  Uiso   1.00
H332   H     0.09112   0.04693   0.29068   0.00000  Uiso   1.00
C333   C     0.09638   0.02864   0.23325   0.00000  Uiso   1.00
H334   H     0.11207   0.00278   0.23436   0.00000  Uiso   1.00
H335   H     0.10210   0.04233   0.20502   0.00000  Uiso   1.00
H336   H     0.06691   0.02186   0.23472   0.00000  Uiso   1.00
N337   N     0.44818   0.10764   0.73056   0.00000  Uiso   1.00
H338   H     0.45805   0.08296   0.74015   0.00000  Uiso   1.00
C339   C     0.45622   0.11416   0.68997   0.00000  Uiso   1.00
H340   H     0.48575   0.10972   0.68462   0.00000  Uiso   1.00
H341   H     0.44941   0.14267   0.68189   0.00000  Uiso   1.00
H342   H     0.44039   0.09517   0.67132   0.00000  Uiso   1.00
N343   N     0.09540   0.35244   0.17727   0.00000  Uiso   1.00
H344   H     0.06784   0.35660   0.17353   0.00000  Uiso   1.00
C345   C     0.10855   0.31769   0.16321   0.00000  Uiso   1.00
H346   H     0.09987   0.31403   0.13256   0.00000  Uiso   1.00
H347   H     0.09728   0.29506   0.18093   0.00000  Uiso   1.00
H348   H     0.13878   0.31657   0.16435   0.00000  Uiso   1.00
N349   N     0.35661   0.19838   0.76831   0.00000  Uiso   1.00
H350   H     0.34109   0.20183   0.79303   0.00000  Uiso   1.00
C351   C     0.34670   0.22226   0.73643   0.00000  Uiso   1.00
H352   H     0.31734   0.22943   0.73825   0.00000  Uiso   1.00
H353   H     0.35213   0.20949   0.70767   0.00000  Uiso   1.00
H354   H     0.36279   0.24783   0.73854   0.00000  Uiso   1.00
N355   N     0.10192   0.34304   0.32056   0.00000  Uiso   1.00
H356   H     0.12189   0.33746   0.34075   0.00000  Uiso   1.00
C357   C     0.07072   0.36147   0.33718   0.00000  Uiso   1.00
H358   H     0.07776   0.39010   0.34463   0.00000  Uiso   1.00
H359   H     0.06221   0.34713   0.36411   0.00000  Uiso   1.00
H360   H     0.04748   0.36130   0.31647   0.00000  Uiso   1.00
N361   N     0.34247   0.39754   0.67894   0.00000  Uiso   1.00
H362   H     0.33659   0.37834   0.65803   0.00000  Uiso   1.00
C363   C     0.35440   0.43260   0.66419   0.00000  Uiso   1.00
H364   H     0.36906   0.42890   0.63622   0.00000  Uiso   1.00
H365   H     0.37282   0.44684   0.68492   0.00000  Uiso   1.00
H366   H     0.33017   0.45007   0.65907   0.00000  Uiso   1.00
N367   N     0.19885   0.14402   0.23601   0.00000  Uiso   1.00
H368   H     0.20251   0.16062   0.21213   0.00000  Uiso   1.00
C369   C     0.21982   0.15594   0.26938   0.00000  Uiso   1.00
H370   H     0.21121   0.18353   0.27887   0.00000  Uiso   1.00
H371   H     0.24913   0.15696   0.26140   0.00000  Uiso   1.00
H372   H     0.21652   0.13693   0.29423   0.00000  Uiso   1.00
N373   N     0.14336   0.30161   0.76838   0.00000  Uiso   1.00
H374   H     0.15884   0.29816   0.79311   0.00000  Uiso   1.00
C375   C     0.15327   0.27771   0.73654   0.00000  Uiso   1.00
H376   H     0.18260   0.27044   0.73841   0.00000  Uiso   1.00
H377   H     0.14797   0.29051   0.70775   0.00000  Uiso   1.00
H378   H     0.13709   0.25220   0.73862   0.00000  Uiso   1.00
N379   N     0.39633   0.15847   0.32073   0.00000  Uiso   1.00
H380   H     0.37583   0.16427   0.34025   0.00000  Uiso   1.00
C381   C     0.42735   0.14084   0.33864   0.00000  Uiso   1.00
H382   H     0.42039   0.11240   0.34699   0.00000  Uiso   1.00
H383   H     0.43527   0.15610   0.36519   0.00000  Uiso   1.00
H384   H     0.45098   0.14054   0.31841   0.00000  Uiso   1.00
N385   N     0.15766   0.10258   0.67896   0.00000  Uiso   1.00
H386   H     0.16358   0.12181   0.65808   0.00000  Uiso   1.00
C387   C     0.14575   0.06755   0.66416   0.00000  Uiso   1.00
H388   H     0.13117   0.07131   0.63616   0.00000  Uiso   1.00
H389   H     0.12726   0.05329   0.68484   0.00000  Uiso   1.00
H390   H     0.16998   0.05008   0.65908   0.00000  Uiso   1.00
N391   N     0.30114   0.35599   0.23617   0.00000  Uiso   1.00
H392   H     0.29743   0.33940   0.21231   0.00000  Uiso   1.00
C393   C     0.28025   0.34407   0.26963   0.00000  Uiso   1.00
H394   H     0.28883   0.31644   0.27904   0.00000  Uiso   1.00
H395   H     0.25090   0.34314   0.26181   0.00000  Uiso   1.00
H396   H     0.28369   0.36303   0.29449   0.00000  Uiso   1.00
N397   N     0.35745   0.30160   0.23170   0.00000  Uiso   1.00
H398   H     0.33287   0.29183   0.24169   0.00000  Uiso   1.00
C399   C     0.36360   0.29312   0.19116   0.00000  Uiso   1.00
H400   H     0.35918   0.26351   0.18627   0.00000  Uiso   1.00
H401   H     0.39201   0.29990   0.18266   0.00000  Uiso   1.00
H402   H     0.34439   0.30869   0.17250   0.00000  Uiso   1.00
N403   N     0.10396   0.15881   0.67919   0.00000  Uiso   1.00
H404   H     0.12468   0.16629   0.66061   0.00000  Uiso   1.00
C405   C     0.07366   0.14120   0.65998   0.00000  Uiso   1.00
H406   H     0.06629   0.15692   0.63355   0.00000  Uiso   1.00
H407   H     0.04960   0.14022   0.67959   0.00000  Uiso   1.00
H408   H     0.08111   0.11306   0.65118   0.00000  Uiso   1.00
N409   N     0.33775   0.10819   0.31991   0.00000  Uiso   1.00
H410   H     0.35425   0.10149   0.34310   0.00000  Uiso   1.00
C411   C     0.30779   0.13235   0.32990   0.00000  Uiso   1.00
H412   H     0.28276   0.11597   0.33481   0.00000  Uiso   1.00
H413   H     0.30212   0.15247   0.30646   0.00000  Uiso   1.00
H414   H     0.31411   0.14748   0.35705   0.00000  Uiso   1.00
N415   N     0.19857   0.35676   0.76727   0.00000  Uiso   1.00
H416   H     0.20257   0.34145   0.79203   0.00000  Uiso   1.00
C417   C     0.22156   0.34641   0.73482   0.00000  Uiso   1.00
H418   H     0.24759   0.36179   0.73649   0.00000  Uiso   1.00
H419   H     0.20842   0.35242   0.70637   0.00000  Uiso   1.00
H420   H     0.22793   0.31684   0.73626   0.00000  Uiso   1.00
N421   N     0.14257   0.19845   0.23183   0.00000  Uiso   1.00
H422   H     0.16713   0.20820   0.24183   0.00000  Uiso   1.00
C423   C     0.13644   0.20709   0.19132   0.00000  Uiso   1.00
H424   H     0.14066   0.23675   0.18657   0.00000  Uiso   1.00
H425   H     0.10810   0.20013   0.18277   0.00000  Uiso   1.00
H426   H     0.15578   0.19173   0.17261   0.00000  Uiso   1.00
N427   N     0.39615   0.34128   0.67918   0.00000  Uiso   1.00
H428   H     0.37545   0.33383   0.66059   0.00000  Uiso   1.00
C429   C     0.42648   0.35890   0.65999   0.00000  Uiso   1.00
H430   H     0.43388   0.34322   0.63356   0.00000  Uiso   1.00
H431   H     0.45051   0.35985   0.67961   0.00000  Uiso   1.00
H432   H     0.41906   0.38706   0.65121   0.00000  Uiso   1.00
N433   N     0.16118   0.39258   0.32005   0.00000  Uiso   1.00
H434   H     0.14434   0.39950   0.34290   0.00000  Uiso   1.00
C435   C     0.19098   0.36851   0.33076   0.00000  Uiso   1.00
H436   H     0.21589   0.38494   0.33604   0.00000  Uiso   1.00
H437   H     0.19715   0.34831   0.30753   0.00000  Uiso   1.00
H438   H     0.18417   0.35346   0.35785   0.00000  Uiso   1.00
N439   N     0.30140   0.14323   0.76718   0.00000  Uiso   1.00
H440   H     0.29737   0.15850   0.79196   0.00000  Uiso   1.00
C441   C     0.27848   0.15366   0.73472   0.00000  Uiso   1.00
H442   H     0.27180   0.18314   0.73642   0.00000  Uiso   1.00
H443   H     0.25260   0.13802   0.73610   0.00000  Uiso   1.00
H444   H     0.29183   0.14807   0.70628   0.00000  Uiso   1.00
N445   N     0.47626   0.31267   0.39746   0.00000  Uiso   1.00
O446   O     0.49215   0.32603   0.36676   0.00000  Uiso   1.00
O447   O     0.44423   0.32479   0.40736   0.00000  Uiso   1.00
N448   N     0.47850   0.18670   0.60276   0.00000  Uiso   1.00
O449   O     0.49600   0.17341   0.63242   0.00000  Uiso   1.00
O450   O     0.44618   0.17427   0.59451   0.00000  Uiso   1.00
N451   N     0.19895   0.45708   0.39687   0.00000  Uiso   1.00
O452   O     0.17720   0.47033   0.37051   0.00000  Uiso   1.00
O453   O     0.20123   0.42194   0.40149   0.00000  Uiso   1.00
N454   N     0.31555   0.01292   0.60310   0.00000  Uiso   1.00
O455   O     0.31955   0.03620   0.63133   0.00000  Uiso   1.00
O456   O     0.34236   0.49120   0.59427   0.00000  Uiso   1.00
N457   N     0.02338   0.18722   0.39742   0.00000  Uiso   1.00
O458   O     0.00723   0.17381   0.36693   0.00000  Uiso   1.00
O459   O     0.05545   0.17506   0.40708   0.00000  Uiso   1.00
N460   N     0.02157   0.31327   0.60264   0.00000  Uiso   1.00
O461   O     0.00412   0.32656   0.63234   0.00000  Uiso   1.00
O462   O     0.05387   0.32571   0.59428   0.00000  Uiso   1.00
N463   N     0.30105   0.04290   0.39667   0.00000  Uiso   1.00
O464   O     0.32295   0.02945   0.37055   0.00000  Uiso   1.00
O465   O     0.29845   0.07809   0.40064   0.00000  Uiso   1.00
N466   N     0.18443   0.48712   0.60328   0.00000  Uiso   1.00
O467   O     0.18047   0.46369   0.63140   0.00000  Uiso   1.00
O468   O     0.15761   0.00891   0.59467   0.00000  Uiso   1.00
N469   N     0.21255   0.05551   0.89708   0.00000  Uiso   1.00
O470   O     0.22708   0.07419   0.86885   0.00000  Uiso   1.00
O471   O     0.17817   0.05987   0.90524   0.00000  Uiso   1.00
N472   N     0.28645   0.44399   0.10347   0.00000  Uiso   1.00
O473   O     0.32148   0.44115   0.09820   0.00000  Uiso   1.00
O474   O     0.27078   0.42478   0.13059   0.00000  Uiso   1.00
N475   N     0.43713   0.22643   0.89753   0.00000  Uiso   1.00
O476   O     0.42398   0.24211   0.86663   0.00000  Uiso   1.00
O477   O     0.42476   0.19456   0.90774   0.00000  Uiso   1.00
N478   N     0.06259   0.22662   0.10232   0.00000  Uiso   1.00
O479   O     0.07643   0.24347   0.13210   0.00000  Uiso   1.00
O480   O     0.07429   0.19415   0.09351   0.00000  Uiso   1.00
N481   N     0.28740   0.44445   0.89708   0.00000  Uiso   1.00
O482   O     0.27287   0.42579   0.86886   0.00000  Uiso   1.00
O483   O     0.32176   0.44005   0.90523   0.00000  Uiso   1.00
N484   N     0.21318   0.05581   0.10336   0.00000  Uiso   1.00
O485   O     0.17820   0.05857   0.09778   0.00000  Uiso   1.00
O486   O     0.22857   0.07509   0.13057   0.00000  Uiso   1.00
N487   N     0.06265   0.27356   0.89756   0.00000  Uiso   1.00
O488   O     0.07588   0.25790   0.86668   0.00000  Uiso   1.00
O489   O     0.07505   0.30538   0.90784   0.00000  Uiso   1.00
N490   N     0.43687   0.27218   0.10272   0.00000  Uiso   1.00
O491   O     0.42338   0.25477   0.13237   0.00000  Uiso   1.00
O492   O     0.42472   0.30460   0.09441   0.00000  Uiso   1.00
Zn493  Zn    0.70660   0.00000   0.21735   0.00000  Uiso   1.00
Zn494  Zn    0.79341   0.00000   0.78265   0.00000  Uiso   1.00
Zn495  Zn    0.50000   0.20660   0.21735   0.00000  Uiso   1.00
Zn496  Zn    0.50000   0.29341   0.78265   0.00000  Uiso   1.00
Zn497  Zn    0.79341   0.00000   0.21735   0.00000  Uiso   1.00
Zn498  Zn    0.70660   0.00000   0.78265   0.00000  Uiso   1.00
Zn499  Zn    0.50000   0.29341   0.21735   0.00000  Uiso   1.00
Zn500  Zn    0.50000   0.20660   0.78265   0.00000  Uiso   1.00
Zn501  Zn    0.95660   0.25000   0.71735   0.00000  Uiso   1.00
Zn502  Zn    0.54341   0.25000   0.28265   0.00000  Uiso   1.00
Zn503  Zn    0.75000   0.45660   0.71735   0.00000  Uiso   1.00
Zn504  Zn    0.75000   0.04341   0.28265   0.00000  Uiso   1.00
Zn505  Zn    0.54341   0.25000   0.71735   0.00000  Uiso   1.00
Zn506  Zn    0.95660   0.25000   0.28265   0.00000  Uiso   1.00
Zn507  Zn    0.75000   0.04341   0.71735   0.00000  Uiso   1.00
Zn508  Zn    0.75000   0.45660   0.28265   0.00000  Uiso   1.00
C509   C     0.99185   0.28228   0.41809   0.00000  Uiso   1.00
C510   C     0.99268   0.21753   0.58182   0.00000  Uiso   1.00
C511   C     0.72294   0.48062   0.41827   0.00000  Uiso   1.00
C512   C     0.78164   0.01028   0.58224   0.00000  Uiso   1.00
C513   C     0.50798   0.21767   0.41810   0.00000  Uiso   1.00
C514   C     0.50735   0.28244   0.58177   0.00000  Uiso   1.00
C515   C     0.77698   0.01951   0.41820   0.00000  Uiso   1.00
C516   C     0.71829   0.48984   0.58231   0.00000  Uiso   1.00
C517   C     0.73365   0.02902   0.91817   0.00000  Uiso   1.00
C518   C     0.76613   0.47085   0.08207   0.00000  Uiso   1.00
C519   C     0.96755   0.24201   0.91810   0.00000  Uiso   1.00
C520   C     0.53215   0.24186   0.08165   0.00000  Uiso   1.00
C521   C     0.76630   0.47094   0.91817   0.00000  Uiso   1.00
C522   C     0.73379   0.02910   0.08204   0.00000  Uiso   1.00
C523   C     0.53220   0.25794   0.91810   0.00000  Uiso   1.00
C524   C     0.96754   0.25768   0.08179   0.00000  Uiso   1.00
C525   C     0.99995   0.24999   0.39800   0.00000  Uiso   1.00
C526   C     0.50003   0.24999   0.60189   0.00000  Uiso   1.00
C527   C     0.74999   0.00002   0.39821   0.00000  Uiso   1.00
C528   C     0.74998   0.00003   0.60222   0.00000  Uiso   1.00
C529   C     0.74998   0.49998   0.89809   0.00000  Uiso   1.00
C530   C     0.75000   0.00001   0.10204   0.00000  Uiso   1.00
C531   C     0.99989   0.24999   0.89799   0.00000  Uiso   1.00
C532   C     0.99992   0.24993   0.10185   0.00000  Uiso   1.00
O533   O     0.75000   0.00000   0.25000   0.00000  Uiso   1.00
O534   O     0.75000   0.00000   0.75000   0.00000  Uiso   1.00
O535   O     0.50000   0.25000   0.25000   0.00000  Uiso   1.00
O536   O     0.50000   0.25000   0.75000   0.00000  Uiso   1.00
O537   O     0.75000   0.46964   0.33755   0.00000  Uiso   1.00
O538   O     0.75000   0.03037   0.66245   0.00000  Uiso   1.00
O539   O     0.53037   0.25000   0.33755   0.00000  Uiso   1.00
O540   O     0.96964   0.25000   0.66245   0.00000  Uiso   1.00
O541   O     0.75000   0.03037   0.33755   0.00000  Uiso   1.00
O542   O     0.75000   0.46964   0.66245   0.00000  Uiso   1.00
O543   O     0.96964   0.25000   0.33755   0.00000  Uiso   1.00
O544   O     0.53037   0.25000   0.66245   0.00000  Uiso   1.00
O545   O     0.50000   0.21964   0.83755   0.00000  Uiso   1.00
O546   O     0.50000   0.28037   0.16245   0.00000  Uiso   1.00
O547   O     0.78037   0.00000   0.83755   0.00000  Uiso   1.00
O548   O     0.71964   0.00000   0.16245   0.00000  Uiso   1.00
O549   O     0.50000   0.28037   0.83755   0.00000  Uiso   1.00
O550   O     0.50000   0.21964   0.16245   0.00000  Uiso   1.00
O551   O     0.71964   0.00000   0.83755   0.00000  Uiso   1.00
O552   O     0.78037   0.00000   0.16245   0.00000  Uiso   1.00
O553   O     0.70725   0.07308   0.27302   0.00000  Uiso   1.00
O554   O     0.79276   0.42693   0.72698   0.00000  Uiso   1.00
O555   O     0.92693   0.20725   0.27302   0.00000  Uiso   1.00
O556   O     0.57308   0.29276   0.72698   0.00000  Uiso   1.00
O557   O     0.79276   0.42693   0.27302   0.00000  Uiso   1.00
O558   O     0.70725   0.07308   0.72698   0.00000  Uiso   1.00
O559   O     0.57308   0.29276   0.27302   0.00000  Uiso   1.00
O560   O     0.92693   0.20725   0.72698   0.00000  Uiso   1.00
O561   O     0.70725   0.42693   0.72698   0.00000  Uiso   1.00
O562   O     0.79276   0.07308   0.27302   0.00000  Uiso   1.00
O563   O     0.92693   0.29276   0.72698   0.00000  Uiso   1.00
O564   O     0.57308   0.20725   0.27302   0.00000  Uiso   1.00
O565   O     0.79276   0.07308   0.72698   0.00000  Uiso   1.00
O566   O     0.70725   0.42693   0.27302   0.00000  Uiso   1.00
O567   O     0.57308   0.20725   0.72698   0.00000  Uiso   1.00
O568   O     0.92693   0.29276   0.27302   0.00000  Uiso   1.00
O569   O     0.95725   0.32308   0.77302   0.00000  Uiso   1.00
O570   O     0.54276   0.17693   0.22698   0.00000  Uiso   1.00
O571   O     0.67693   0.45725   0.77302   0.00000  Uiso   1.00
O572   O     0.82308   0.04276   0.22698   0.00000  Uiso   1.00
O573   O     0.54276   0.17693   0.77302   0.00000  Uiso   1.00
O574   O     0.95725   0.32308   0.22698   0.00000  Uiso   1.00
O575   O     0.82308   0.04276   0.77302   0.00000  Uiso   1.00
O576   O     0.67693   0.45725   0.22698   0.00000  Uiso   1.00
O577   O     0.95725   0.17693   0.22698   0.00000  Uiso   1.00
O578   O     0.54276   0.32308   0.77302   0.00000  Uiso   1.00
O579   O     0.67693   0.04276   0.22698   0.00000  Uiso   1.00
O580   O     0.82308   0.45725   0.77302   0.00000  Uiso   1.00
O581   O     0.54276   0.32308   0.22698   0.00000  Uiso   1.00
O582   O     0.95725   0.17693   0.77302   0.00000  Uiso   1.00
O583   O     0.82308   0.45725   0.22698   0.00000  Uiso   1.00
O584   O     0.67693   0.04276   0.77302   0.00000  Uiso   1.00
C585   C     0.50157   0.18313   0.47955   0.00000  Uiso   1.00
C586   C     0.50093   0.31687   0.52021   0.00000  Uiso   1.00
C587   C     0.80919   0.03142   0.48008   0.00000  Uiso   1.00
C588   C     0.69056   0.46923   0.52083   0.00000  Uiso   1.00
C589   C     0.99830   0.31682   0.47950   0.00000  Uiso   1.00
C590   C     0.99901   0.18309   0.52027   0.00000  Uiso   1.00
C591   C     0.69057   0.46903   0.48015   0.00000  Uiso   1.00
C592   C     0.80922   0.03115   0.52075   0.00000  Uiso   1.00
C593   C     0.77166   0.43674   0.97973   0.00000  Uiso   1.00
C594   C     0.72806   0.06316   0.02044   0.00000  Uiso   1.00
C595   C     0.56668   0.25089   0.97945   0.00000  Uiso   1.00
C596   C     0.93299   0.25154   0.02025   0.00000  Uiso   1.00
C597   C     0.72830   0.06322   0.97970   0.00000  Uiso   1.00
C598   C     0.77191   0.43679   0.02048   0.00000  Uiso   1.00
C599   C     0.93301   0.24881   0.97953   0.00000  Uiso   1.00
C600   C     0.56668   0.24800   0.02014   0.00000  Uiso   1.00
C601   C     0.75000  -0.00000   0.35581   0.00000  Uiso   1.00
C602   C     0.75000   0.00001   0.64434   0.00000  Uiso   1.00
C603   C     0.99999   0.25000   0.35574   0.00000  Uiso   1.00
C604   C     0.50001   0.25000   0.64423   0.00000  Uiso   1.00
C605   C     0.99995   0.24999   0.85574   0.00000  Uiso   1.00
C606   C     0.50000   0.24999   0.14421   0.00000  Uiso   1.00
C607   C     0.74999   0.49999   0.85577   0.00000  Uiso   1.00
C608   C     0.75000   0.00002   0.14428   0.00000  Uiso   1.00
C609   C     0.68002   0.07006   0.25004   0.00000  Uiso   1.00
C610   C     0.82004   0.43000   0.75013   0.00000  Uiso   1.00
C611   C     0.93003   0.17996   0.24997   0.00000  Uiso   1.00
C612   C     0.57019   0.31980   0.75020   0.00000  Uiso   1.00
C613   C     0.81999   0.42994   0.25005   0.00000  Uiso   1.00
C614   C     0.67996   0.07001   0.75014   0.00000  Uiso   1.00
C615   C     0.57007   0.31996   0.24975   0.00000  Uiso   1.00
C616   C     0.92982   0.18020   0.75021   0.00000  Uiso   1.00
C617   C     0.67994   0.43002   0.75005   0.00000  Uiso   1.00
C618   C     0.81992   0.07013   0.25000   0.00000  Uiso   1.00
C619   C     0.92994   0.31995   0.75001   0.00000  Uiso   1.00
C620   C     0.56979   0.17981   0.25021   0.00000  Uiso   1.00
C621   C     0.82006   0.06998   0.75004   0.00000  Uiso   1.00
C622   C     0.68009   0.42990   0.25008   0.00000  Uiso   1.00
C623   C     0.57007   0.18005   0.75001   0.00000  Uiso   1.00
C624   C     0.93021   0.32020   0.25021   0.00000  Uiso   1.00
C625   C     0.63695   0.39054   0.21401   0.00000  Uiso   1.00
C626   C     0.88482   0.08832   0.74331   0.00000  Uiso   1.00
C627   C     0.58825   0.11527   0.25768   0.00000  Uiso   1.00
C628   C     0.89165   0.36450   0.78536   0.00000  Uiso   1.00
C629   C     0.86487   0.10806   0.21446   0.00000  Uiso   1.00
C630   C     0.61519   0.41168   0.74328   0.00000  Uiso   1.00
C631   C     0.91175   0.38472   0.25768   0.00000  Uiso   1.00
C632   C     0.60831   0.13547   0.78537   0.00000  Uiso   1.00
C633   C     0.63413   0.10734   0.78520   0.00000  Uiso   1.00
C634   C     0.88460   0.41175   0.25752   0.00000  Uiso   1.00
C635   C     0.58848   0.38415   0.74146   0.00000  Uiso   1.00
C636   C     0.89228   0.13476   0.21453   0.00000  Uiso   1.00
C637   C     0.86583   0.39263   0.78519   0.00000  Uiso   1.00
C638   C     0.61541   0.08826   0.25754   0.00000  Uiso   1.00
C639   C     0.91154   0.11584   0.74152   0.00000  Uiso   1.00
C640   C     0.60976   0.36380   0.21380   0.00000  Uiso   1.00
C641   C     0.86538   0.16166   0.75831   0.00000  Uiso   1.00
C642   C     0.61451   0.35826   0.28479   0.00000  Uiso   1.00
C643   C     0.85840   0.38552   0.71461   0.00000  Uiso   1.00
C644   C     0.66174   0.13492   0.24389   0.00000  Uiso   1.00
C645   C     0.63461   0.33834   0.75834   0.00000  Uiso   1.00
C646   C     0.88479   0.14234   0.28503   0.00000  Uiso   1.00
C647   C     0.64167   0.11454   0.71462   0.00000  Uiso   1.00
C648   C     0.83827   0.36509   0.24392   0.00000  Uiso   1.00
C649   C     0.86577   0.33837   0.24209   0.00000  Uiso   1.00
C650   C     0.61509   0.14204   0.71468   0.00000  Uiso   1.00
C651   C     0.85646   0.11680   0.28472   0.00000  Uiso   1.00
C652   C     0.66164   0.36550   0.75818   0.00000  Uiso   1.00
C653   C     0.63424   0.16165   0.24211   0.00000  Uiso   1.00
C654   C     0.88498   0.35801   0.71467   0.00000  Uiso   1.00
C655   C     0.64305   0.38360   0.28466   0.00000  Uiso   1.00
C656   C     0.83835   0.13450   0.75813   0.00000  Uiso   1.00
C657   C     0.50304   0.21653   0.45886   0.00000  Uiso   1.00
C658   C     0.50262   0.28349   0.54098   0.00000  Uiso   1.00
C659   C     0.77912   0.01700   0.45915   0.00000  Uiso   1.00
C660   C     0.71940   0.48604   0.54147   0.00000  Uiso   1.00
C661   C     0.99682   0.28342   0.45884   0.00000  Uiso   1.00
C662   C     0.99736   0.21647   0.54102   0.00000  Uiso   1.00
C663   C     0.72073   0.48330   0.45920   0.00000  Uiso   1.00
C664   C     0.78045   0.01420   0.54142   0.00000  Uiso   1.00
C665   C     0.76309   0.46904   0.95905   0.00000  Uiso   1.00
C666   C     0.73679   0.03092   0.04116   0.00000  Uiso   1.00
C667   C     0.53330   0.25281   0.95882   0.00000  Uiso   1.00
C668   C     0.96638   0.25292   0.04099   0.00000  Uiso   1.00
C669   C     0.73687   0.03091   0.95903   0.00000  Uiso   1.00
C670   C     0.76317   0.46903   0.04118   0.00000  Uiso   1.00
C671   C     0.96640   0.24706   0.95884   0.00000  Uiso   1.00
C672   C     0.53329   0.24672   0.04090   0.00000  Uiso   1.00
C673   C     0.59820   0.34803   0.24935   0.00000  Uiso   1.00
C674   C     0.90172   0.15213   0.74982   0.00000  Uiso   1.00
C675   C     0.65193   0.09821   0.25047   0.00000  Uiso   1.00
C676   C     0.84868   0.40243   0.74996   0.00000  Uiso   1.00
C677   C     0.90205   0.15176   0.24985   0.00000  Uiso   1.00
C678   C     0.59829   0.34786   0.74979   0.00000  Uiso   1.00
C679   C     0.84808   0.40180   0.25047   0.00000  Uiso   1.00
C680   C     0.65132   0.09758   0.74997   0.00000  Uiso   1.00
C681   C     0.59838   0.15217   0.75003   0.00000  Uiso   1.00
C682   C     0.90214   0.34829   0.24979   0.00000  Uiso   1.00
C683   C     0.65179   0.40194   0.75048   0.00000  Uiso   1.00
C684   C     0.84738   0.09890   0.24969   0.00000  Uiso   1.00
C685   C     0.90163   0.34784   0.75003   0.00000  Uiso   1.00
C686   C     0.59785   0.15172   0.24980   0.00000  Uiso   1.00
C687   C     0.84820   0.09807   0.75044   0.00000  Uiso   1.00
C688   C     0.65303   0.40083   0.24954   0.00000  Uiso   1.00
C689   C     0.99995   0.24998   0.47941   0.00000  Uiso   1.00
C690   C     0.99998   0.24998   0.52046   0.00000  Uiso   1.00
C691   C     0.74993   0.00014   0.47973   0.00000  Uiso   1.00
C692   C     0.74992   0.00013   0.52084   0.00000  Uiso   1.00
C693   C     0.74999   0.49998   0.97958   0.00000  Uiso   1.00
C694   C     0.74999   0.49998   0.02063   0.00000  Uiso   1.00
C695   C     0.99984   0.24993   0.97938   0.00000  Uiso   1.00
C696   C     0.99983   0.24988   0.02041   0.00000  Uiso   1.00
N697   N     0.99974   0.14887   0.45944   0.00000  Uiso   1.00
O698   O     0.97140   0.14120   0.43822   0.00000  Uiso   1.00
O699   O     0.52425   0.12386   0.46566   0.00000  Uiso   1.00
N700   N     0.99917   0.35119   0.54020   0.00000  Uiso   1.00
O701   O     0.97046   0.35930   0.56070   0.00000  Uiso   1.00
O702   O     0.52400   0.37593   0.53422   0.00000  Uiso   1.00
N703   N     0.84115   0.04465   0.46052   0.00000  Uiso   1.00
O704   O     0.86337   0.02159   0.44419   0.00000  Uiso   1.00
O705   O     0.85080   0.07866   0.46393   0.00000  Uiso   1.00
N706   N     0.66224   0.44966   0.54080   0.00000  Uiso   1.00
O707   O     0.67017   0.42006   0.55989   0.00000  Uiso   1.00
O708   O     0.62824   0.45901   0.53649   0.00000  Uiso   1.00
N709   N     0.50006   0.35109   0.45934   0.00000  Uiso   1.00
O710   O     0.52834   0.35876   0.43800   0.00000  Uiso   1.00
O711   O     0.97556   0.37609   0.46565   0.00000  Uiso   1.00
N712   N     0.50079   0.14877   0.54029   0.00000  Uiso   1.00
O713   O     0.52953   0.14066   0.56072   0.00000  Uiso   1.00
O714   O     0.97595   0.12403   0.53441   0.00000  Uiso   1.00
N715   N     0.65849   0.45613   0.46062   0.00000  Uiso   1.00
O716   O     0.63669   0.47938   0.44399   0.00000  Uiso   1.00
O717   O     0.64839   0.42225   0.46417   0.00000  Uiso   1.00
N718   N     0.83746   0.05082   0.54071   0.00000  Uiso   1.00
O719   O     0.82937   0.08026   0.55998   0.00000  Uiso   1.00
O720   O     0.87151   0.04171   0.53624   0.00000  Uiso   1.00
N721   N     0.77453   0.40238   0.95990   0.00000  Uiso   1.00
O722   O     0.74635   0.38908   0.94183   0.00000  Uiso   1.00
O723   O     0.80459   0.38358   0.96132   0.00000  Uiso   1.00
N724   N     0.72448   0.09742   0.04028   0.00000  Uiso   1.00
O725   O     0.69351   0.11474   0.04034   0.00000  Uiso   1.00
O726   O     0.75274   0.11202   0.05703   0.00000  Uiso   1.00
N727   N     0.60092   0.24889   0.95928   0.00000  Uiso   1.00
O728   O     0.60825   0.22070   0.93768   0.00000  Uiso   1.00
O729   O     0.62621   0.27304   0.96579   0.00000  Uiso   1.00
N730   N     0.89867   0.25017   0.04028   0.00000  Uiso   1.00
O731   O     0.89027   0.22160   0.06087   0.00000  Uiso   1.00
O732   O     0.87418   0.27523   0.03425   0.00000  Uiso   1.00
N733   N     0.72542   0.09757   0.95985   0.00000  Uiso   1.00
O734   O     0.75361   0.11089   0.94175   0.00000  Uiso   1.00
O735   O     0.69534   0.11634   0.96123   0.00000  Uiso   1.00
N736   N     0.77553   0.40254   0.04032   0.00000  Uiso   1.00
O737   O     0.80654   0.38530   0.04044   0.00000  Uiso   1.00
O738   O     0.74724   0.38779   0.05692   0.00000  Uiso   1.00
N739   N     0.89878   0.25077   0.95940   0.00000  Uiso   1.00
O740   O     0.89138   0.27898   0.93783   0.00000  Uiso   1.00
O741   O     0.87355   0.22654   0.96587   0.00000  Uiso   1.00
N742   N     0.60101   0.24909   0.04014   0.00000  Uiso   1.00
O743   O     0.60956   0.27753   0.06084   0.00000  Uiso   1.00
O744   O     0.62537   0.22393   0.03398   0.00000  Uiso   1.00
N745   N     0.64816   0.40724   0.17839   0.00000  Uiso   1.00
H746   H     0.62800   0.40978   0.15767   0.00000  Uiso   1.00
C747   C     0.68219   0.39388   0.16243   0.00000  Uiso   1.00
H748   H     0.67907   0.36528   0.15247   0.00000  Uiso   1.00
H749   H     0.70440   0.39528   0.18430   0.00000  Uiso   1.00
H750   H     0.69016   0.41098   0.13716   0.00000  Uiso   1.00
N751   N     0.89381   0.05127   0.73494   0.00000  Uiso   1.00
H752   H     0.91018   0.04784   0.71084   0.00000  Uiso   1.00
C753   C     0.90605   0.02998   0.76797   0.00000  Uiso   1.00
H754   H     0.93367   0.03861   0.77732   0.00000  Uiso   1.00
H755   H     0.90712   0.00074   0.75967   0.00000  Uiso   1.00
H756   H     0.88721   0.03293   0.79301   0.00000  Uiso   1.00
N757   N     0.55141   0.10635   0.26708   0.00000  Uiso   1.00
H758   H     0.54768   0.09060   0.29158   0.00000  Uiso   1.00
C759   C     0.52796   0.09669   0.23478   0.00000  Uiso   1.00
H760   H     0.52075   0.06732   0.23624   0.00000  Uiso   1.00
H761   H     0.54113   0.10232   0.20624   0.00000  Uiso   1.00
H762   H     0.50239   0.11277   0.23664   0.00000  Uiso   1.00
N763   N     0.90745   0.35253   0.82106   0.00000  Uiso   1.00
H764   H     0.91262   0.37276   0.84107   0.00000  Uiso   1.00
C765   C     0.89006   0.32090   0.83806   0.00000  Uiso   1.00
H766   H     0.86135   0.32719   0.84592   0.00000  Uiso   1.00
H767   H     0.90496   0.31287   0.86480   0.00000  Uiso   1.00
H768   H     0.89058   0.29759   0.81744   0.00000  Uiso   1.00
N769   N     0.85363   0.09138   0.17889   0.00000  Uiso   1.00
H770   H     0.87337   0.08455   0.15888   0.00000  Uiso   1.00
C771   C     0.81925   0.10342   0.16253   0.00000  Uiso   1.00
H772   H     0.82419   0.11860   0.13509   0.00000  Uiso   1.00
H773   H     0.80394   0.12134   0.18291   0.00000  Uiso   1.00
H774   H     0.80219   0.07922   0.15586   0.00000  Uiso   1.00
N775   N     0.60621   0.44873   0.73489   0.00000  Uiso   1.00
H776   H     0.58989   0.45216   0.71077   0.00000  Uiso   1.00
C777   C     0.59392   0.47001   0.76789   0.00000  Uiso   1.00
H778   H     0.56630   0.46134   0.77725   0.00000  Uiso   1.00
H779   H     0.59282   0.49925   0.75956   0.00000  Uiso   1.00
H780   H     0.61274   0.46708   0.79293   0.00000  Uiso   1.00
N781   N     0.94857   0.39362   0.26712   0.00000  Uiso   1.00
H782   H     0.95227   0.40935   0.29163   0.00000  Uiso   1.00
C783   C     0.97209   0.40330   0.23484   0.00000  Uiso   1.00
H784   H     0.97931   0.43267   0.23631   0.00000  Uiso   1.00
H785   H     0.95897   0.39770   0.20629   0.00000  Uiso   1.00
H786   H     0.99765   0.38721   0.23673   0.00000  Uiso   1.00
N787   N     0.59246   0.14741   0.82107   0.00000  Uiso   1.00
H788   H     0.58728   0.12715   0.84107   0.00000  Uiso   1.00
C789   C     0.60980   0.17904   0.83807   0.00000  Uiso   1.00
H790   H     0.63850   0.17275   0.84596   0.00000  Uiso   1.00
H791   H     0.59484   0.18705   0.86478   0.00000  Uiso   1.00
H792   H     0.60932   0.20236   0.81744   0.00000  Uiso   1.00
N793   N     0.64415   0.08993   0.82072   0.00000  Uiso   1.00
H794   H     0.65069   0.10723   0.84329   0.00000  Uiso   1.00
C795   C     0.62163   0.05919   0.83220   0.00000  Uiso   1.00
H796   H     0.63945   0.03598   0.84042   0.00000  Uiso   1.00
H797   H     0.60340   0.05013   0.80825   0.00000  Uiso   1.00
H798   H     0.60464   0.06652   0.85777   0.00000  Uiso   1.00
N799   N     0.89343   0.44879   0.26600   0.00000  Uiso   1.00
H800   H     0.90890   0.45308   0.29057   0.00000  Uiso   1.00
C801   C     0.90362   0.47136   0.23314   0.00000  Uiso   1.00
H802   H     0.93309   0.47810   0.23451   0.00000  Uiso   1.00
H803   H     0.88796   0.49724   0.23428   0.00000  Uiso   1.00
H804   H     0.89784   0.45768   0.20493   0.00000  Uiso   1.00
N805   N     0.55186   0.39235   0.73046   0.00000  Uiso   1.00
H806   H     0.54197   0.41703   0.74001   0.00000  Uiso   1.00
C807   C     0.54390   0.38583   0.68986   0.00000  Uiso   1.00
H808   H     0.51439   0.39029   0.68448   0.00000  Uiso   1.00
H809   H     0.55071   0.35732   0.68181   0.00000  Uiso   1.00
H810   H     0.55978   0.40482   0.67121   0.00000  Uiso   1.00
N811   N     0.90928   0.14571   0.17909   0.00000  Uiso   1.00
H812   H     0.91645   0.12497   0.16042   0.00000  Uiso   1.00
C813   C     0.89223   0.17639   0.15995   0.00000  Uiso   1.00
H814   H     0.90814   0.18364   0.13359   0.00000  Uiso   1.00
H815   H     0.89159   0.20039   0.17962   0.00000  Uiso   1.00
H816   H     0.86399   0.16944   0.15106   0.00000  Uiso   1.00
N817   N     0.85577   0.41002   0.82072   0.00000  Uiso   1.00
H818   H     0.84919   0.39270   0.84327   0.00000  Uiso   1.00
C819   C     0.87830   0.44072   0.83221   0.00000  Uiso   1.00
H820   H     0.86049   0.46396   0.84039   0.00000  Uiso   1.00
H821   H     0.89661   0.44977   0.80829   0.00000  Uiso   1.00
H822   H     0.89522   0.43338   0.85782   0.00000  Uiso   1.00
N823   N     0.60658   0.05121   0.26607   0.00000  Uiso   1.00
H824   H     0.59112   0.04693   0.29068   0.00000  Uiso   1.00
C825   C     0.59638   0.02864   0.23325   0.00000  Uiso   1.00
H826   H     0.61207   0.00278   0.23436   0.00000  Uiso   1.00
H827   H     0.60210   0.04233   0.20502   0.00000  Uiso   1.00
H828   H     0.56691   0.02186   0.23472   0.00000  Uiso   1.00
N829   N     0.94818   0.10764   0.73056   0.00000  Uiso   1.00
H830   H     0.95805   0.08296   0.74015   0.00000  Uiso   1.00
C831   C     0.95622   0.11416   0.68997   0.00000  Uiso   1.00
H832   H     0.98575   0.10972   0.68462   0.00000  Uiso   1.00
H833   H     0.94941   0.14267   0.68189   0.00000  Uiso   1.00
H834   H     0.94039   0.09517   0.67132   0.00000  Uiso   1.00
N835   N     0.59540   0.35244   0.17727   0.00000  Uiso   1.00
H836   H     0.56784   0.35660   0.17353   0.00000  Uiso   1.00
C837   C     0.60855   0.31769   0.16321   0.00000  Uiso   1.00
H838   H     0.59987   0.31403   0.13256   0.00000  Uiso   1.00
H839   H     0.59728   0.29506   0.18093   0.00000  Uiso   1.00
H840   H     0.63878   0.31657   0.16435   0.00000  Uiso   1.00
N841   N     0.85661   0.19838   0.76831   0.00000  Uiso   1.00
H842   H     0.84109   0.20183   0.79303   0.00000  Uiso   1.00
C843   C     0.84670   0.22226   0.73643   0.00000  Uiso   1.00
H844   H     0.81734   0.22943   0.73825   0.00000  Uiso   1.00
H845   H     0.85213   0.20949   0.70767   0.00000  Uiso   1.00
H846   H     0.86279   0.24783   0.73854   0.00000  Uiso   1.00
N847   N     0.60192   0.34304   0.32056   0.00000  Uiso   1.00
H848   H     0.62189   0.33746   0.34075   0.00000  Uiso   1.00
C849   C     0.57072   0.36147   0.33718   0.00000  Uiso   1.00
H850   H     0.57776   0.39010   0.34463   0.00000  Uiso   1.00
H851   H     0.56221   0.34713   0.36411   0.00000  Uiso   1.00
H852   H     0.54748   0.36130   0.31647   0.00000  Uiso   1.00
N853   N     0.84247   0.39754   0.67894   0.00000  Uiso   1.00
H854   H     0.83659   0.37834   0.65803   0.00000  Uiso   1.00
C855   C     0.85440   0.43260   0.66419   0.00000  Uiso   1.00
H856   H     0.86906   0.42890   0.63622   0.00000  Uiso   1.00
H857   H     0.87282   0.44684   0.68492   0.00000  Uiso   1.00
H858   H     0.83017   0.45007   0.65907   0.00000  Uiso   1.00
N859   N     0.69885   0.14402   0.23601   0.00000  Uiso   1.00
H860   H     0.70251   0.16062   0.21213   0.00000  Uiso   1.00
C861   C     0.71982   0.15594   0.26938   0.00000  Uiso   1.00
H862   H     0.71121   0.18353   0.27887   0.00000  Uiso   1.00
H863   H     0.74913   0.15696   0.26140   0.00000  Uiso   1.00
H864   H     0.71652   0.13693   0.29423   0.00000  Uiso   1.00
N865   N     0.64336   0.30161   0.76838   0.00000  Uiso   1.00
H866   H     0.65884   0.29816   0.79311   0.00000  Uiso   1.00
C867   C     0.65327   0.27771   0.73654   0.00000  Uiso   1.00
H868   H     0.68260   0.27044   0.73841   0.00000  Uiso   1.00
H869   H     0.64797   0.29051   0.70775   0.00000  Uiso   1.00
H870   H     0.63709   0.25220   0.73862   0.00000  Uiso   1.00
N871   N     0.89633   0.15847   0.32073   0.00000  Uiso   1.00
H872   H     0.87583   0.16427   0.34025   0.00000  Uiso   1.00
C873   C     0.92735   0.14084   0.33864   0.00000  Uiso   1.00
H874   H     0.92039   0.11240   0.34699   0.00000  Uiso   1.00
H875   H     0.93527   0.15610   0.36519   0.00000  Uiso   1.00
H876   H     0.95098   0.14054   0.31841   0.00000  Uiso   1.00
N877   N     0.65766   0.10258   0.67896   0.00000  Uiso   1.00
H878   H     0.66358   0.12181   0.65808   0.00000  Uiso   1.00
C879   C     0.64575   0.06755   0.66416   0.00000  Uiso   1.00
H880   H     0.63117   0.07131   0.63616   0.00000  Uiso   1.00
H881   H     0.62726   0.05329   0.68484   0.00000  Uiso   1.00
H882   H     0.66998   0.05008   0.65908   0.00000  Uiso   1.00
N883   N     0.80114   0.35599   0.23617   0.00000  Uiso   1.00
H884   H     0.79743   0.33940   0.21231   0.00000  Uiso   1.00
C885   C     0.78025   0.34407   0.26963   0.00000  Uiso   1.00
H886   H     0.78883   0.31644   0.27904   0.00000  Uiso   1.00
H887   H     0.75090   0.34314   0.26181   0.00000  Uiso   1.00
H888   H     0.78369   0.36303   0.29449   0.00000  Uiso   1.00
N889   N     0.85745   0.30160   0.23170   0.00000  Uiso   1.00
H890   H     0.83287   0.29183   0.24169   0.00000  Uiso   1.00
C891   C     0.86360   0.29312   0.19116   0.00000  Uiso   1.00
H892   H     0.85918   0.26351   0.18627   0.00000  Uiso   1.00
H893   H     0.89201   0.29990   0.18266   0.00000  Uiso   1.00
H894   H     0.84439   0.30869   0.17250   0.00000  Uiso   1.00
N895   N     0.60396   0.15881   0.67919   0.00000  Uiso   1.00
H896   H     0.62468   0.16629   0.66061   0.00000  Uiso   1.00
C897   C     0.57366   0.14120   0.65998   0.00000  Uiso   1.00
H898   H     0.56629   0.15692   0.63355   0.00000  Uiso   1.00
H899   H     0.54960   0.14022   0.67959   0.00000  Uiso   1.00
H900   H     0.58111   0.11306   0.65118   0.00000  Uiso   1.00
N901   N     0.83775   0.10819   0.31991   0.00000  Uiso   1.00
H902   H     0.85425   0.10149   0.34310   0.00000  Uiso   1.00
C903   C     0.80779   0.13235   0.32990   0.00000  Uiso   1.00
H904   H     0.78276   0.11597   0.33481   0.00000  Uiso   1.00
H905   H     0.80212   0.15247   0.30646   0.00000  Uiso   1.00
H906   H     0.81411   0.14748   0.35705   0.00000  Uiso   1.00
N907   N     0.69857   0.35676   0.76727   0.00000  Uiso   1.00
H908   H     0.70257   0.34145   0.79203   0.00000  Uiso   1.00
C909   C     0.72156   0.34641   0.73482   0.00000  Uiso   1.00
H910   H     0.74759   0.36179   0.73649   0.00000  Uiso   1.00
H911   H     0.70842   0.35242   0.70637   0.00000  Uiso   1.00
H912   H     0.72793   0.31684   0.73626   0.00000  Uiso   1.00
N913   N     0.64257   0.19845   0.23183   0.00000  Uiso   1.00
H914   H     0.66713   0.20820   0.24183   0.00000  Uiso   1.00
C915   C     0.63644   0.20709   0.19132   0.00000  Uiso   1.00
H916   H     0.64066   0.23675   0.18657   0.00000  Uiso   1.00
H917   H     0.60810   0.20013   0.18277   0.00000  Uiso   1.00
H918   H     0.65578   0.19173   0.17261   0.00000  Uiso   1.00
N919   N     0.89615   0.34128   0.67918   0.00000  Uiso   1.00
H920   H     0.87545   0.33383   0.66059   0.00000  Uiso   1.00
C921   C     0.92648   0.35890   0.65999   0.00000  Uiso   1.00
H922   H     0.93388   0.34322   0.63356   0.00000  Uiso   1.00
H923   H     0.95051   0.35985   0.67961   0.00000  Uiso   1.00
H924   H     0.91906   0.38706   0.65121   0.00000  Uiso   1.00
N925   N     0.66118   0.39258   0.32005   0.00000  Uiso   1.00
H926   H     0.64434   0.39950   0.34290   0.00000  Uiso   1.00
C927   C     0.69098   0.36851   0.33076   0.00000  Uiso   1.00
H928   H     0.71589   0.38494   0.33604   0.00000  Uiso   1.00
H929   H     0.69715   0.34831   0.30753   0.00000  Uiso   1.00
H930   H     0.68417   0.35346   0.35785   0.00000  Uiso   1.00
N931   N     0.80140   0.14323   0.76718   0.00000  Uiso   1.00
H932   H     0.79737   0.15850   0.79196   0.00000  Uiso   1.00
C933   C     0.77848   0.15366   0.73472   0.00000  Uiso   1.00
H934   H     0.77180   0.18314   0.73642   0.00000  Uiso   1.00
H935   H     0.75260   0.13802   0.73610   0.00000  Uiso   1.00
H936   H     0.79183   0.14807   0.70628   0.00000  Uiso   1.00
N937   N     0.97626   0.31267   0.39746   0.00000  Uiso   1.00
O938   O     0.99215   0.32603   0.36676   0.00000  Uiso   1.00
O939   O     0.94423   0.32479   0.40736   0.00000  Uiso   1.00
N940   N     0.97850   0.18670   0.60276   0.00000  Uiso   1.00
O941   O     0.99600   0.17341   0.63242   0.00000  Uiso   1.00
O942   O     0.94618   0.17427   0.59451   0.00000  Uiso   1.00
N943   N     0.69895   0.45708   0.39687   0.00000  Uiso   1.00
O944   O     0.67720   0.47033   0.37051   0.00000  Uiso   1.00
O945   O     0.70123   0.42194   0.40149   0.00000  Uiso   1.00
N946   N     0.81555   0.01292   0.60310   0.00000  Uiso   1.00
O947   O     0.81955   0.03620   0.63133   0.00000  Uiso   1.00
O948   O     0.84236   0.49120   0.59427   0.00000  Uiso   1.00
N949   N     0.52338   0.18722   0.39742   0.00000  Uiso   1.00
O950   O     0.50723   0.17381   0.36693   0.00000  Uiso   1.00
O951   O     0.55545   0.17506   0.40708   0.00000  Uiso   1.00
N952   N     0.52157   0.31327   0.60264   0.00000  Uiso   1.00
O953   O     0.50412   0.32656   0.63234   0.00000  Uiso   1.00
O954   O     0.55387   0.32571   0.59428   0.00000  Uiso   1.00
N955   N     0.80105   0.04290   0.39667   0.00000  Uiso   1.00
O956   O     0.82295   0.02945   0.37055   0.00000  Uiso   1.00
O957   O     0.79845   0.07809   0.40064   0.00000  Uiso   1.00
N958   N     0.68443   0.48712   0.60328   0.00000  Uiso   1.00
O959   O     0.68047   0.46369   0.63140   0.00000  Uiso   1.00
O960   O     0.65761   0.00891   0.59467   0.00000  Uiso   1.00
N961   N     0.71255   0.05551   0.89708   0.00000  Uiso   1.00
O962   O     0.72708   0.07419   0.86885   0.00000  Uiso   1.00
O963   O     0.67817   0.05987   0.90524   0.00000  Uiso   1.00
N964   N     0.78645   0.44399   0.10347   0.00000  Uiso   1.00
O965   O     0.82148   0.44115   0.09820   0.00000  Uiso   1.00
O966   O     0.77078   0.42478   0.13059   0.00000  Uiso   1.00
N967   N     0.93713   0.22643   0.89753   0.00000  Uiso   1.00
O968   O     0.92398   0.24211   0.86663   0.00000  Uiso   1.00
O969   O     0.92476   0.19456   0.90774   0.00000  Uiso   1.00
N970   N     0.56259   0.22662   0.10232   0.00000  Uiso   1.00
O971   O     0.57643   0.24347   0.13210   0.00000  Uiso   1.00
O972   O     0.57429   0.19415   0.09351   0.00000  Uiso   1.00
N973   N     0.78740   0.44445   0.89708   0.00000  Uiso   1.00
O974   O     0.77287   0.42579   0.86886   0.00000  Uiso   1.00
O975   O     0.82176   0.44005   0.90523   0.00000  Uiso   1.00
N976   N     0.71318   0.05581   0.10336   0.00000  Uiso   1.00
O977   O     0.67820   0.05857   0.09778   0.00000  Uiso   1.00
O978   O     0.72857   0.07509   0.13057   0.00000  Uiso   1.00
N979   N     0.56265   0.27356   0.89756   0.00000  Uiso   1.00
O980   O     0.57588   0.25790   0.86668   0.00000  Uiso   1.00
O981   O     0.57505   0.30538   0.90784   0.00000  Uiso   1.00
N982   N     0.93687   0.27218   0.10272   0.00000  Uiso   1.00
O983   O     0.92338   0.25477   0.13237   0.00000  Uiso   1.00
O984   O     0.92472   0.30460   0.09441   0.00000  Uiso   1.00
Zn985  Zn    0.20660   0.50000   0.21735   0.00000  Uiso   1.00
Zn986  Zn    0.29341   0.50000   0.78265   0.00000  Uiso   1.00
Zn987  Zn    0.00000   0.70660   0.21735   0.00000  Uiso   1.00
Zn988  Zn    0.00000   0.79341   0.78265   0.00000  Uiso   1.00
Zn989  Zn    0.29341   0.50000   0.21735   0.00000  Uiso   1.00
Zn990  Zn    0.20660   0.50000   0.78265   0.00000  Uiso   1.00
Zn991  Zn    0.00000   0.79341   0.21735   0.00000  Uiso   1.00
Zn992  Zn    0.00000   0.70660   0.78265   0.00000  Uiso   1.00
Zn993  Zn    0.45660   0.75000   0.71735   0.00000  Uiso   1.00
Zn994  Zn    0.04341   0.75000   0.28265   0.00000  Uiso   1.00
Zn995  Zn    0.25000   0.95660   0.71735   0.00000  Uiso   1.00
Zn996  Zn    0.25000   0.54341   0.28265   0.00000  Uiso   1.00
Zn997  Zn    0.04341   0.75000   0.71735   0.00000  Uiso   1.00
Zn998  Zn    0.45660   0.75000   0.28265   0.00000  Uiso   1.00
Zn999  Zn    0.25000   0.54341   0.71735   0.00000  Uiso   1.00
Zn1000 Zn    0.25000   0.95660   0.28265   0.00000  Uiso   1.00
C1001  C     0.49185   0.78228   0.41809   0.00000  Uiso   1.00
C1002  C     0.49268   0.71753   0.58182   0.00000  Uiso   1.00
C1003  C     0.22294   0.98062   0.41827   0.00000  Uiso   1.00
C1004  C     0.28164   0.51028   0.58224   0.00000  Uiso   1.00
C1005  C     0.00798   0.71767   0.41810   0.00000  Uiso   1.00
C1006  C     0.00735   0.78244   0.58177   0.00000  Uiso   1.00
C1007  C     0.27698   0.51951   0.41820   0.00000  Uiso   1.00
C1008  C     0.21829   0.98984   0.58231   0.00000  Uiso   1.00
C1009  C     0.23365   0.52902   0.91817   0.00000  Uiso   1.00
C1010  C     0.26613   0.97085   0.08207   0.00000  Uiso   1.00
C1011  C     0.46755   0.74201   0.91810   0.00000  Uiso   1.00
C1012  C     0.03215   0.74186   0.08165   0.00000  Uiso   1.00
C1013  C     0.26630   0.97094   0.91817   0.00000  Uiso   1.00
C1014  C     0.23379   0.52910   0.08204   0.00000  Uiso   1.00
C1015  C     0.03220   0.75794   0.91810   0.00000  Uiso   1.00
C1016  C     0.46754   0.75768   0.08179   0.00000  Uiso   1.00
C1017  C     0.49995   0.74999   0.39800   0.00000  Uiso   1.00
C1018  C     0.00003   0.74999   0.60189   0.00000  Uiso   1.00
C1019  C     0.24999   0.50002   0.39821   0.00000  Uiso   1.00
C1020  C     0.24998   0.50003   0.60222   0.00000  Uiso   1.00
C1021  C     0.24998   0.99998   0.89809   0.00000  Uiso   1.00
C1022  C     0.25000   0.50001   0.10204   0.00000  Uiso   1.00
C1023  C     0.49989   0.74999   0.89799   0.00000  Uiso   1.00
C1024  C     0.49992   0.74993   0.10185   0.00000  Uiso   1.00
O1025  O     0.25000   0.50000   0.25000   0.00000  Uiso   1.00
O1026  O     0.25000   0.50000   0.75000   0.00000  Uiso   1.00
O1027  O     0.00000   0.75000   0.25000   0.00000  Uiso   1.00
O1028  O     0.00000   0.75000   0.75000   0.00000  Uiso   1.00
O1029  O     0.25000   0.96964   0.33755   0.00000  Uiso   1.00
O1030  O     0.25000   0.53037   0.66245   0.00000  Uiso   1.00
O1031  O     0.03037   0.75000   0.33755   0.00000  Uiso   1.00
O1032  O     0.46964   0.75000   0.66245   0.00000  Uiso   1.00
O1033  O     0.25000   0.53037   0.33755   0.00000  Uiso   1.00
O1034  O     0.25000   0.96964   0.66245   0.00000  Uiso   1.00
O1035  O     0.46964   0.75000   0.33755   0.00000  Uiso   1.00
O1036  O     0.03037   0.75000   0.66245   0.00000  Uiso   1.00
O1037  O     0.00000   0.71964   0.83755   0.00000  Uiso   1.00
O1038  O     0.00000   0.78037   0.16245   0.00000  Uiso   1.00
O1039  O     0.28037   0.50000   0.83755   0.00000  Uiso   1.00
O1040  O     0.21964   0.50000   0.16245   0.00000  Uiso   1.00
O1041  O     0.00000   0.78037   0.83755   0.00000  Uiso   1.00
O1042  O     0.00000   0.71964   0.16245   0.00000  Uiso   1.00
O1043  O     0.21964   0.50000   0.83755   0.00000  Uiso   1.00
O1044  O     0.28037   0.50000   0.16245   0.00000  Uiso   1.00
O1045  O     0.20725   0.57308   0.27302   0.00000  Uiso   1.00
O1046  O     0.29276   0.92693   0.72698   0.00000  Uiso   1.00
O1047  O     0.42693   0.70725   0.27302   0.00000  Uiso   1.00
O1048  O     0.07308   0.79276   0.72698   0.00000  Uiso   1.00
O1049  O     0.29276   0.92693   0.27302   0.00000  Uiso   1.00
O1050  O     0.20725   0.57308   0.72698   0.00000  Uiso   1.00
O1051  O     0.07308   0.79276   0.27302   0.00000  Uiso   1.00
O1052  O     0.42693   0.70725   0.72698   0.00000  Uiso   1.00
O1053  O     0.20725   0.92693   0.72698   0.00000  Uiso   1.00
O1054  O     0.29276   0.57308   0.27302   0.00000  Uiso   1.00
O1055  O     0.42693   0.79276   0.72698   0.00000  Uiso   1.00
O1056  O     0.07308   0.70725   0.27302   0.00000  Uiso   1.00
O1057  O     0.29276   0.57308   0.72698   0.00000  Uiso   1.00
O1058  O     0.20725   0.92693   0.27302   0.00000  Uiso   1.00
O1059  O     0.07308   0.70725   0.72698   0.00000  Uiso   1.00
O1060  O     0.42693   0.79276   0.27302   0.00000  Uiso   1.00
O1061  O     0.45725   0.82308   0.77302   0.00000  Uiso   1.00
O1062  O     0.04276   0.67693   0.22698   0.00000  Uiso   1.00
O1063  O     0.17693   0.95725   0.77302   0.00000  Uiso   1.00
O1064  O     0.32308   0.54276   0.22698   0.00000  Uiso   1.00
O1065  O     0.04276   0.67693   0.77302   0.00000  Uiso   1.00
O1066  O     0.45725   0.82308   0.22698   0.00000  Uiso   1.00
O1067  O     0.32308   0.54276   0.77302   0.00000  Uiso   1.00
O1068  O     0.17693   0.95725   0.22698   0.00000  Uiso   1.00
O1069  O     0.45725   0.67693   0.22698   0.00000  Uiso   1.00
O1070  O     0.04276   0.82308   0.77302   0.00000  Uiso   1.00
O1071  O     0.17693   0.54276   0.22698   0.00000  Uiso   1.00
O1072  O     0.32308   0.95725   0.77302   0.00000  Uiso   1.00
O1073  O     0.04276   0.82308   0.22698   0.00000  Uiso   1.00
O1074  O     0.45725   0.67693   0.77302   0.00000  Uiso   1.00
O1075  O     0.32308   0.95725   0.22698   0.00000  Uiso   1.00
O1076  O     0.17693   0.54276   0.77302   0.00000  Uiso   1.00
C1077  C     0.00157   0.68313   0.47955   0.00000  Uiso   1.00
C1078  C     0.00093   0.81687   0.52021   0.00000  Uiso   1.00
C1079  C     0.30919   0.53142   0.48008   0.00000  Uiso   1.00
C1080  C     0.19056   0.96923   0.52083   0.00000  Uiso   1.00
C1081  C     0.49830   0.81682   0.47950   0.00000  Uiso   1.00
C1082  C     0.49901   0.68309   0.52027   0.00000  Uiso   1.00
C1083  C     0.19057   0.96903   0.48015   0.00000  Uiso   1.00
C1084  C     0.30922   0.53115   0.52075   0.00000  Uiso   1.00
C1085  C     0.27166   0.93674   0.97973   0.00000  Uiso   1.00
C1086  C     0.22806   0.56316   0.02044   0.00000  Uiso   1.00
C1087  C     0.06668   0.75089   0.97945   0.00000  Uiso   1.00
C1088  C     0.43299   0.75154   0.02025   0.00000  Uiso   1.00
C1089  C     0.22830   0.56322   0.97970   0.00000  Uiso   1.00
C1090  C     0.27191   0.93679   0.02048   0.00000  Uiso   1.00
C1091  C     0.43301   0.74881   0.97953   0.00000  Uiso   1.00
C1092  C     0.06668   0.74800   0.02014   0.00000  Uiso   1.00
C1093  C     0.25000   0.50000   0.35581   0.00000  Uiso   1.00
C1094  C     0.25000   0.50001   0.64434   0.00000  Uiso   1.00
C1095  C     0.49999   0.75000   0.35574   0.00000  Uiso   1.00
C1096  C     0.00001   0.75000   0.64423   0.00000  Uiso   1.00
C1097  C     0.49995   0.74999   0.85574   0.00000  Uiso   1.00
C1098  C    -0.00000   0.74999   0.14421   0.00000  Uiso   1.00
C1099  C     0.24999   0.99999   0.85577   0.00000  Uiso   1.00
C1100  C     0.25000   0.50002   0.14428   0.00000  Uiso   1.00
C1101  C     0.18002   0.57006   0.25004   0.00000  Uiso   1.00
C1102  C     0.32004   0.93000   0.75013   0.00000  Uiso   1.00
C1103  C     0.43003   0.67996   0.24997   0.00000  Uiso   1.00
C1104  C     0.07019   0.81980   0.75020   0.00000  Uiso   1.00
C1105  C     0.31999   0.92994   0.25005   0.00000  Uiso   1.00
C1106  C     0.17996   0.57001   0.75014   0.00000  Uiso   1.00
C1107  C     0.07007   0.81996   0.24975   0.00000  Uiso   1.00
C1108  C     0.42982   0.68020   0.75021   0.00000  Uiso   1.00
C1109  C     0.17994   0.93002   0.75005   0.00000  Uiso   1.00
C1110  C     0.31992   0.57013   0.25000   0.00000  Uiso   1.00
C1111  C     0.42994   0.81995   0.75001   0.00000  Uiso   1.00
C1112  C     0.06979   0.67981   0.25021   0.00000  Uiso   1.00
C1113  C     0.32006   0.56998   0.75004   0.00000  Uiso   1.00
C1114  C     0.18009   0.92990   0.25008   0.00000  Uiso   1.00
C1115  C     0.07007   0.68005   0.75001   0.00000  Uiso   1.00
C1116  C     0.43021   0.82020   0.25021   0.00000  Uiso   1.00
C1117  C     0.13695   0.89054   0.21401   0.00000  Uiso   1.00
C1118  C     0.38482   0.58832   0.74331   0.00000  Uiso   1.00
C1119  C     0.08825   0.61527   0.25768   0.00000  Uiso   1.00
C1120  C     0.39165   0.86450   0.78536   0.00000  Uiso   1.00
C1121  C     0.36487   0.60806   0.21446   0.00000  Uiso   1.00
C1122  C     0.11519   0.91168   0.74328   0.00000  Uiso   1.00
C1123  C     0.41175   0.88472   0.25768   0.00000  Uiso   1.00
C1124  C     0.10831   0.63547   0.78537   0.00000  Uiso   1.00
C1125  C     0.13413   0.60734   0.78520   0.00000  Uiso   1.00
C1126  C     0.38460   0.91175   0.25752   0.00000  Uiso   1.00
C1127  C     0.08848   0.88415   0.74146   0.00000  Uiso   1.00
C1128  C     0.39228   0.63476   0.21453   0.00000  Uiso   1.00
C1129  C     0.36583   0.89263   0.78519   0.00000  Uiso   1.00
C1130  C     0.11541   0.58826   0.25754   0.00000  Uiso   1.00
C1131  C     0.41154   0.61584   0.74152   0.00000  Uiso   1.00
C1132  C     0.10976   0.86380   0.21380   0.00000  Uiso   1.00
C1133  C     0.36538   0.66166   0.75831   0.00000  Uiso   1.00
C1134  C     0.11451   0.85826   0.28479   0.00000  Uiso   1.00
C1135  C     0.35840   0.88552   0.71461   0.00000  Uiso   1.00
C1136  C     0.16174   0.63492   0.24389   0.00000  Uiso   1.00
C1137  C     0.13461   0.83834   0.75834   0.00000  Uiso   1.00
C1138  C     0.38479   0.64234   0.28503   0.00000  Uiso   1.00
C1139  C     0.14167   0.61454   0.71462   0.00000  Uiso   1.00
C1140  C     0.33827   0.86509   0.24392   0.00000  Uiso   1.00
C1141  C     0.36577   0.83837   0.24209   0.00000  Uiso   1.00
C1142  C     0.11509   0.64204   0.71468   0.00000  Uiso   1.00
C1143  C     0.35646   0.61680   0.28472   0.00000  Uiso   1.00
C1144  C     0.16164   0.86550   0.75818   0.00000  Uiso   1.00
C1145  C     0.13424   0.66165   0.24211   0.00000  Uiso   1.00
C1146  C     0.38498   0.85801   0.71467   0.00000  Uiso   1.00
C1147  C     0.14305   0.88360   0.28466   0.00000  Uiso   1.00
C1148  C     0.33835   0.63450   0.75813   0.00000  Uiso   1.00
C1149  C     0.00304   0.71653   0.45886   0.00000  Uiso   1.00
C1150  C     0.00262   0.78349   0.54098   0.00000  Uiso   1.00
C1151  C     0.27912   0.51700   0.45915   0.00000  Uiso   1.00
C1152  C     0.21940   0.98604   0.54147   0.00000  Uiso   1.00
C1153  C     0.49682   0.78342   0.45884   0.00000  Uiso   1.00
C1154  C     0.49736   0.71647   0.54102   0.00000  Uiso   1.00
C1155  C     0.22073   0.98330   0.45920   0.00000  Uiso   1.00
C1156  C     0.28045   0.51420   0.54142   0.00000  Uiso   1.00
C1157  C     0.26309   0.96904   0.95905   0.00000  Uiso   1.00
C1158  C     0.23679   0.53092   0.04116   0.00000  Uiso   1.00
C1159  C     0.03330   0.75281   0.95882   0.00000  Uiso   1.00
C1160  C     0.46638   0.75292   0.04099   0.00000  Uiso   1.00
C1161  C     0.23687   0.53091   0.95903   0.00000  Uiso   1.00
C1162  C     0.26317   0.96903   0.04118   0.00000  Uiso   1.00
C1163  C     0.46640   0.74706   0.95884   0.00000  Uiso   1.00
C1164  C     0.03329   0.74672   0.04090   0.00000  Uiso   1.00
C1165  C     0.09820   0.84803   0.24935   0.00000  Uiso   1.00
C1166  C     0.40172   0.65213   0.74982   0.00000  Uiso   1.00
C1167  C     0.15193   0.59821   0.25047   0.00000  Uiso   1.00
C1168  C     0.34868   0.90243   0.74996   0.00000  Uiso   1.00
C1169  C     0.40205   0.65176   0.24985   0.00000  Uiso   1.00
C1170  C     0.09829   0.84786   0.74979   0.00000  Uiso   1.00
C1171  C     0.34808   0.90180   0.25047   0.00000  Uiso   1.00
C1172  C     0.15132   0.59758   0.74997   0.00000  Uiso   1.00
C1173  C     0.09838   0.65217   0.75003   0.00000  Uiso   1.00
C1174  C     0.40214   0.84829   0.24979   0.00000  Uiso   1.00
C1175  C     0.15179   0.90194   0.75048   0.00000  Uiso   1.00
C1176  C     0.34738   0.59890   0.24969   0.00000  Uiso   1.00
C1177  C     0.40163   0.84784   0.75003   0.00000  Uiso   1.00
C1178  C     0.09785   0.65172   0.24980   0.00000  Uiso   1.00
C1179  C     0.34820   0.59807   0.75044   0.00000  Uiso   1.00
C1180  C     0.15303   0.90083   0.24954   0.00000  Uiso   1.00
C1181  C     0.49995   0.74998   0.47941   0.00000  Uiso   1.00
C1182  C     0.49998   0.74998   0.52046   0.00000  Uiso   1.00
C1183  C     0.24993   0.50014   0.47973   0.00000  Uiso   1.00
C1184  C     0.24992   0.50013   0.52084   0.00000  Uiso   1.00
C1185  C     0.24999   0.99998   0.97958   0.00000  Uiso   1.00
C1186  C     0.24999   0.99998   0.02063   0.00000  Uiso   1.00
C1187  C     0.49984   0.74993   0.97938   0.00000  Uiso   1.00
C1188  C     0.49983   0.74988   0.02041   0.00000  Uiso   1.00
N1189  N     0.49974   0.64887   0.45944   0.00000  Uiso   1.00
O1190  O     0.47140   0.64120   0.43822   0.00000  Uiso   1.00
O1191  O     0.02425   0.62386   0.46566   0.00000  Uiso   1.00
N1192  N     0.49917   0.85119   0.54020   0.00000  Uiso   1.00
O1193  O     0.47046   0.85930   0.56070   0.00000  Uiso   1.00
O1194  O     0.02400   0.87593   0.53422   0.00000  Uiso   1.00
N1195  N     0.34115   0.54465   0.46052   0.00000  Uiso   1.00
O1196  O     0.36337   0.52159   0.44419   0.00000  Uiso   1.00
O1197  O     0.35080   0.57866   0.46393   0.00000  Uiso   1.00
N1198  N     0.16224   0.94966   0.54080   0.00000  Uiso   1.00
O1199  O     0.17017   0.92006   0.55989   0.00000  Uiso   1.00
O1200  O     0.12824   0.95901   0.53649   0.00000  Uiso   1.00
N1201  N     0.00006   0.85109   0.45934   0.00000  Uiso   1.00
O1202  O     0.02834   0.85876   0.43800   0.00000  Uiso   1.00
O1203  O     0.47556   0.87609   0.46565   0.00000  Uiso   1.00
N1204  N     0.00079   0.64877   0.54029   0.00000  Uiso   1.00
O1205  O     0.02953   0.64066   0.56072   0.00000  Uiso   1.00
O1206  O     0.47595   0.62403   0.53441   0.00000  Uiso   1.00
N1207  N     0.15849   0.95613   0.46062   0.00000  Uiso   1.00
O1208  O     0.13669   0.97938   0.44399   0.00000  Uiso   1.00
O1209  O     0.14839   0.92225   0.46417   0.00000  Uiso   1.00
N1210  N     0.33746   0.55082   0.54071   0.00000  Uiso   1.00
O1211  O     0.32937   0.58026   0.55998   0.00000  Uiso   1.00
O1212  O     0.37151   0.54171   0.53624   0.00000  Uiso   1.00
N1213  N     0.27453   0.90238   0.95990   0.00000  Uiso   1.00
O1214  O     0.24635   0.88908   0.94183   0.00000  Uiso   1.00
O1215  O     0.30459   0.88358   0.96132   0.00000  Uiso   1.00
N1216  N     0.22448   0.59742   0.04028   0.00000  Uiso   1.00
O1217  O     0.19351   0.61474   0.04034   0.00000  Uiso   1.00
O1218  O     0.25274   0.61202   0.05703   0.00000  Uiso   1.00
N1219  N     0.10092   0.74889   0.95928   0.00000  Uiso   1.00
O1220  O     0.10825   0.72070   0.93768   0.00000  Uiso   1.00
O1221  O     0.12621   0.77304   0.96579   0.00000  Uiso   1.00
N1222  N     0.39867   0.75017   0.04028   0.00000  Uiso   1.00
O1223  O     0.39027   0.72160   0.06087   0.00000  Uiso   1.00
O1224  O     0.37418   0.77523   0.03425   0.00000  Uiso   1.00
N1225  N     0.22542   0.59757   0.95985   0.00000  Uiso   1.00
O1226  O     0.25361   0.61089   0.94175   0.00000  Uiso   1.00
O1227  O     0.19534   0.61634   0.96123   0.00000  Uiso   1.00
N1228  N     0.27553   0.90254   0.04032   0.00000  Uiso   1.00
O1229  O     0.30654   0.88530   0.04044   0.00000  Uiso   1.00
O1230  O     0.24724   0.88779   0.05692   0.00000  Uiso   1.00
N1231  N     0.39878   0.75077   0.95940   0.00000  Uiso   1.00
O1232  O     0.39138   0.77898   0.93783   0.00000  Uiso   1.00
O1233  O     0.37355   0.72654   0.96587   0.00000  Uiso   1.00
N1234  N     0.10101   0.74909   0.04014   0.00000  Uiso   1.00
O1235  O     0.10956   0.77753   0.06084   0.00000  Uiso   1.00
O1236  O     0.12537   0.72393   0.03398   0.00000  Uiso   1.00
N1237  N     0.14816   0.90724   0.17839   0.00000  Uiso   1.00
H1238  H     0.12800   0.90978   0.15767   0.00000  Uiso   1.00
C1239  C     0.18219   0.89388   0.16243   0.00000  Uiso   1.00
H1240  H     0.17907   0.86528   0.15247   0.00000  Uiso   1.00
H1241  H     0.20440   0.89528   0.18430   0.00000  Uiso   1.00
H1242  H     0.19016   0.91098   0.13716   0.00000  Uiso   1.00
N1243  N     0.39381   0.55127   0.73494   0.00000  Uiso   1.00
H1244  H     0.41018   0.54784   0.71084   0.00000  Uiso   1.00
C1245  C     0.40605   0.52998   0.76797   0.00000  Uiso   1.00
H1246  H     0.43367   0.53861   0.77732   0.00000  Uiso   1.00
H1247  H     0.40712   0.50074   0.75967   0.00000  Uiso   1.00
H1248  H     0.38721   0.53293   0.79301   0.00000  Uiso   1.00
N1249  N     0.05141   0.60635   0.26708   0.00000  Uiso   1.00
H1250  H     0.04768   0.59060   0.29158   0.00000  Uiso   1.00
C1251  C     0.02796   0.59669   0.23478   0.00000  Uiso   1.00
H1252  H     0.02075   0.56732   0.23624   0.00000  Uiso   1.00
H1253  H     0.04113   0.60232   0.20624   0.00000  Uiso   1.00
H1254  H     0.00239   0.61277   0.23664   0.00000  Uiso   1.00
N1255  N     0.40745   0.85253   0.82106   0.00000  Uiso   1.00
H1256  H     0.41262   0.87276   0.84107   0.00000  Uiso   1.00
C1257  C     0.39006   0.82090   0.83806   0.00000  Uiso   1.00
H1258  H     0.36135   0.82719   0.84592   0.00000  Uiso   1.00
H1259  H     0.40496   0.81287   0.86480   0.00000  Uiso   1.00
H1260  H     0.39058   0.79759   0.81744   0.00000  Uiso   1.00
N1261  N     0.35363   0.59138   0.17889   0.00000  Uiso   1.00
H1262  H     0.37337   0.58455   0.15888   0.00000  Uiso   1.00
C1263  C     0.31925   0.60342   0.16253   0.00000  Uiso   1.00
H1264  H     0.32419   0.61860   0.13509   0.00000  Uiso   1.00
H1265  H     0.30394   0.62134   0.18291   0.00000  Uiso   1.00
H1266  H     0.30219   0.57922   0.15586   0.00000  Uiso   1.00
N1267  N     0.10621   0.94873   0.73489   0.00000  Uiso   1.00
H1268  H     0.08989   0.95216   0.71077   0.00000  Uiso   1.00
C1269  C     0.09392   0.97001   0.76789   0.00000  Uiso   1.00
H1270  H     0.06630   0.96134   0.77725   0.00000  Uiso   1.00
H1271  H     0.09282   0.99925   0.75956   0.00000  Uiso   1.00
H1272  H     0.11274   0.96708   0.79293   0.00000  Uiso   1.00
N1273  N     0.44857   0.89362   0.26712   0.00000  Uiso   1.00
H1274  H     0.45227   0.90935   0.29163   0.00000  Uiso   1.00
C1275  C     0.47209   0.90330   0.23484   0.00000  Uiso   1.00
H1276  H     0.47931   0.93267   0.23631   0.00000  Uiso   1.00
H1277  H     0.45897   0.89770   0.20629   0.00000  Uiso   1.00
H1278  H     0.49765   0.88721   0.23673   0.00000  Uiso   1.00
N1279  N     0.09246   0.64741   0.82107   0.00000  Uiso   1.00
H1280  H     0.08728   0.62715   0.84107   0.00000  Uiso   1.00
C1281  C     0.10980   0.67904   0.83807   0.00000  Uiso   1.00
H1282  H     0.13850   0.67275   0.84596   0.00000  Uiso   1.00
H1283  H     0.09484   0.68705   0.86478   0.00000  Uiso   1.00
H1284  H     0.10932   0.70236   0.81744   0.00000  Uiso   1.00
N1285  N     0.14415   0.58993   0.82072   0.00000  Uiso   1.00
H1286  H     0.15069   0.60723   0.84329   0.00000  Uiso   1.00
C1287  C     0.12163   0.55919   0.83220   0.00000  Uiso   1.00
H1288  H     0.13945   0.53598   0.84042   0.00000  Uiso   1.00
H1289  H     0.10340   0.55013   0.80825   0.00000  Uiso   1.00
H1290  H     0.10464   0.56652   0.85777   0.00000  Uiso   1.00
N1291  N     0.39343   0.94879   0.26600   0.00000  Uiso   1.00
H1292  H     0.40890   0.95308   0.29057   0.00000  Uiso   1.00
C1293  C     0.40362   0.97136   0.23314   0.00000  Uiso   1.00
H1294  H     0.43309   0.97810   0.23451   0.00000  Uiso   1.00
H1295  H     0.38796   0.99724   0.23428   0.00000  Uiso   1.00
H1296  H     0.39784   0.95768   0.20493   0.00000  Uiso   1.00
N1297  N     0.05186   0.89235   0.73046   0.00000  Uiso   1.00
H1298  H     0.04197   0.91703   0.74001   0.00000  Uiso   1.00
C1299  C     0.04390   0.88583   0.68986   0.00000  Uiso   1.00
H1300  H     0.01439   0.89029   0.68448   0.00000  Uiso   1.00
H1301  H     0.05071   0.85732   0.68181   0.00000  Uiso   1.00
H1302  H     0.05978   0.90482   0.67121   0.00000  Uiso   1.00
N1303  N     0.40928   0.64571   0.17909   0.00000  Uiso   1.00
H1304  H     0.41645   0.62497   0.16042   0.00000  Uiso   1.00
C1305  C     0.39223   0.67639   0.15995   0.00000  Uiso   1.00
H1306  H     0.40814   0.68364   0.13359   0.00000  Uiso   1.00
H1307  H     0.39159   0.70039   0.17962   0.00000  Uiso   1.00
H1308  H     0.36399   0.66944   0.15106   0.00000  Uiso   1.00
N1309  N     0.35577   0.91002   0.82072   0.00000  Uiso   1.00
H1310  H     0.34919   0.89270   0.84327   0.00000  Uiso   1.00
C1311  C     0.37830   0.94072   0.83221   0.00000  Uiso   1.00
H1312  H     0.36049   0.96396   0.84039   0.00000  Uiso   1.00
H1313  H     0.39661   0.94977   0.80829   0.00000  Uiso   1.00
H1314  H     0.39522   0.93338   0.85782   0.00000  Uiso   1.00
N1315  N     0.10658   0.55121   0.26607   0.00000  Uiso   1.00
H1316  H     0.09112   0.54693   0.29068   0.00000  Uiso   1.00
C1317  C     0.09638   0.52864   0.23325   0.00000  Uiso   1.00
H1318  H     0.11207   0.50278   0.23436   0.00000  Uiso   1.00
H1319  H     0.10210   0.54233   0.20502   0.00000  Uiso   1.00
H1320  H     0.06691   0.52186   0.23472   0.00000  Uiso   1.00
N1321  N     0.44818   0.60764   0.73056   0.00000  Uiso   1.00
H1322  H     0.45805   0.58296   0.74015   0.00000  Uiso   1.00
C1323  C     0.45622   0.61416   0.68997   0.00000  Uiso   1.00
H1324  H     0.48575   0.60972   0.68462   0.00000  Uiso   1.00
H1325  H     0.44941   0.64267   0.68189   0.00000  Uiso   1.00
H1326  H     0.44039   0.59517   0.67132   0.00000  Uiso   1.00
N1327  N     0.09540   0.85244   0.17727   0.00000  Uiso   1.00
H1328  H     0.06784   0.85660   0.17353   0.00000  Uiso   1.00
C1329  C     0.10855   0.81769   0.16321   0.00000  Uiso   1.00
H1330  H     0.09987   0.81403   0.13256   0.00000  Uiso   1.00
H1331  H     0.09728   0.79506   0.18093   0.00000  Uiso   1.00
H1332  H     0.13878   0.81657   0.16435   0.00000  Uiso   1.00
N1333  N     0.35661   0.69838   0.76831   0.00000  Uiso   1.00
H1334  H     0.34109   0.70183   0.79303   0.00000  Uiso   1.00
C1335  C     0.34670   0.72226   0.73643   0.00000  Uiso   1.00
H1336  H     0.31734   0.72943   0.73825   0.00000  Uiso   1.00
H1337  H     0.35213   0.70949   0.70767   0.00000  Uiso   1.00
H1338  H     0.36279   0.74783   0.73854   0.00000  Uiso   1.00
N1339  N     0.10192   0.84304   0.32056   0.00000  Uiso   1.00
H1340  H     0.12189   0.83746   0.34075   0.00000  Uiso   1.00
C1341  C     0.07072   0.86147   0.33718   0.00000  Uiso   1.00
H1342  H     0.07776   0.89010   0.34463   0.00000  Uiso   1.00
H1343  H     0.06221   0.84713   0.36411   0.00000  Uiso   1.00
H1344  H     0.04748   0.86130   0.31647   0.00000  Uiso   1.00
N1345  N     0.34247   0.89754   0.67894   0.00000  Uiso   1.00
H1346  H     0.33659   0.87834   0.65803   0.00000  Uiso   1.00
C1347  C     0.35440   0.93260   0.66419   0.00000  Uiso   1.00
H1348  H     0.36906   0.92890   0.63622   0.00000  Uiso   1.00
H1349  H     0.37282   0.94684   0.68492   0.00000  Uiso   1.00
H1350  H     0.33017   0.95007   0.65907   0.00000  Uiso   1.00
N1351  N     0.19885   0.64402   0.23601   0.00000  Uiso   1.00
H1352  H     0.20251   0.66062   0.21213   0.00000  Uiso   1.00
C1353  C     0.21982   0.65594   0.26938   0.00000  Uiso   1.00
H1354  H     0.21121   0.68353   0.27887   0.00000  Uiso   1.00
H1355  H     0.24913   0.65696   0.26140   0.00000  Uiso   1.00
H1356  H     0.21652   0.63693   0.29423   0.00000  Uiso   1.00
N1357  N     0.14336   0.80161   0.76838   0.00000  Uiso   1.00
H1358  H     0.15884   0.79816   0.79311   0.00000  Uiso   1.00
C1359  C     0.15327   0.77771   0.73654   0.00000  Uiso   1.00
H1360  H     0.18260   0.77044   0.73841   0.00000  Uiso   1.00
H1361  H     0.14797   0.79051   0.70775   0.00000  Uiso   1.00
H1362  H     0.13709   0.75220   0.73862   0.00000  Uiso   1.00
N1363  N     0.39633   0.65847   0.32073   0.00000  Uiso   1.00
H1364  H     0.37583   0.66427   0.34025   0.00000  Uiso   1.00
C1365  C     0.42735   0.64084   0.33864   0.00000  Uiso   1.00
H1366  H     0.42039   0.61240   0.34699   0.00000  Uiso   1.00
H1367  H     0.43527   0.65610   0.36519   0.00000  Uiso   1.00
H1368  H     0.45098   0.64054   0.31841   0.00000  Uiso   1.00
N1369  N     0.15766   0.60258   0.67896   0.00000  Uiso   1.00
H1370  H     0.16358   0.62181   0.65808   0.00000  Uiso   1.00
C1371  C     0.14575   0.56755   0.66416   0.00000  Uiso   1.00
H1372  H     0.13117   0.57131   0.63616   0.00000  Uiso   1.00
H1373  H     0.12726   0.55329   0.68484   0.00000  Uiso   1.00
H1374  H     0.16998   0.55008   0.65908   0.00000  Uiso   1.00
N1375  N     0.30114   0.85599   0.23617   0.00000  Uiso   1.00
H1376  H     0.29743   0.83940   0.21231   0.00000  Uiso   1.00
C1377  C     0.28025   0.84407   0.26963   0.00000  Uiso   1.00
H1378  H     0.28883   0.81644   0.27904   0.00000  Uiso   1.00
H1379  H     0.25090   0.84314   0.26181   0.00000  Uiso   1.00
H1380  H     0.28369   0.86303   0.29449   0.00000  Uiso   1.00
N1381  N     0.35745   0.80160   0.23170   0.00000  Uiso   1.00
H1382  H     0.33287   0.79183   0.24169   0.00000  Uiso   1.00
C1383  C     0.36360   0.79312   0.19116   0.00000  Uiso   1.00
H1384  H     0.35918   0.76351   0.18627   0.00000  Uiso   1.00
H1385  H     0.39201   0.79990   0.18266   0.00000  Uiso   1.00
H1386  H     0.34439   0.80869   0.17250   0.00000  Uiso   1.00
N1387  N     0.10396   0.65881   0.67919   0.00000  Uiso   1.00
H1388  H     0.12468   0.66629   0.66061   0.00000  Uiso   1.00
C1389  C     0.07366   0.64120   0.65998   0.00000  Uiso   1.00
H1390  H     0.06629   0.65692   0.63355   0.00000  Uiso   1.00
H1391  H     0.04960   0.64022   0.67959   0.00000  Uiso   1.00
H1392  H     0.08111   0.61306   0.65118   0.00000  Uiso   1.00
N1393  N     0.33775   0.60819   0.31991   0.00000  Uiso   1.00
H1394  H     0.35425   0.60149   0.34310   0.00000  Uiso   1.00
C1395  C     0.30779   0.63235   0.32990   0.00000  Uiso   1.00
H1396  H     0.28276   0.61597   0.33481   0.00000  Uiso   1.00
H1397  H     0.30212   0.65247   0.30646   0.00000  Uiso   1.00
H1398  H     0.31411   0.64748   0.35705   0.00000  Uiso   1.00
N1399  N     0.19857   0.85676   0.76727   0.00000  Uiso   1.00
H1400  H     0.20257   0.84145   0.79203   0.00000  Uiso   1.00
C1401  C     0.22156   0.84641   0.73482   0.00000  Uiso   1.00
H1402  H     0.24759   0.86179   0.73649   0.00000  Uiso   1.00
H1403  H     0.20842   0.85242   0.70637   0.00000  Uiso   1.00
H1404  H     0.22793   0.81684   0.73626   0.00000  Uiso   1.00
N1405  N     0.14257   0.69845   0.23183   0.00000  Uiso   1.00
H1406  H     0.16713   0.70820   0.24183   0.00000  Uiso   1.00
C1407  C     0.13644   0.70709   0.19132   0.00000  Uiso   1.00
H1408  H     0.14066   0.73675   0.18657   0.00000  Uiso   1.00
H1409  H     0.10810   0.70013   0.18277   0.00000  Uiso   1.00
H1410  H     0.15578   0.69173   0.17261   0.00000  Uiso   1.00
N1411  N     0.39615   0.84128   0.67918   0.00000  Uiso   1.00
H1412  H     0.37545   0.83383   0.66059   0.00000  Uiso   1.00
C1413  C     0.42648   0.85890   0.65999   0.00000  Uiso   1.00
H1414  H     0.43388   0.84322   0.63356   0.00000  Uiso   1.00
H1415  H     0.45051   0.85985   0.67961   0.00000  Uiso   1.00
H1416  H     0.41906   0.88706   0.65121   0.00000  Uiso   1.00
N1417  N     0.16118   0.89258   0.32005   0.00000  Uiso   1.00
H1418  H     0.14434   0.89950   0.34290   0.00000  Uiso   1.00
C1419  C     0.19098   0.86851   0.33076   0.00000  Uiso   1.00
H1420  H     0.21589   0.88494   0.33604   0.00000  Uiso   1.00
H1421  H     0.19715   0.84831   0.30753   0.00000  Uiso   1.00
H1422  H     0.18417   0.85346   0.35785   0.00000  Uiso   1.00
N1423  N     0.30140   0.64323   0.76718   0.00000  Uiso   1.00
H1424  H     0.29737   0.65850   0.79196   0.00000  Uiso   1.00
C1425  C     0.27848   0.65366   0.73472   0.00000  Uiso   1.00
H1426  H     0.27180   0.68314   0.73642   0.00000  Uiso   1.00
H1427  H     0.25260   0.63802   0.73610   0.00000  Uiso   1.00
H1428  H     0.29183   0.64807   0.70628   0.00000  Uiso   1.00
N1429  N     0.47626   0.81267   0.39746   0.00000  Uiso   1.00
O1430  O     0.49215   0.82603   0.36676   0.00000  Uiso   1.00
O1431  O     0.44423   0.82479   0.40736   0.00000  Uiso   1.00
N1432  N     0.47850   0.68670   0.60276   0.00000  Uiso   1.00
O1433  O     0.49600   0.67341   0.63242   0.00000  Uiso   1.00
O1434  O     0.44618   0.67427   0.59451   0.00000  Uiso   1.00
N1435  N     0.19895   0.95708   0.39687   0.00000  Uiso   1.00
O1436  O     0.17720   0.97033   0.37051   0.00000  Uiso   1.00
O1437  O     0.20123   0.92194   0.40149   0.00000  Uiso   1.00
N1438  N     0.31555   0.51292   0.60310   0.00000  Uiso   1.00
O1439  O     0.31955   0.53620   0.63133   0.00000  Uiso   1.00
O1440  O     0.34236   0.99120   0.59427   0.00000  Uiso   1.00
N1441  N     0.02338   0.68722   0.39742   0.00000  Uiso   1.00
O1442  O     0.00723   0.67381   0.36693   0.00000  Uiso   1.00
O1443  O     0.05545   0.67506   0.40708   0.00000  Uiso   1.00
N1444  N     0.02157   0.81327   0.60264   0.00000  Uiso   1.00
O1445  O     0.00412   0.82656   0.63234   0.00000  Uiso   1.00
O1446  O     0.05387   0.82571   0.59428   0.00000  Uiso   1.00
N1447  N     0.30105   0.54290   0.39667   0.00000  Uiso   1.00
O1448  O     0.32295   0.52945   0.37055   0.00000  Uiso   1.00
O1449  O     0.29845   0.57809   0.40064   0.00000  Uiso   1.00
N1450  N     0.18443   0.98712   0.60328   0.00000  Uiso   1.00
O1451  O     0.18047   0.96369   0.63140   0.00000  Uiso   1.00
O1452  O     0.15761   0.50891   0.59467   0.00000  Uiso   1.00
N1453  N     0.21255   0.55551   0.89708   0.00000  Uiso   1.00
O1454  O     0.22708   0.57419   0.86885   0.00000  Uiso   1.00
O1455  O     0.17817   0.55987   0.90524   0.00000  Uiso   1.00
N1456  N     0.28645   0.94399   0.10347   0.00000  Uiso   1.00
O1457  O     0.32148   0.94115   0.09820   0.00000  Uiso   1.00
O1458  O     0.27078   0.92478   0.13059   0.00000  Uiso   1.00
N1459  N     0.43713   0.72643   0.89753   0.00000  Uiso   1.00
O1460  O     0.42398   0.74211   0.86663   0.00000  Uiso   1.00
O1461  O     0.42476   0.69456   0.90774   0.00000  Uiso   1.00
N1462  N     0.06259   0.72662   0.10232   0.00000  Uiso   1.00
O1463  O     0.07643   0.74347   0.13210   0.00000  Uiso   1.00
O1464  O     0.07429   0.69415   0.09351   0.00000  Uiso   1.00
N1465  N     0.28740   0.94445   0.89708   0.00000  Uiso   1.00
O1466  O     0.27287   0.92579   0.86886   0.00000  Uiso   1.00
O1467  O     0.32176   0.94005   0.90523   0.00000  Uiso   1.00
N1468  N     0.21318   0.55581   0.10336   0.00000  Uiso   1.00
O1469  O     0.17820   0.55857   0.09778   0.00000  Uiso   1.00
O1470  O     0.22857   0.57509   0.13057   0.00000  Uiso   1.00
N1471  N     0.06265   0.77356   0.89756   0.00000  Uiso   1.00
O1472  O     0.07588   0.75790   0.86668   0.00000  Uiso   1.00
O1473  O     0.07505   0.80538   0.90784   0.00000  Uiso   1.00
N1474  N     0.43687   0.77218   0.10272   0.00000  Uiso   1.00
O1475  O     0.42338   0.75477   0.13237   0.00000  Uiso   1.00
O1476  O     0.42472   0.80460   0.09441   0.00000  Uiso   1.00
Zn1477 Zn    0.70660   0.50000   0.21735   0.00000  Uiso   1.00
Zn1478 Zn    0.79341   0.50000   0.78265   0.00000  Uiso   1.00
Zn1479 Zn    0.50000   0.70660   0.21735   0.00000  Uiso   1.00
Zn1480 Zn    0.50000   0.79341   0.78265   0.00000  Uiso   1.00
Zn1481 Zn    0.79341   0.50000   0.21735   0.00000  Uiso   1.00
Zn1482 Zn    0.70660   0.50000   0.78265   0.00000  Uiso   1.00
Zn1483 Zn    0.50000   0.79341   0.21735   0.00000  Uiso   1.00
Zn1484 Zn    0.50000   0.70660   0.78265   0.00000  Uiso   1.00
Zn1485 Zn    0.95660   0.75000   0.71735   0.00000  Uiso   1.00
Zn1486 Zn    0.54341   0.75000   0.28265   0.00000  Uiso   1.00
Zn1487 Zn    0.75000   0.95660   0.71735   0.00000  Uiso   1.00
Zn1488 Zn    0.75000   0.54341   0.28265   0.00000  Uiso   1.00
Zn1489 Zn    0.54341   0.75000   0.71735   0.00000  Uiso   1.00
Zn1490 Zn    0.95660   0.75000   0.28265   0.00000  Uiso   1.00
Zn1491 Zn    0.75000   0.54341   0.71735   0.00000  Uiso   1.00
Zn1492 Zn    0.75000   0.95660   0.28265   0.00000  Uiso   1.00
C1493  C     0.99185   0.78228   0.41809   0.00000  Uiso   1.00
C1494  C     0.99268   0.71753   0.58182   0.00000  Uiso   1.00
C1495  C     0.72294   0.98062   0.41827   0.00000  Uiso   1.00
C1496  C     0.78164   0.51028   0.58224   0.00000  Uiso   1.00
C1497  C     0.50798   0.71767   0.41810   0.00000  Uiso   1.00
C1498  C     0.50735   0.78244   0.58177   0.00000  Uiso   1.00
C1499  C     0.77698   0.51951   0.41820   0.00000  Uiso   1.00
C1500  C     0.71829   0.98984   0.58231   0.00000  Uiso   1.00
C1501  C     0.73365   0.52902   0.91817   0.00000  Uiso   1.00
C1502  C     0.76613   0.97085   0.08207   0.00000  Uiso   1.00
C1503  C     0.96755   0.74201   0.91810   0.00000  Uiso   1.00
C1504  C     0.53215   0.74186   0.08165   0.00000  Uiso   1.00
C1505  C     0.76630   0.97094   0.91817   0.00000  Uiso   1.00
C1506  C     0.73379   0.52910   0.08204   0.00000  Uiso   1.00
C1507  C     0.53220   0.75794   0.91810   0.00000  Uiso   1.00
C1508  C     0.96754   0.75768   0.08179   0.00000  Uiso   1.00
C1509  C     0.99995   0.74999   0.39800   0.00000  Uiso   1.00
C1510  C     0.50003   0.74999   0.60189   0.00000  Uiso   1.00
C1511  C     0.74999   0.50002   0.39821   0.00000  Uiso   1.00
C1512  C     0.74998   0.50003   0.60222   0.00000  Uiso   1.00
C1513  C     0.74998   0.99998   0.89809   0.00000  Uiso   1.00
C1514  C     0.75000   0.50001   0.10204   0.00000  Uiso   1.00
C1515  C     0.99989   0.74999   0.89799   0.00000  Uiso   1.00
C1516  C     0.99992   0.74993   0.10185   0.00000  Uiso   1.00
O1517  O     0.75000   0.50000   0.25000   0.00000  Uiso   1.00
O1518  O     0.75000   0.50000   0.75000   0.00000  Uiso   1.00
O1519  O     0.50000   0.75000   0.25000   0.00000  Uiso   1.00
O1520  O     0.50000   0.75000   0.75000   0.00000  Uiso   1.00
O1521  O     0.75000   0.96964   0.33755   0.00000  Uiso   1.00
O1522  O     0.75000   0.53037   0.66245   0.00000  Uiso   1.00
O1523  O     0.53037   0.75000   0.33755   0.00000  Uiso   1.00
O1524  O     0.96964   0.75000   0.66245   0.00000  Uiso   1.00
O1525  O     0.75000   0.53037   0.33755   0.00000  Uiso   1.00
O1526  O     0.75000   0.96964   0.66245   0.00000  Uiso   1.00
O1527  O     0.96964   0.75000   0.33755   0.00000  Uiso   1.00
O1528  O     0.53037   0.75000   0.66245   0.00000  Uiso   1.00
O1529  O     0.50000   0.71964   0.83755   0.00000  Uiso   1.00
O1530  O     0.50000   0.78037   0.16245   0.00000  Uiso   1.00
O1531  O     0.78037   0.50000   0.83755   0.00000  Uiso   1.00
O1532  O     0.71964   0.50000   0.16245   0.00000  Uiso   1.00
O1533  O     0.50000   0.78037   0.83755   0.00000  Uiso   1.00
O1534  O     0.50000   0.71964   0.16245   0.00000  Uiso   1.00
O1535  O     0.71964   0.50000   0.83755   0.00000  Uiso   1.00
O1536  O     0.78037   0.50000   0.16245   0.00000  Uiso   1.00
O1537  O     0.70725   0.57308   0.27302   0.00000  Uiso   1.00
O1538  O     0.79276   0.92693   0.72698   0.00000  Uiso   1.00
O1539  O     0.92693   0.70725   0.27302   0.00000  Uiso   1.00
O1540  O     0.57308   0.79276   0.72698   0.00000  Uiso   1.00
O1541  O     0.79276   0.92693   0.27302   0.00000  Uiso   1.00
O1542  O     0.70725   0.57308   0.72698   0.00000  Uiso   1.00
O1543  O     0.57308   0.79276   0.27302   0.00000  Uiso   1.00
O1544  O     0.92693   0.70725   0.72698   0.00000  Uiso   1.00
O1545  O     0.70725   0.92693   0.72698   0.00000  Uiso   1.00
O1546  O     0.79276   0.57308   0.27302   0.00000  Uiso   1.00
O1547  O     0.92693   0.79276   0.72698   0.00000  Uiso   1.00
O1548  O     0.57308   0.70725   0.27302   0.00000  Uiso   1.00
O1549  O     0.79276   0.57308   0.72698   0.00000  Uiso   1.00
O1550  O     0.70725   0.92693   0.27302   0.00000  Uiso   1.00
O1551  O     0.57308   0.70725   0.72698   0.00000  Uiso   1.00
O1552  O     0.92693   0.79276   0.27302   0.00000  Uiso   1.00
O1553  O     0.95725   0.82308   0.77302   0.00000  Uiso   1.00
O1554  O     0.54276   0.67693   0.22698   0.00000  Uiso   1.00
O1555  O     0.67693   0.95725   0.77302   0.00000  Uiso   1.00
O1556  O     0.82308   0.54276   0.22698   0.00000  Uiso   1.00
O1557  O     0.54276   0.67693   0.77302   0.00000  Uiso   1.00
O1558  O     0.95725   0.82308   0.22698   0.00000  Uiso   1.00
O1559  O     0.82308   0.54276   0.77302   0.00000  Uiso   1.00
O1560  O     0.67693   0.95725   0.22698   0.00000  Uiso   1.00
O1561  O     0.95725   0.67693   0.22698   0.00000  Uiso   1.00
O1562  O     0.54276   0.82308   0.77302   0.00000  Uiso   1.00
O1563  O     0.67693   0.54276   0.22698   0.00000  Uiso   1.00
O1564  O     0.82308   0.95725   0.77302   0.00000  Uiso   1.00
O1565  O     0.54276   0.82308   0.22698   0.00000  Uiso   1.00
O1566  O     0.95725   0.67693   0.77302   0.00000  Uiso   1.00
O1567  O     0.82308   0.95725   0.22698   0.00000  Uiso   1.00
O1568  O     0.67693   0.54276   0.77302   0.00000  Uiso   1.00
C1569  C     0.50157   0.68313   0.47955   0.00000  Uiso   1.00
C1570  C     0.50093   0.81687   0.52021   0.00000  Uiso   1.00
C1571  C     0.80919   0.53142   0.48008   0.00000  Uiso   1.00
C1572  C     0.69056   0.96923   0.52083   0.00000  Uiso   1.00
C1573  C     0.99830   0.81682   0.47950   0.00000  Uiso   1.00
C1574  C     0.99901   0.68309   0.52027   0.00000  Uiso   1.00
C1575  C     0.69057   0.96903   0.48015   0.00000  Uiso   1.00
C1576  C     0.80922   0.53115   0.52075   0.00000  Uiso   1.00
C1577  C     0.77166   0.93674   0.97973   0.00000  Uiso   1.00
C1578  C     0.72806   0.56316   0.02044   0.00000  Uiso   1.00
C1579  C     0.56668   0.75089   0.97945   0.00000  Uiso   1.00
C1580  C     0.93299   0.75154   0.02025   0.00000  Uiso   1.00
C1581  C     0.72830   0.56322   0.97970   0.00000  Uiso   1.00
C1582  C     0.77191   0.93679   0.02048   0.00000  Uiso   1.00
C1583  C     0.93301   0.74881   0.97953   0.00000  Uiso   1.00
C1584  C     0.56668   0.74800   0.02014   0.00000  Uiso   1.00
C1585  C     0.75000   0.50000   0.35581   0.00000  Uiso   1.00
C1586  C     0.75000   0.50001   0.64434   0.00000  Uiso   1.00
C1587  C     0.99999   0.75000   0.35574   0.00000  Uiso   1.00
C1588  C     0.50001   0.75000   0.64423   0.00000  Uiso   1.00
C1589  C     0.99995   0.74999   0.85574   0.00000  Uiso   1.00
C1590  C     0.50000   0.74999   0.14421   0.00000  Uiso   1.00
C1591  C     0.74999   0.99999   0.85577   0.00000  Uiso   1.00
C1592  C     0.75000   0.50002   0.14428   0.00000  Uiso   1.00
C1593  C     0.68002   0.57006   0.25004   0.00000  Uiso   1.00
C1594  C     0.82004   0.93000   0.75013   0.00000  Uiso   1.00
C1595  C     0.93003   0.67996   0.24997   0.00000  Uiso   1.00
C1596  C     0.57019   0.81980   0.75020   0.00000  Uiso   1.00
C1597  C     0.81999   0.92994   0.25005   0.00000  Uiso   1.00
C1598  C     0.67996   0.57001   0.75014   0.00000  Uiso   1.00
C1599  C     0.57007   0.81996   0.24975   0.00000  Uiso   1.00
C1600  C     0.92982   0.68020   0.75021   0.00000  Uiso   1.00
C1601  C     0.67994   0.93002   0.75005   0.00000  Uiso   1.00
C1602  C     0.81992   0.57013   0.25000   0.00000  Uiso   1.00
C1603  C     0.92994   0.81995   0.75001   0.00000  Uiso   1.00
C1604  C     0.56979   0.67981   0.25021   0.00000  Uiso   1.00
C1605  C     0.82006   0.56998   0.75004   0.00000  Uiso   1.00
C1606  C     0.68009   0.92990   0.25008   0.00000  Uiso   1.00
C1607  C     0.57007   0.68005   0.75001   0.00000  Uiso   1.00
C1608  C     0.93021   0.82020   0.25021   0.00000  Uiso   1.00
C1609  C     0.63695   0.89054   0.21401   0.00000  Uiso   1.00
C1610  C     0.88482   0.58832   0.74331   0.00000  Uiso   1.00
C1611  C     0.58825   0.61527   0.25768   0.00000  Uiso   1.00
C1612  C     0.89165   0.86450   0.78536   0.00000  Uiso   1.00
C1613  C     0.86487   0.60806   0.21446   0.00000  Uiso   1.00
C1614  C     0.61519   0.91168   0.74328   0.00000  Uiso   1.00
C1615  C     0.91175   0.88472   0.25768   0.00000  Uiso   1.00
C1616  C     0.60831   0.63547   0.78537   0.00000  Uiso   1.00
C1617  C     0.63413   0.60734   0.78520   0.00000  Uiso   1.00
C1618  C     0.88460   0.91175   0.25752   0.00000  Uiso   1.00
C1619  C     0.58848   0.88415   0.74146   0.00000  Uiso   1.00
C1620  C     0.89228   0.63476   0.21453   0.00000  Uiso   1.00
C1621  C     0.86583   0.89263   0.78519   0.00000  Uiso   1.00
C1622  C     0.61541   0.58826   0.25754   0.00000  Uiso   1.00
C1623  C     0.91154   0.61584   0.74152   0.00000  Uiso   1.00
C1624  C     0.60976   0.86380   0.21380   0.00000  Uiso   1.00
C1625  C     0.86538   0.66166   0.75831   0.00000  Uiso   1.00
C1626  C     0.61451   0.85826   0.28479   0.00000  Uiso   1.00
C1627  C     0.85840   0.88552   0.71461   0.00000  Uiso   1.00
C1628  C     0.66174   0.63492   0.24389   0.00000  Uiso   1.00
C1629  C     0.63461   0.83834   0.75834   0.00000  Uiso   1.00
C1630  C     0.88479   0.64234   0.28503   0.00000  Uiso   1.00
C1631  C     0.64167   0.61454   0.71462   0.00000  Uiso   1.00
C1632  C     0.83827   0.86509   0.24392   0.00000  Uiso   1.00
C1633  C     0.86577   0.83837   0.24209   0.00000  Uiso   1.00
C1634  C     0.61509   0.64204   0.71468   0.00000  Uiso   1.00
C1635  C     0.85646   0.61680   0.28472   0.00000  Uiso   1.00
C1636  C     0.66164   0.86550   0.75818   0.00000  Uiso   1.00
C1637  C     0.63424   0.66165   0.24211   0.00000  Uiso   1.00
C1638  C     0.88498   0.85801   0.71467   0.00000  Uiso   1.00
C1639  C     0.64305   0.88360   0.28466   0.00000  Uiso   1.00
C1640  C     0.83835   0.63450   0.75813   0.00000  Uiso   1.00
C1641  C     0.50304   0.71653   0.45886   0.00000  Uiso   1.00
C1642  C     0.50262   0.78349   0.54098   0.00000  Uiso   1.00
C1643  C     0.77912   0.51700   0.45915   0.00000  Uiso   1.00
C1644  C     0.71940   0.98604   0.54147   0.00000  Uiso   1.00
C1645  C     0.99682   0.78342   0.45884   0.00000  Uiso   1.00
C1646  C     0.99736   0.71647   0.54102   0.00000  Uiso   1.00
C1647  C     0.72073   0.98330   0.45920   0.00000  Uiso   1.00
C1648  C     0.78045   0.51420   0.54142   0.00000  Uiso   1.00
C1649  C     0.76309   0.96904   0.95905   0.00000  Uiso   1.00
C1650  C     0.73679   0.53092   0.04116   0.00000  Uiso   1.00
C1651  C     0.53330   0.75281   0.95882   0.00000  Uiso   1.00
C1652  C     0.96638   0.75292   0.04099   0.00000  Uiso   1.00
C1653  C     0.73687   0.53091   0.95903   0.00000  Uiso   1.00
C1654  C     0.76317   0.96903   0.04118   0.00000  Uiso   1.00
C1655  C     0.96640   0.74706   0.95884   0.00000  Uiso   1.00
C1656  C     0.53329   0.74672   0.04090   0.00000  Uiso   1.00
C1657  C     0.59820   0.84803   0.24935   0.00000  Uiso   1.00
C1658  C     0.90172   0.65213   0.74982   0.00000  Uiso   1.00
C1659  C     0.65193   0.59821   0.25047   0.00000  Uiso   1.00
C1660  C     0.84868   0.90243   0.74996   0.00000  Uiso   1.00
C1661  C     0.90205   0.65176   0.24985   0.00000  Uiso   1.00
C1662  C     0.59829   0.84786   0.74979   0.00000  Uiso   1.00
C1663  C     0.84808   0.90180   0.25047   0.00000  Uiso   1.00
C1664  C     0.65132   0.59758   0.74997   0.00000  Uiso   1.00
C1665  C     0.59838   0.65217   0.75003   0.00000  Uiso   1.00
C1666  C     0.90214   0.84829   0.24979   0.00000  Uiso   1.00
C1667  C     0.65179   0.90194   0.75048   0.00000  Uiso   1.00
C1668  C     0.84738   0.59890   0.24969   0.00000  Uiso   1.00
C1669  C     0.90163   0.84784   0.75003   0.00000  Uiso   1.00
C1670  C     0.59785   0.65172   0.24980   0.00000  Uiso   1.00
C1671  C     0.84820   0.59807   0.75044   0.00000  Uiso   1.00
C1672  C     0.65303   0.90083   0.24954   0.00000  Uiso   1.00
C1673  C     0.99995   0.74998   0.47941   0.00000  Uiso   1.00
C1674  C     0.99998   0.74998   0.52046   0.00000  Uiso   1.00
C1675  C     0.74993   0.50014   0.47973   0.00000  Uiso   1.00
C1676  C     0.74992   0.50013   0.52084   0.00000  Uiso   1.00
C1677  C     0.74999   0.99998   0.97958   0.00000  Uiso   1.00
C1678  C     0.74999   0.99998   0.02063   0.00000  Uiso   1.00
C1679  C     0.99984   0.74993   0.97938   0.00000  Uiso   1.00
C1680  C     0.99983   0.74988   0.02041   0.00000  Uiso   1.00
N1681  N     0.99974   0.64887   0.45944   0.00000  Uiso   1.00
O1682  O     0.97140   0.64120   0.43822   0.00000  Uiso   1.00
O1683  O     0.52425   0.62386   0.46566   0.00000  Uiso   1.00
N1684  N     0.99917   0.85119   0.54020   0.00000  Uiso   1.00
O1685  O     0.97046   0.85930   0.56070   0.00000  Uiso   1.00
O1686  O     0.52400   0.87593   0.53422   0.00000  Uiso   1.00
N1687  N     0.84115   0.54465   0.46052   0.00000  Uiso   1.00
O1688  O     0.86337   0.52159   0.44419   0.00000  Uiso   1.00
O1689  O     0.85080   0.57866   0.46393   0.00000  Uiso   1.00
N1690  N     0.66224   0.94966   0.54080   0.00000  Uiso   1.00
O1691  O     0.67017   0.92006   0.55989   0.00000  Uiso   1.00
O1692  O     0.62824   0.95901   0.53649   0.00000  Uiso   1.00
N1693  N     0.50006   0.85109   0.45934   0.00000  Uiso   1.00
O1694  O     0.52834   0.85876   0.43800   0.00000  Uiso   1.00
O1695  O     0.97556   0.87609   0.46565   0.00000  Uiso   1.00
N1696  N     0.50079   0.64877   0.54029   0.00000  Uiso   1.00
O1697  O     0.52953   0.64066   0.56072   0.00000  Uiso   1.00
O1698  O     0.97595   0.62403   0.53441   0.00000  Uiso   1.00
N1699  N     0.65849   0.95613   0.46062   0.00000  Uiso   1.00
O1700  O     0.63669   0.97938   0.44399   0.00000  Uiso   1.00
O1701  O     0.64839   0.92225   0.46417   0.00000  Uiso   1.00
N1702  N     0.83746   0.55082   0.54071   0.00000  Uiso   1.00
O1703  O     0.82937   0.58026   0.55998   0.00000  Uiso   1.00
O1704  O     0.87151   0.54171   0.53624   0.00000  Uiso   1.00
N1705  N     0.77453   0.90238   0.95990   0.00000  Uiso   1.00
O1706  O     0.74635   0.88908   0.94183   0.00000  Uiso   1.00
O1707  O     0.80459   0.88358   0.96132   0.00000  Uiso   1.00
N1708  N     0.72448   0.59742   0.04028   0.00000  Uiso   1.00
O1709  O     0.69351   0.61474   0.04034   0.00000  Uiso   1.00
O1710  O     0.75274   0.61202   0.05703   0.00000  Uiso   1.00
N1711  N     0.60092   0.74889   0.95928   0.00000  Uiso   1.00
O1712  O     0.60825   0.72070   0.93768   0.00000  Uiso   1.00
O1713  O     0.62621   0.77304   0.96579   0.00000  Uiso   1.00
N1714  N     0.89867   0.75017   0.04028   0.00000  Uiso   1.00
O1715  O     0.89027   0.72160   0.06087   0.00000  Uiso   1.00
O1716  O     0.87418   0.77523   0.03425   0.00000  Uiso   1.00
N1717  N     0.72542   0.59757   0.95985   0.00000  Uiso   1.00
O1718  O     0.75361   0.61089   0.94175   0.00000  Uiso   1.00
O1719  O     0.69534   0.61634   0.96123   0.00000  Uiso   1.00
N1720  N     0.77553   0.90254   0.04032   0.00000  Uiso   1.00
O1721  O     0.80654   0.88530   0.04044   0.00000  Uiso   1.00
O1722  O     0.74724   0.88779   0.05692   0.00000  Uiso   1.00
N1723  N     0.89878   0.75077   0.95940   0.00000  Uiso   1.00
O1724  O     0.89138   0.77898   0.93783   0.00000  Uiso   1.00
O1725  O     0.87355   0.72654   0.96587   0.00000  Uiso   1.00
N1726  N     0.60101   0.74909   0.04014   0.00000  Uiso   1.00
O1727  O     0.60956   0.77753   0.06084   0.00000  Uiso   1.00
O1728  O     0.62537   0.72393   0.03398   0.00000  Uiso   1.00
N1729  N     0.64816   0.90724   0.17839   0.00000  Uiso   1.00
H1730  H     0.62800   0.90978   0.15767   0.00000  Uiso   1.00
C1731  C     0.68219   0.89388   0.16243   0.00000  Uiso   1.00
H1732  H     0.67907   0.86528   0.15247   0.00000  Uiso   1.00
H1733  H     0.70440   0.89528   0.18430   0.00000  Uiso   1.00
H1734  H     0.69016   0.91098   0.13716   0.00000  Uiso   1.00
N1735  N     0.89381   0.55127   0.73494   0.00000  Uiso   1.00
H1736  H     0.91018   0.54784   0.71084   0.00000  Uiso   1.00
C1737  C     0.90605   0.52998   0.76797   0.00000  Uiso   1.00
H1738  H     0.93367   0.53861   0.77732   0.00000  Uiso   1.00
H1739  H     0.90712   0.50074   0.75967   0.00000  Uiso   1.00
H1740  H     0.88721   0.53293   0.79301   0.00000  Uiso   1.00
N1741  N     0.55141   0.60635   0.26708   0.00000  Uiso   1.00
H1742  H     0.54768   0.59060   0.29158   0.00000  Uiso   1.00
C1743  C     0.52796   0.59669   0.23478   0.00000  Uiso   1.00
H1744  H     0.52075   0.56732   0.23624   0.00000  Uiso   1.00
H1745  H     0.54113   0.60232   0.20624   0.00000  Uiso   1.00
H1746  H     0.50239   0.61277   0.23664   0.00000  Uiso   1.00
N1747  N     0.90745   0.85253   0.82106   0.00000  Uiso   1.00
H1748  H     0.91262   0.87276   0.84107   0.00000  Uiso   1.00
C1749  C     0.89006   0.82090   0.83806   0.00000  Uiso   1.00
H1750  H     0.86135   0.82719   0.84592   0.00000  Uiso   1.00
H1751  H     0.90496   0.81287   0.86480   0.00000  Uiso   1.00
H1752  H     0.89058   0.79759   0.81744   0.00000  Uiso   1.00
N1753  N     0.85363   0.59138   0.17889   0.00000  Uiso   1.00
H1754  H     0.87337   0.58455   0.15888   0.00000  Uiso   1.00
C1755  C     0.81925   0.60342   0.16253   0.00000  Uiso   1.00
H1756  H     0.82419   0.61860   0.13509   0.00000  Uiso   1.00
H1757  H     0.80394   0.62134   0.18291   0.00000  Uiso   1.00
H1758  H     0.80219   0.57922   0.15586   0.00000  Uiso   1.00
N1759  N     0.60621   0.94873   0.73489   0.00000  Uiso   1.00
H1760  H     0.58989   0.95216   0.71077   0.00000  Uiso   1.00
C1761  C     0.59392   0.97001   0.76789   0.00000  Uiso   1.00
H1762  H     0.56630   0.96134   0.77725   0.00000  Uiso   1.00
H1763  H     0.59282   0.99925   0.75956   0.00000  Uiso   1.00
H1764  H     0.61274   0.96708   0.79293   0.00000  Uiso   1.00
N1765  N     0.94857   0.89362   0.26712   0.00000  Uiso   1.00
H1766  H     0.95227   0.90935   0.29163   0.00000  Uiso   1.00
C1767  C     0.97209   0.90330   0.23484   0.00000  Uiso   1.00
H1768  H     0.97931   0.93267   0.23631   0.00000  Uiso   1.00
H1769  H     0.95897   0.89770   0.20629   0.00000  Uiso   1.00
H1770  H     0.99765   0.88721   0.23673   0.00000  Uiso   1.00
N1771  N     0.59246   0.64741   0.82107   0.00000  Uiso   1.00
H1772  H     0.58728   0.62715   0.84107   0.00000  Uiso   1.00
C1773  C     0.60980   0.67904   0.83807   0.00000  Uiso   1.00
H1774  H     0.63850   0.67275   0.84596   0.00000  Uiso   1.00
H1775  H     0.59484   0.68705   0.86478   0.00000  Uiso   1.00
H1776  H     0.60932   0.70236   0.81744   0.00000  Uiso   1.00
N1777  N     0.64415   0.58993   0.82072   0.00000  Uiso   1.00
H1778  H     0.65069   0.60723   0.84329   0.00000  Uiso   1.00
C1779  C     0.62163   0.55919   0.83220   0.00000  Uiso   1.00
H1780  H     0.63945   0.53598   0.84042   0.00000  Uiso   1.00
H1781  H     0.60340   0.55013   0.80825   0.00000  Uiso   1.00
H1782  H     0.60464   0.56652   0.85777   0.00000  Uiso   1.00
N1783  N     0.89343   0.94879   0.26600   0.00000  Uiso   1.00
H1784  H     0.90890   0.95308   0.29057   0.00000  Uiso   1.00
C1785  C     0.90362   0.97136   0.23314   0.00000  Uiso   1.00
H1786  H     0.93309   0.97810   0.23451   0.00000  Uiso   1.00
H1787  H     0.88796   0.99724   0.23428   0.00000  Uiso   1.00
H1788  H     0.89784   0.95768   0.20493   0.00000  Uiso   1.00
N1789  N     0.55186   0.89235   0.73046   0.00000  Uiso   1.00
H1790  H     0.54197   0.91703   0.74001   0.00000  Uiso   1.00
C1791  C     0.54390   0.88583   0.68986   0.00000  Uiso   1.00
H1792  H     0.51439   0.89029   0.68448   0.00000  Uiso   1.00
H1793  H     0.55071   0.85732   0.68181   0.00000  Uiso   1.00
H1794  H     0.55978   0.90482   0.67121   0.00000  Uiso   1.00
N1795  N     0.90928   0.64571   0.17909   0.00000  Uiso   1.00
H1796  H     0.91645   0.62497   0.16042   0.00000  Uiso   1.00
C1797  C     0.89223   0.67639   0.15995   0.00000  Uiso   1.00
H1798  H     0.90814   0.68364   0.13359   0.00000  Uiso   1.00
H1799  H     0.89159   0.70039   0.17962   0.00000  Uiso   1.00
H1800  H     0.86399   0.66944   0.15106   0.00000  Uiso   1.00
N1801  N     0.85577   0.91002   0.82072   0.00000  Uiso   1.00
H1802  H     0.84919   0.89270   0.84327   0.00000  Uiso   1.00
C1803  C     0.87830   0.94072   0.83221   0.00000  Uiso   1.00
H1804  H     0.86049   0.96396   0.84039   0.00000  Uiso   1.00
H1805  H     0.89661   0.94977   0.80829   0.00000  Uiso   1.00
H1806  H     0.89522   0.93338   0.85782   0.00000  Uiso   1.00
N1807  N     0.60658   0.55121   0.26607   0.00000  Uiso   1.00
H1808  H     0.59112   0.54693   0.29068   0.00000  Uiso   1.00
C1809  C     0.59638   0.52864   0.23325   0.00000  Uiso   1.00
H1810  H     0.61207   0.50278   0.23436   0.00000  Uiso   1.00
H1811  H     0.60210   0.54233   0.20502   0.00000  Uiso   1.00
H1812  H     0.56691   0.52186   0.23472   0.00000  Uiso   1.00
N1813  N     0.94818   0.60764   0.73056   0.00000  Uiso   1.00
H1814  H     0.95805   0.58296   0.74015   0.00000  Uiso   1.00
C1815  C     0.95622   0.61416   0.68997   0.00000  Uiso   1.00
H1816  H     0.98575   0.60972   0.68462   0.00000  Uiso   1.00
H1817  H     0.94941   0.64267   0.68189   0.00000  Uiso   1.00
H1818  H     0.94039   0.59517   0.67132   0.00000  Uiso   1.00
N1819  N     0.59540   0.85244   0.17727   0.00000  Uiso   1.00
H1820  H     0.56784   0.85660   0.17353   0.00000  Uiso   1.00
C1821  C     0.60855   0.81769   0.16321   0.00000  Uiso   1.00
H1822  H     0.59987   0.81403   0.13256   0.00000  Uiso   1.00
H1823  H     0.59728   0.79506   0.18093   0.00000  Uiso   1.00
H1824  H     0.63878   0.81657   0.16435   0.00000  Uiso   1.00
N1825  N     0.85661   0.69838   0.76831   0.00000  Uiso   1.00
H1826  H     0.84109   0.70183   0.79303   0.00000  Uiso   1.00
C1827  C     0.84670   0.72226   0.73643   0.00000  Uiso   1.00
H1828  H     0.81734   0.72943   0.73825   0.00000  Uiso   1.00
H1829  H     0.85213   0.70949   0.70767   0.00000  Uiso   1.00
H1830  H     0.86279   0.74783   0.73854   0.00000  Uiso   1.00
N1831  N     0.60192   0.84304   0.32056   0.00000  Uiso   1.00
H1832  H     0.62189   0.83746   0.34075   0.00000  Uiso   1.00
C1833  C     0.57072   0.86147   0.33718   0.00000  Uiso   1.00
H1834  H     0.57776   0.89010   0.34463   0.00000  Uiso   1.00
H1835  H     0.56221   0.84713   0.36411   0.00000  Uiso   1.00
H1836  H     0.54748   0.86130   0.31647   0.00000  Uiso   1.00
N1837  N     0.84247   0.89754   0.67894   0.00000  Uiso   1.00
H1838  H     0.83659   0.87834   0.65803   0.00000  Uiso   1.00
C1839  C     0.85440   0.93260   0.66419   0.00000  Uiso   1.00
H1840  H     0.86906   0.92890   0.63622   0.00000  Uiso   1.00
H1841  H     0.87282   0.94684   0.68492   0.00000  Uiso   1.00
H1842  H     0.83017   0.95007   0.65907   0.00000  Uiso   1.00
N1843  N     0.69885   0.64402   0.23601   0.00000  Uiso   1.00
H1844  H     0.70251   0.66062   0.21213   0.00000  Uiso   1.00
C1845  C     0.71982   0.65594   0.26938   0.00000  Uiso   1.00
H1846  H     0.71121   0.68353   0.27887   0.00000  Uiso   1.00
H1847  H     0.74913   0.65696   0.26140   0.00000  Uiso   1.00
H1848  H     0.71652   0.63693   0.29423   0.00000  Uiso   1.00
N1849  N     0.64336   0.80161   0.76838   0.00000  Uiso   1.00
H1850  H     0.65884   0.79816   0.79311   0.00000  Uiso   1.00
C1851  C     0.65327   0.77771   0.73654   0.00000  Uiso   1.00
H1852  H     0.68260   0.77044   0.73841   0.00000  Uiso   1.00
H1853  H     0.64797   0.79051   0.70775   0.00000  Uiso   1.00
H1854  H     0.63709   0.75220   0.73862   0.00000  Uiso   1.00
N1855  N     0.89633   0.65847   0.32073   0.00000  Uiso   1.00
H1856  H     0.87583   0.66427   0.34025   0.00000  Uiso   1.00
C1857  C     0.92735   0.64084   0.33864   0.00000  Uiso   1.00
H1858  H     0.92039   0.61240   0.34699   0.00000  Uiso   1.00
H1859  H     0.93527   0.65610   0.36519   0.00000  Uiso   1.00
H1860  H     0.95098   0.64054   0.31841   0.00000  Uiso   1.00
N1861  N     0.65766   0.60258   0.67896   0.00000  Uiso   1.00
H1862  H     0.66358   0.62181   0.65808   0.00000  Uiso   1.00
C1863  C     0.64575   0.56755   0.66416   0.00000  Uiso   1.00
H1864  H     0.63117   0.57131   0.63616   0.00000  Uiso   1.00
H1865  H     0.62726   0.55329   0.68484   0.00000  Uiso   1.00
H1866  H     0.66998   0.55008   0.65908   0.00000  Uiso   1.00
N1867  N     0.80114   0.85599   0.23617   0.00000  Uiso   1.00
H1868  H     0.79743   0.83940   0.21231   0.00000  Uiso   1.00
C1869  C     0.78025   0.84407   0.26963   0.00000  Uiso   1.00
H1870  H     0.78883   0.81644   0.27904   0.00000  Uiso   1.00
H1871  H     0.75090   0.84314   0.26181   0.00000  Uiso   1.00
H1872  H     0.78369   0.86303   0.29449   0.00000  Uiso   1.00
N1873  N     0.85745   0.80160   0.23170   0.00000  Uiso   1.00
H1874  H     0.83287   0.79183   0.24169   0.00000  Uiso   1.00
C1875  C     0.86360   0.79312   0.19116   0.00000  Uiso   1.00
H1876  H     0.85918   0.76351   0.18627   0.00000  Uiso   1.00
H1877  H     0.89201   0.79990   0.18266   0.00000  Uiso   1.00
H1878  H     0.84439   0.80869   0.17250   0.00000  Uiso   1.00
N1879  N     0.60396   0.65881   0.67919   0.00000  Uiso   1.00
H1880  H     0.62468   0.66629   0.66061   0.00000  Uiso   1.00
C1881  C     0.57366   0.64120   0.65998   0.00000  Uiso   1.00
H1882  H     0.56629   0.65692   0.63355   0.00000  Uiso   1.00
H1883  H     0.54960   0.64022   0.67959   0.00000  Uiso   1.00
H1884  H     0.58111   0.61306   0.65118   0.00000  Uiso   1.00
N1885  N     0.83775   0.60819   0.31991   0.00000  Uiso   1.00
H1886  H     0.85425   0.60149   0.34310   0.00000  Uiso   1.00
C1887  C     0.80779   0.63235   0.32990   0.00000  Uiso   1.00
H1888  H     0.78276   0.61597   0.33481   0.00000  Uiso   1.00
H1889  H     0.80212   0.65247   0.30646   0.00000  Uiso   1.00
H1890  H     0.81411   0.64748   0.35705   0.00000  Uiso   1.00
N1891  N     0.69857   0.85676   0.76727   0.00000  Uiso   1.00
H1892  H     0.70257   0.84145   0.79203   0.00000  Uiso   1.00
C1893  C     0.72156   0.84641   0.73482   0.00000  Uiso   1.00
H1894  H     0.74759   0.86179   0.73649   0.00000  Uiso   1.00
H1895  H     0.70842   0.85242   0.70637   0.00000  Uiso   1.00
H1896  H     0.72793   0.81684   0.73626   0.00000  Uiso   1.00
N1897  N     0.64257   0.69845   0.23183   0.00000  Uiso   1.00
H1898  H     0.66713   0.70820   0.24183   0.00000  Uiso   1.00
C1899  C     0.63644   0.70709   0.19132   0.00000  Uiso   1.00
H1900  H     0.64066   0.73675   0.18657   0.00000  Uiso   1.00
H1901  H     0.60810   0.70013   0.18277   0.00000  Uiso   1.00
H1902  H     0.65578   0.69173   0.17261   0.00000  Uiso   1.00
N1903  N     0.89615   0.84128   0.67918   0.00000  Uiso   1.00
H1904  H     0.87545   0.83383   0.66059   0.00000  Uiso   1.00
C1905  C     0.92648   0.85890   0.65999   0.00000  Uiso   1.00
H1906  H     0.93388   0.84322   0.63356   0.00000  Uiso   1.00
H1907  H     0.95051   0.85985   0.67961   0.00000  Uiso   1.00
H1908  H     0.91906   0.88706   0.65121   0.00000  Uiso   1.00
N1909  N     0.66118   0.89258   0.32005   0.00000  Uiso   1.00
H1910  H     0.64434   0.89950   0.34290   0.00000  Uiso   1.00
C1911  C     0.69098   0.86851   0.33076   0.00000  Uiso   1.00
H1912  H     0.71589   0.88494   0.33604   0.00000  Uiso   1.00
H1913  H     0.69715   0.84831   0.30753   0.00000  Uiso   1.00
H1914  H     0.68417   0.85346   0.35785   0.00000  Uiso   1.00
N1915  N     0.80140   0.64323   0.76718   0.00000  Uiso   1.00
H1916  H     0.79737   0.65850   0.79196   0.00000  Uiso   1.00
C1917  C     0.77848   0.65366   0.73472   0.00000  Uiso   1.00
H1918  H     0.77180   0.68314   0.73642   0.00000  Uiso   1.00
H1919  H     0.75260   0.63802   0.73610   0.00000  Uiso   1.00
H1920  H     0.79183   0.64807   0.70628   0.00000  Uiso   1.00
N1921  N     0.97626   0.81267   0.39746   0.00000  Uiso   1.00
O1922  O     0.99215   0.82603   0.36676   0.00000  Uiso   1.00
O1923  O     0.94423   0.82479   0.40736   0.00000  Uiso   1.00
N1924  N     0.97850   0.68670   0.60276   0.00000  Uiso   1.00
O1925  O     0.99600   0.67341   0.63242   0.00000  Uiso   1.00
O1926  O     0.94618   0.67427   0.59451   0.00000  Uiso   1.00
N1927  N     0.69895   0.95708   0.39687   0.00000  Uiso   1.00
O1928  O     0.67720   0.97033   0.37051   0.00000  Uiso   1.00
O1929  O     0.70123   0.92194   0.40149   0.00000  Uiso   1.00
N1930  N     0.81555   0.51292   0.60310   0.00000  Uiso   1.00
O1931  O     0.81955   0.53620   0.63133   0.00000  Uiso   1.00
O1932  O     0.84236   0.99120   0.59427   0.00000  Uiso   1.00
N1933  N     0.52338   0.68722   0.39742   0.00000  Uiso   1.00
O1934  O     0.50723   0.67381   0.36693   0.00000  Uiso   1.00
O1935  O     0.55545   0.67506   0.40708   0.00000  Uiso   1.00
N1936  N     0.52157   0.81327   0.60264   0.00000  Uiso   1.00
O1937  O     0.50412   0.82656   0.63234   0.00000  Uiso   1.00
O1938  O     0.55387   0.82571   0.59428   0.00000  Uiso   1.00
N1939  N     0.80105   0.54290   0.39667   0.00000  Uiso   1.00
O1940  O     0.82295   0.52945   0.37055   0.00000  Uiso   1.00
O1941  O     0.79845   0.57809   0.40064   0.00000  Uiso   1.00
N1942  N     0.68443   0.98712   0.60328   0.00000  Uiso   1.00
O1943  O     0.68047   0.96369   0.63140   0.00000  Uiso   1.00
O1944  O     0.65761   0.50891   0.59467   0.00000  Uiso   1.00
N1945  N     0.71255   0.55551   0.89708   0.00000  Uiso   1.00
O1946  O     0.72708   0.57419   0.86885   0.00000  Uiso   1.00
O1947  O     0.67817   0.55987   0.90524   0.00000  Uiso   1.00
N1948  N     0.78645   0.94399   0.10347   0.00000  Uiso   1.00
O1949  O     0.82148   0.94115   0.09820   0.00000  Uiso   1.00
O1950  O     0.77078   0.92478   0.13059   0.00000  Uiso   1.00
N1951  N     0.93713   0.72643   0.89753   0.00000  Uiso   1.00
O1952  O     0.92398   0.74211   0.86663   0.00000  Uiso   1.00
O1953  O     0.92476   0.69456   0.90774   0.00000  Uiso   1.00
N1954  N     0.56259   0.72662   0.10232   0.00000  Uiso   1.00
O1955  O     0.57643   0.74347   0.13210   0.00000  Uiso   1.00
O1956  O     0.57429   0.69415   0.09351   0.00000  Uiso   1.00
N1957  N     0.78740   0.94445   0.89708   0.00000  Uiso   1.00
O1958  O     0.77287   0.92579   0.86886   0.00000  Uiso   1.00
O1959  O     0.82176   0.94005   0.90523   0.00000  Uiso   1.00
N1960  N     0.71318   0.55581   0.10336   0.00000  Uiso   1.00
O1961  O     0.67820   0.55857   0.09778   0.00000  Uiso   1.00
O1962  O     0.72857   0.57509   0.13057   0.00000  Uiso   1.00
N1963  N     0.56265   0.77356   0.89756   0.00000  Uiso   1.00
O1964  O     0.57588   0.75790   0.86668   0.00000  Uiso   1.00
O1965  O     0.57505   0.80538   0.90784   0.00000  Uiso   1.00
N1966  N     0.93687   0.77218   0.10272   0.00000  Uiso   1.00
O1967  O     0.92338   0.75477   0.13237   0.00000  Uiso   1.00
O1968  O     0.92472   0.80460   0.09441   0.00000  Uiso   1.00
loop_
_geom_bond_atom_site_label_1
_geom_bond_atom_site_label_2
_geom_bond_distance
_geom_bond_site_symmetry_2
_ccdc_geom_bond_type
Zn1    O87     1.936   .     S
Zn1    O56     1.948   .     S
Zn1    O41     1.948   .     S
Zn1    O1068   1.936   1_545 S
Zn2    O55     1.948   .     S
Zn2    O83     1.936   .     S
Zn2    O42     1.948   .     S
Zn2    O1072   1.936   1_545 S
Zn3    O43     1.948   .     S
Zn3    O58     1.948   .     S
Zn3    O78     1.937   .     S
Zn3    O577    1.936   1_455 S
Zn4    O86     1.936   .     S
Zn4    O44     1.948   .     S
Zn4    O57     1.948   .     S
Zn4    O569    1.937   1_455 S
Zn5    O60     1.948   .     S
Zn5    O80     1.936   .     S
Zn5    O41     1.947   .     S
Zn5    O1075   1.936   1_545 S
Zn6    O42     1.947   .     S
Zn6    O59     1.948   .     S
Zn6    O92     1.936   .     S
Zn6    O1063   1.936   1_545 S
Zn7    O43     1.947   .     S
Zn7    O54     1.948   .     S
Zn7    O89     1.937   .     S
Zn7    O574    1.936   1_455 S
Zn8    O53     1.948   .     S
Zn8    O81     1.936   .     S
Zn8    O44     1.947   .     S
Zn8    O582    1.937   1_455 S
Zn9    O48     1.948   .     S
Zn9    O71     1.936   .     S
Zn9    O68     1.936   .     S
Zn9    O536    1.948   .     S
Zn10   O47     1.948   .     S
Zn10   O72     1.936   .     S
Zn10   O67     1.936   .     S
Zn10   O43     1.948   .     S
Zn11   O62     1.937   .     S
Zn11   O69     1.936   .     S
Zn11   O50     1.948   .     S
Zn11   O1026   1.948   .     S
Zn12   O49     1.948   .     S
Zn12   O70     1.936   .     S
Zn12   O61     1.937   .     S
Zn12   O41     1.948   .     S
Zn13   O44     1.947   .     S
Zn13   O75     1.936   .     S
Zn13   O64     1.936   .     S
Zn13   O52     1.948   .     S
Zn14   O51     1.948   .     S
Zn14   O76     1.936   .     S
Zn14   O63     1.936   .     S
Zn14   O535    1.947   .     S
Zn15   O42     1.947   .     S
Zn15   O66     1.936   .     S
Zn15   O46     1.948   .     S
Zn15   O73     1.937   .     S
Zn16   O45     1.948   .     S
Zn16   O65     1.936   .     S
Zn16   O74     1.937   .     S
Zn16   O1025   1.947   .     S
C17    N445    1.439   .     S
C17    C33     1.403   .     A
C17    C169    1.414   .     A
C18    C170    1.414   .     A
C18    N448    1.437   .     S
C18    C526    1.402   .     S
C19    N451    1.436   .     S
C19    C171    1.413   .     A
C19    C1019   1.401   .     S
C20    C172    1.412   .     A
C20    C36     1.400   .     A
C20    N454    1.439   .     S
C21    C165    1.414   .     A
C21    N457    1.439   .     S
C21    C525    1.403   1_455 S
C22    N460    1.437   .     S
C22    C166    1.414   .     A
C22    C34     1.402   .     A
C23    C167    1.414   .     A
C23    N463    1.436   .     S
C23    C35     1.401   .     A
C24    C168    1.412   .     A
C24    N466    1.439   .     S
C24    C1020   1.400   .     S
C25    N469    1.438   .     S
C25    C177    1.412   .     A
C25    C1021   1.403   1_545 S
C26    N472    1.438   .     S
C26    C178    1.412   .     A
C26    C1022   1.401   .     S
C27    C179    1.414   .     A
C27    C39     1.403   .     A
C27    N475    1.439   .     S
C28    C180    1.413   .     A
C28    N478    1.437   .     S
C28    C532    1.402   1_455 S
C29    N481    1.438   .     S
C29    C37     1.403   .     A
C29    C173    1.412   .     A
C30    C38     1.401   .     A
C30    C174    1.412   .     A
C30    N484    1.438   .     S
C31    N487    1.439   .     S
C31    C175    1.414   .     A
C31    C531    1.403   1_455 S
C32    C176    1.415   .     A
C32    N490    1.437   .     S
C32    C40     1.402   .     A
C33    C111    1.453   .     S
C33    C513    1.403   .     S
C34    C112    1.456   .     S
C34    C510    1.402   1_455 S
C35    C1003   1.401   1_545 S
C35    C109    1.458   .     S
C36    C110    1.449   .     S
C36    C1008   1.400   1_545 S
C37    C115    1.456   .     S
C37    C1009   1.403   .     S
C38    C116    1.453   .     S
C38    C1010   1.401   1_545 S
C39    C113    1.453   .     S
C39    C523    1.403   .     S
C40    C606    1.457   .     S
C40    C520    1.402   .     S
O41    Zn1000  1.947   1_545 S
O42    Zn995   1.948   1_545 S
O43    Zn506   1.947   1_455 S
O44    Zn501   1.948   1_455 S
O45    C1093   1.278   .     A
O46    C110    1.276   .     A
O47    C603    1.277   1_455 S
O48    C604    1.278   .     S
O49    C109    1.278   .     S
O50    C1094   1.276   .     S
O51    C111    1.277   .     A
O52    C112    1.278   .     A
O53    C605    1.277   1_455 S
O54    C114    1.278   .     S
O55    C1099   1.278   1_545 S
O56    C116    1.277   .     A
O57    C605    1.277   1_455 S
O58    C114    1.277   .     S
O59    C1099   1.278   1_545 S
O60    C116    1.277   .     A
O61    C117    1.278   .     A
O62    C118    1.284   .     A
O63    C119    1.282   .     A
O64    C120    1.278   .     A
O65    C121    1.278   .     A
O66    C122    1.283   .     A
O67    C123    1.283   .     A
O68    C124    1.278   .     A
O69    C125    1.282   .     A
O70    C126    1.277   .     A
O71    C127    1.278   .     A
O72    C128    1.282   .     A
O73    C129    1.282   .     A
O74    C130    1.275   .     A
O75    C131    1.278   .     A
O76    C132    1.281   .     A
O77    C127    1.282   .     A
O77    Zn496   1.937   .     S
O78    C128    1.278   .     A
O79    C125    1.278   .     A
O79    Zn990   1.936   .     S
O80    C126    1.284   .     A
O81    C131    1.281   .     A
O82    C132    1.277   .     A
O82    Zn499   1.936   .     S
O83    C129    1.278   .     A
O84    C130    1.284   .     A
O84    Zn985   1.936   .     S
O85    C119    1.278   .     A
O85    Zn495   1.936   .     S
O86    C120    1.281   .     A
O87    C117    1.282   .     A
O88    C118    1.277   .     A
O88    Zn986   1.936   .     S
O89    C123    1.277   .     A
O90    C124    1.281   .     A
O90    Zn500   1.937   .     S
O91    C121    1.282   .     A
O91    Zn989   1.936   .     S
O92    C122    1.276   .     A
C93    C165    1.417   .     A
C93    C590    1.404   1_455 S
C93    N697    1.436   1_455 S
C94    C166    1.418   .     A
C94    C589    1.404   1_455 S
C94    N700    1.435   1_455 S
C95    C167    1.419   .     A
C95    N211    1.435   .     S
C95    C100    1.399   .     A
C96    C99     1.399   .     A
C96    N214    1.436   .     S
C96    C168    1.415   .     A
C97    C169    1.417   .     A
C97    C586    1.404   .     S
C97    N709    1.436   .     S
C98    C170    1.418   .     A
C98    C585    1.404   .     S
C98    N712    1.435   .     S
C99    N223    1.435   .     S
C99    C171    1.419   .     A
C100   C172    1.415   .     A
C100   N226    1.436   .     S
C101   C173    1.416   .     A
C101   N229    1.436   .     S
C101   C106    1.402   1_556 S
C102   N232    1.435   .     S
C102   C174    1.417   .     A
C102   C105    1.401   1_554 S
C103   N235    1.436   .     S
C103   C175    1.417   .     A
C103   C108    1.404   1_556 S
C104   N238    1.435   .     S
C104   C176    1.418   .     A
C104   C107    1.404   1_554 S
C105   N241    1.436   .     S
C105   C177    1.416   .     A
C105   C102    1.401   1_556 S
C106   N244    1.435   .     S
C106   C178    1.417   .     A
C106   C101    1.402   1_554 S
C107   C179    1.417   .     A
C107   N247    1.436   .     S
C107   C104    1.404   1_556 S
C108   N250    1.435   .     S
C108   C180    1.418   .     A
C108   C103    1.404   1_554 S
C109   O1029   1.278   1_545 A
C110   O1034   1.276   1_545 S
C111   O539    1.277   .     S
C112   O540    1.278   1_455 S
C113   O549    1.277   .     S
C113   O545    1.277   .     S
C114   C532    1.457   1_455 S
C115   O1039   1.278   .     S
C115   O1043   1.278   .     S
C117   C183    1.458   .     S
C118   C184    1.458   .     S
C119   C185    1.456   .     S
C120   C186    1.456   .     S
C121   C187    1.458   .     S
C122   C188    1.458   .     S
C123   C181    1.457   .     S
C124   C182    1.456   .     S
C125   C191    1.458   .     S
C126   C192    1.458   .     S
C127   C193    1.457   .     S
C128   C194    1.456   .     S
C129   C195    1.458   .     S
C130   C196    1.456   .     S
C131   C189    1.457   .     S
C132   C190    1.456   .     S
C133   N253    1.430   .     S
C133   C196    1.409   .     A
C133   C148    1.398   .     A
C134   C147    1.408   .     A
C134   N259    1.427   .     S
C134   C195    1.411   .     A
C135   N265    1.427   .     S
C135   C146    1.405   .     A
C135   C194    1.408   .     A
C136   N271    1.427   .     S
C136   C145    1.400   .     A
C136   C193    1.409   .     A
C137   N277    1.429   .     S
C137   C144    1.403   .     A
C137   C192    1.411   .     A
C138   N283    1.427   .     S
C138   C143    1.408   .     A
C138   C191    1.411   .     A
C139   C142    1.405   .     A
C139   N289    1.427   .     S
C139   C190    1.408   .     A
C140   C141    1.400   .     A
C140   C189    1.409   .     A
C140   N295    1.427   .     S
C141   N301    1.427   .     S
C141   C188    1.412   .     A
C142   C187    1.409   .     A
C142   N307    1.426   .     S
C143   C186    1.408   .     A
C143   N313    1.427   .     S
C144   C185    1.412   .     A
C144   N319    1.426   .     S
C145   C184    1.412   .     A
C145   N325    1.427   .     S
C146   C183    1.409   .     A
C146   N331    1.426   .     S
C147   N337    1.427   .     S
C147   C182    1.408   .     A
C148   N343    1.425   .     S
C148   C181    1.417   .     A
C149   N349    1.426   .     S
C149   C182    1.408   .     A
C149   C164    1.405   .     A
C150   C163    1.399   .     A
C150   C181    1.409   .     A
C150   N355    1.427   .     S
C151   C184    1.411   .     A
C151   N361    1.429   .     S
C151   C162    1.402   .     A
C152   C161    1.407   .     A
C152   C183    1.411   .     A
C152   N367    1.427   .     S
C153   C160    1.405   .     A
C153   C186    1.408   .     A
C153   N373    1.427   .     S
C154   N379    1.427   .     S
C154   C159    1.399   .     A
C154   C185    1.408   .     A
C155   C158    1.402   .     A
C155   N385    1.428   .     S
C155   C188    1.411   .     A
C156   C187    1.411   .     A
C156   N391    1.427   .     S
C156   C157    1.407   .     A
C157   C190    1.408   .     A
C157   N397    1.427   .     S
C158   N403    1.426   .     S
C158   C189    1.411   .     A
C159   C192    1.412   .     A
C159   N409    1.426   .     S
C160   C191    1.409   .     A
C160   N415    1.426   .     S
C161   N421    1.427   .     S
C161   C194    1.408   .     A
C162   C193    1.411   .     A
C162   N427    1.426   .     S
C163   C196    1.411   .     A
C163   N433    1.426   .     S
C164   C195    1.409   .     A
C164   N439    1.426   .     S
C165   C689    1.420   1_455 S
C166   C690    1.420   1_455 S
C167   C199    1.424   .     A
C168   C1184   1.422   .     S
C169   C197    1.420   .     A
C170   C198    1.420   .     A
C171   C1183   1.424   .     S
C172   C200    1.422   .     A
C173   C201    1.420   .     A
C174   C1186   1.421   1_545 S
C175   C695    1.420   1_455 S
C176   C204    1.420   .     A
C177   C1185   1.420   1_545 S
C178   C202    1.421   .     A
C179   C203    1.419   .     A
C180   C696    1.420   1_455 S
C197   C198    1.412   .     A
C197   C657    1.420   .     S
C198   C658    1.420   .     S
C199   C200    1.414   .     A
C199   C1155   1.424   1_545 S
C200   C1152   1.422   1_545 S
C201   C1161   1.420   .     S
C201   C202    1.412   1_556 S
C202   C1158   1.421   .     S
C202   C201    1.412   1_554 S
C203   C667    1.420   .     S
C203   C204    1.411   1_556 S
C204   C672    1.420   .     S
C204   C203    1.411   1_554 S
N205   O206    1.301   .     A
N205   C585    1.436   .     S
N205   O699    1.301   .     S
O207   N697    1.301   1_455 S
N208   O209    1.301   .     A
N208   C586    1.435   .     S
N208   O702    1.301   .     S
O210   N700    1.301   1_455 S
N211   O212    1.301   .     A
N211   O213    1.302   .     A
N214   O216    1.302   .     A
N214   O215    1.301   .     A
N217   O218    1.301   .     A
N217   C589    1.436   1_455 S
N217   O711    1.301   1_455 S
O219   N709    1.301   .     S
N220   O221    1.301   .     A
N220   C590    1.435   1_455 S
N220   O714    1.301   1_455 S
O222   N712    1.301   .     S
N223   O224    1.301   .     A
N223   O225    1.302   .     A
N226   O227    1.301   .     A
N226   O228    1.302   .     A
N229   O230    1.301   .     A
N229   O231    1.301   .     A
N232   O234    1.301   .     A
N232   O233    1.301   .     A
N235   O236    1.301   .     A
N235   O237    1.301   .     A
N238   O240    1.301   .     A
N238   O239    1.301   .     A
N241   O242    1.301   .     A
N241   O243    1.301   .     A
N244   O245    1.301   .     A
N244   O246    1.301   .     A
N247   O249    1.301   .     A
N247   O248    1.301   .     A
N250   O252    1.301   .     A
N250   O251    1.301   .     A
N253   H254    1.031   .     S
N253   C255    1.448   .     S
C255   H257    1.110   .     S
C255   H256    1.109   .     S
C255   H258    1.110   .     S
N259   C261    1.449   .     S
N259   H260    1.031   .     S
C261   H263    1.110   .     S
C261   H264    1.109   .     S
C261   H262    1.109   .     S
N265   C267    1.449   .     S
N265   H266    1.030   .     S
C267   H270    1.110   .     S
C267   H268    1.110   .     S
C267   H269    1.113   .     S
N271   H272    1.030   .     S
N271   C273    1.446   .     S
C273   H276    1.111   .     S
C273   H275    1.110   .     S
C273   H274    1.111   .     S
N277   H278    1.029   .     S
N277   C279    1.449   .     S
C279   H281    1.112   .     S
C279   H280    1.110   .     S
C279   H282    1.109   .     S
N283   H284    1.031   .     S
N283   C285    1.449   .     S
C285   H287    1.110   .     S
C285   H286    1.109   .     S
C285   H288    1.109   .     S
N289   H290    1.030   .     S
N289   C291    1.449   .     S
C291   H292    1.110   .     S
C291   H293    1.113   .     S
C291   H294    1.110   .     S
N295   C297    1.446   .     S
N295   H296    1.030   .     S
C297   H299    1.110   .     S
C297   H298    1.111   .     S
C297   H300    1.111   .     S
N301   C303    1.451   .     S
N301   H302    1.031   .     S
C303   H305    1.112   .     S
C303   H304    1.110   .     S
C303   H306    1.111   .     S
N307   H308    1.030   .     S
N307   C309    1.449   .     S
C309   H311    1.110   .     S
C309   H310    1.110   .     S
C309   H312    1.113   .     S
N313   C315    1.446   .     S
N313   H314    1.029   .     S
C315   H318    1.111   .     S
C315   H316    1.110   .     S
C315   H317    1.110   .     S
N319   C321    1.445   .     S
N319   H320    1.029   .     S
C321   H324    1.109   .     S
C321   H322    1.110   .     S
C321   H323    1.111   .     S
N325   C327    1.451   .     S
N325   H326    1.031   .     S
C327   H328    1.110   .     S
C327   H329    1.112   .     S
C327   H330    1.111   .     S
N331   C333    1.449   .     S
N331   H332    1.030   .     S
C333   H334    1.110   .     S
C333   H336    1.110   .     S
C333   H335    1.113   .     S
N337   H338    1.029   .     S
N337   C339    1.446   .     S
C339   H342    1.111   .     S
C339   H340    1.110   .     S
C339   H341    1.110   .     S
N343   C345    1.446   .     S
N343   H344    1.030   .     S
C345   H348    1.110   .     S
C345   H347    1.109   .     S
C345   H346    1.109   .     S
N349   C351    1.449   .     S
N349   H350    1.030   .     S
C351   H354    1.110   .     S
C351   H352    1.110   .     S
C351   H353    1.113   .     S
N355   C357    1.446   .     S
N355   H356    1.030   .     S
C357   H358    1.111   .     S
C357   H360    1.111   .     S
C357   H359    1.110   .     S
N361   C363    1.449   .     S
N361   H362    1.029   .     S
C363   H365    1.113   .     S
C363   H364    1.110   .     S
C363   H366    1.109   .     S
N367   C369    1.449   .     S
N367   H368    1.031   .     S
C369   H372    1.109   .     S
C369   H371    1.110   .     S
C369   H370    1.109   .     S
N373   C375    1.449   .     S
N373   H374    1.030   .     S
C375   H377    1.113   .     S
C375   H376    1.110   .     S
C375   H378    1.110   .     S
N379   H380    1.030   .     S
N379   C381    1.446   .     S
C381   H384    1.111   .     S
C381   H383    1.110   .     S
C381   H382    1.111   .     S
N385   C387    1.449   .     S
N385   H386    1.029   .     S
C387   H390    1.109   .     S
C387   H388    1.110   .     S
C387   H389    1.113   .     S
N391   C393    1.449   .     S
N391   H392    1.031   .     S
C393   H394    1.109   .     S
C393   H396    1.109   .     S
C393   H395    1.110   .     S
N397   C399    1.446   .     S
N397   H398    1.029   .     S
C399   H401    1.110   .     S
C399   H400    1.110   .     S
C399   H402    1.111   .     S
N403   C405    1.445   .     S
N403   H404    1.030   .     S
C405   H406    1.110   .     S
C405   H408    1.109   .     S
C405   H407    1.111   .     S
N409   H410    1.031   .     S
N409   C411    1.452   .     S
C411   H413    1.112   .     S
C411   H414    1.111   .     S
C411   H412    1.109   .     S
N415   C417    1.449   .     S
N415   H416    1.030   .     S
C417   H419    1.113   .     S
C417   H418    1.110   .     S
C417   H420    1.110   .     S
N421   H422    1.029   .     S
N421   C423    1.446   .     S
C423   H426    1.111   .     S
C423   H425    1.110   .     S
C423   H424    1.110   .     S
N427   H428    1.030   .     S
N427   C429    1.445   .     S
C429   H430    1.110   .     S
C429   H432    1.109   .     S
C429   H431    1.111   .     S
N433   C435    1.452   .     S
N433   H434    1.031   .     S
C435   H437    1.113   .     S
C435   H438    1.111   .     S
C435   H436    1.109   .     S
N439   C441    1.449   .     S
N439   H440    1.030   .     S
C441   H444    1.113   .     S
C441   H443    1.110   .     S
C441   H442    1.110   .     S
N445   O446    1.301   .     A
N445   O447    1.301   .     A
N448   O449    1.300   .     A
N448   O450    1.301   .     A
N451   O452    1.302   .     A
N451   O453    1.300   .     A
N454   O455    1.301   .     A
N454   O1440   1.301   1_545 S
O456   N1438   1.301   .     S
N457   O458    1.301   .     A
N457   O459    1.301   .     A
N460   O462    1.301   .     A
N460   O461    1.300   .     A
N463   O464    1.302   .     A
N463   O465    1.300   .     A
N466   O467    1.301   .     A
N466   O1452   1.301   .     S
O468   N1450   1.301   1_545 S
N469   O470    1.302   .     A
N469   O471    1.301   .     A
N472   O473    1.301   .     A
N472   O474    1.302   .     A
N475   O476    1.301   .     A
N475   O477    1.301   .     A
N478   O479    1.300   .     A
N478   O480    1.301   .     A
N481   O482    1.302   .     A
N481   O483    1.301   .     A
N484   O485    1.301   .     A
N484   O486    1.302   .     A
N487   O489    1.301   .     A
N487   O488    1.301   .     A
N490   O491    1.300   .     A
N490   O492    1.301   .     A
Zn493  O579    1.936   .     S
Zn493  O548    1.948   .     S
Zn493  O533    1.948   .     S
Zn493  O1560   1.936   1_545 S
Zn494  O547    1.948   .     S
Zn494  O575    1.936   .     S
Zn494  O534    1.948   .     S
Zn494  O1564   1.936   1_545 S
Zn495  O535    1.948   .     S
Zn495  O550    1.948   .     S
Zn495  O570    1.937   .     S
Zn496  O578    1.936   .     S
Zn496  O536    1.948   .     S
Zn496  O549    1.948   .     S
Zn497  O552    1.948   .     S
Zn497  O572    1.936   .     S
Zn497  O533    1.947   .     S
Zn497  O1567   1.936   1_545 S
Zn498  O534    1.947   .     S
Zn498  O551    1.948   .     S
Zn498  O584    1.936   .     S
Zn498  O1555   1.936   1_545 S
Zn499  O535    1.947   .     S
Zn499  O546    1.948   .     S
Zn499  O581    1.937   .     S
Zn500  O545    1.948   .     S
Zn500  O573    1.936   .     S
Zn500  O536    1.947   .     S
Zn501  O540    1.948   .     S
Zn501  O563    1.936   .     S
Zn501  O560    1.936   .     S
Zn501  O44     1.948   1_655 S
Zn502  O539    1.948   .     S
Zn502  O564    1.936   .     S
Zn502  O559    1.936   .     S
Zn502  O535    1.948   .     S
Zn503  O554    1.937   .     S
Zn503  O561    1.936   .     S
Zn503  O542    1.948   .     S
Zn503  O1518   1.948   .     S
Zn504  O541    1.948   .     S
Zn504  O562    1.936   .     S
Zn504  O553    1.937   .     S
Zn504  O533    1.948   .     S
Zn505  O536    1.947   .     S
Zn505  O567    1.936   .     S
Zn505  O556    1.936   .     S
Zn505  O544    1.948   .     S
Zn506  O543    1.948   .     S
Zn506  O568    1.936   .     S
Zn506  O555    1.936   .     S
Zn506  O43     1.947   1_655 S
Zn507  O534    1.947   .     S
Zn507  O558    1.936   .     S
Zn507  O538    1.948   .     S
Zn507  O565    1.937   .     S
Zn508  O537    1.948   .     S
Zn508  O557    1.936   .     S
Zn508  O566    1.937   .     S
Zn508  O1517   1.947   .     S
C509   N937    1.439   .     S
C509   C525    1.403   .     A
C509   C661    1.414   .     A
C510   C662    1.414   .     A
C510   N940    1.437   .     S
C510   C34     1.402   1_655 S
C511   N943    1.436   .     S
C511   C663    1.413   .     A
C511   C1511   1.401   .     S
C512   C664    1.412   .     A
C512   C528    1.400   .     A
C512   N946    1.439   .     S
C513   C657    1.414   .     A
C513   N949    1.439   .     S
C514   N952    1.437   .     S
C514   C658    1.414   .     A
C514   C526    1.402   .     A
C515   C659    1.414   .     A
C515   N955    1.436   .     S
C515   C527    1.401   .     A
C516   C660    1.412   .     A
C516   N958    1.439   .     S
C516   C1512   1.400   .     S
C517   N961    1.438   .     S
C517   C669    1.412   .     A
C517   C1513   1.403   1_545 S
C518   N964    1.438   .     S
C518   C670    1.412   .     A
C518   C1514   1.401   .     S
C519   C671    1.414   .     A
C519   C531    1.403   .     A
C519   N967    1.439   .     S
C520   C672    1.413   .     A
C520   N970    1.437   .     S
C521   N973    1.438   .     S
C521   C529    1.403   .     A
C521   C665    1.412   .     A
C522   C530    1.401   .     A
C522   C666    1.412   .     A
C522   N976    1.438   .     S
C523   N979    1.439   .     S
C523   C667    1.414   .     A
C524   C668    1.415   .     A
C524   N982    1.437   .     S
C524   C532    1.402   .     A
C525   C603    1.453   .     S
C525   C21     1.403   1_655 S
C526   C604    1.456   .     S
C527   C1495   1.401   1_545 S
C527   C601    1.458   .     S
C528   C602    1.449   .     S
C528   C1500   1.400   1_545 S
C529   C607    1.456   .     S
C529   C1501   1.403   .     S
C530   C608    1.453   .     S
C530   C1502   1.401   1_545 S
C531   C605    1.453   .     S
C531   C31     1.403   1_655 S
C532   C114    1.457   1_655 S
C532   C28     1.402   1_655 S
O533   Zn1492  1.947   1_545 S
O534   Zn1487  1.948   1_545 S
O537   C1585   1.278   .     A
O538   C602    1.276   .     A
O540   C112    1.278   1_655 S
O541   C601    1.278   .     S
O542   C1586   1.276   .     S
O543   C603    1.277   .     A
O544   C604    1.278   .     A
O546   C606    1.278   .     S
O547   C1591   1.278   1_545 S
O548   C608    1.277   .     A
O550   C606    1.277   .     S
O551   C1591   1.278   1_545 S
O552   C608    1.277   .     A
O553   C609    1.278   .     A
O554   C610    1.284   .     A
O555   C611    1.282   .     A
O556   C612    1.278   .     A
O557   C613    1.278   .     A
O558   C614    1.283   .     A
O559   C615    1.283   .     A
O560   C616    1.278   .     A
O561   C617    1.282   .     A
O562   C618    1.277   .     A
O563   C619    1.278   .     A
O564   C620    1.282   .     A
O565   C621    1.282   .     A
O566   C622    1.275   .     A
O567   C623    1.278   .     A
O568   C624    1.281   .     A
O569   C619    1.282   .     A
O569   Zn4     1.937   1_655 S
O570   C620    1.278   .     A
O571   C617    1.278   .     A
O571   Zn1482  1.936   .     S
O572   C618    1.284   .     A
O573   C623    1.281   .     A
O574   C624    1.277   .     A
O574   Zn7     1.936   1_655 S
O575   C621    1.278   .     A
O576   C622    1.284   .     A
O576   Zn1477  1.936   .     S
O577   C611    1.278   .     A
O577   Zn3     1.936   1_655 S
O578   C612    1.281   .     A
O579   C609    1.282   .     A
O580   C610    1.277   .     A
O580   Zn1478  1.936   .     S
O581   C615    1.277   .     A
O582   C616    1.281   .     A
O582   Zn8     1.937   1_655 S
O583   C613    1.282   .     A
O583   Zn1481  1.936   .     S
O584   C614    1.276   .     A
C585   C657    1.417   .     A
C586   C658    1.418   .     A
C587   C659    1.419   .     A
C587   N703    1.435   .     S
C587   C592    1.399   .     A
C588   C591    1.399   .     A
C588   N706    1.436   .     S
C588   C660    1.415   .     A
C589   C661    1.417   .     A
C589   C94     1.404   1_655 S
C589   N217    1.436   1_655 S
C590   C662    1.418   .     A
C590   C93     1.404   1_655 S
C590   N220    1.435   1_655 S
C591   N715    1.435   .     S
C591   C663    1.419   .     A
C592   C664    1.415   .     A
C592   N718    1.436   .     S
C593   C665    1.416   .     A
C593   N721    1.436   .     S
C593   C598    1.402   1_556 S
C594   N724    1.435   .     S
C594   C666    1.417   .     A
C594   C597    1.401   1_554 S
C595   N727    1.436   .     S
C595   C667    1.417   .     A
C595   C600    1.404   1_556 S
C596   N730    1.435   .     S
C596   C668    1.418   .     A
C596   C599    1.404   1_554 S
C597   N733    1.436   .     S
C597   C669    1.416   .     A
C597   C594    1.401   1_556 S
C598   N736    1.435   .     S
C598   C670    1.417   .     A
C598   C593    1.402   1_554 S
C599   C671    1.417   .     A
C599   N739    1.436   .     S
C599   C596    1.404   1_556 S
C600   N742    1.435   .     S
C600   C672    1.418   .     A
C600   C595    1.404   1_554 S
C601   O1521   1.278   1_545 A
C602   O1526   1.276   1_545 S
C603   O47     1.277   1_655 S
C605   O57     1.277   1_655 S
C605   O53     1.277   1_655 S
C607   O1531   1.278   .     S
C607   O1535   1.278   .     S
C609   C675    1.458   .     S
C610   C676    1.458   .     S
C611   C677    1.456   .     S
C612   C678    1.456   .     S
C613   C679    1.458   .     S
C614   C680    1.458   .     S
C615   C673    1.457   .     S
C616   C674    1.456   .     S
C617   C683    1.458   .     S
C618   C684    1.458   .     S
C619   C685    1.457   .     S
C620   C686    1.456   .     S
C621   C687    1.458   .     S
C622   C688    1.456   .     S
C623   C681    1.457   .     S
C624   C682    1.456   .     S
C625   N745    1.430   .     S
C625   C688    1.409   .     A
C625   C640    1.398   .     A
C626   C639    1.408   .     A
C626   N751    1.427   .     S
C626   C687    1.411   .     A
C627   N757    1.427   .     S
C627   C638    1.405   .     A
C627   C686    1.408   .     A
C628   N763    1.427   .     S
C628   C637    1.400   .     A
C628   C685    1.409   .     A
C629   N769    1.429   .     S
C629   C636    1.403   .     A
C629   C684    1.411   .     A
C630   N775    1.427   .     S
C630   C635    1.408   .     A
C630   C683    1.411   .     A
C631   C634    1.405   .     A
C631   N781    1.427   .     S
C631   C682    1.408   .     A
C632   C633    1.400   .     A
C632   C681    1.409   .     A
C632   N787    1.427   .     S
C633   N793    1.427   .     S
C633   C680    1.412   .     A
C634   C679    1.409   .     A
C634   N799    1.426   .     S
C635   C678    1.408   .     A
C635   N805    1.427   .     S
C636   C677    1.412   .     A
C636   N811    1.426   .     S
C637   C676    1.412   .     A
C637   N817    1.427   .     S
C638   C675    1.409   .     A
C638   N823    1.426   .     S
C639   N829    1.427   .     S
C639   C674    1.408   .     A
C640   N835    1.425   .     S
C640   C673    1.417   .     A
C641   N841    1.426   .     S
C641   C674    1.408   .     A
C641   C656    1.405   .     A
C642   C655    1.399   .     A
C642   C673    1.409   .     A
C642   N847    1.427   .     S
C643   C676    1.411   .     A
C643   N853    1.429   .     S
C643   C654    1.402   .     A
C644   C653    1.407   .     A
C644   C675    1.411   .     A
C644   N859    1.427   .     S
C645   C652    1.405   .     A
C645   C678    1.408   .     A
C645   N865    1.427   .     S
C646   N871    1.427   .     S
C646   C651    1.399   .     A
C646   C677    1.408   .     A
C647   C650    1.402   .     A
C647   N877    1.428   .     S
C647   C680    1.411   .     A
C648   C679    1.411   .     A
C648   N883    1.427   .     S
C648   C649    1.407   .     A
C649   C682    1.408   .     A
C649   N889    1.427   .     S
C650   N895    1.426   .     S
C650   C681    1.411   .     A
C651   C684    1.412   .     A
C651   N901    1.426   .     S
C652   C683    1.409   .     A
C652   N907    1.426   .     S
C653   N913    1.427   .     S
C653   C686    1.408   .     A
C654   C685    1.411   .     A
C654   N919    1.426   .     S
C655   C688    1.411   .     A
C655   N925    1.426   .     S
C656   C687    1.409   .     A
C656   N931    1.426   .     S
C659   C691    1.424   .     A
C660   C1676   1.422   .     S
C661   C689    1.420   .     A
C662   C690    1.420   .     A
C663   C1675   1.424   .     S
C664   C692    1.422   .     A
C665   C693    1.420   .     A
C666   C1678   1.421   1_545 S
C668   C696    1.420   .     A
C669   C1677   1.420   1_545 S
C670   C694    1.421   .     A
C671   C695    1.419   .     A
C689   C690    1.412   .     A
C689   C165    1.420   1_655 S
C690   C166    1.420   1_655 S
C691   C692    1.414   .     A
C691   C1647   1.424   1_545 S
C692   C1644   1.422   1_545 S
C693   C1653   1.420   .     S
C693   C694    1.412   1_556 S
C694   C1650   1.421   .     S
C694   C693    1.412   1_554 S
C695   C175    1.420   1_655 S
C695   C696    1.411   1_556 S
C696   C180    1.420   1_655 S
C696   C695    1.411   1_554 S
N697   O698    1.301   .     A
N697   C93     1.436   1_655 S
N697   O207    1.301   1_655 S
N700   O701    1.301   .     A
N700   C94     1.435   1_655 S
N700   O210    1.301   1_655 S
N703   O704    1.301   .     A
N703   O705    1.302   .     A
N706   O708    1.302   .     A
N706   O707    1.301   .     A
N709   O710    1.301   .     A
O711   N217    1.301   1_655 S
N712   O713    1.301   .     A
O714   N220    1.301   1_655 S
N715   O716    1.301   .     A
N715   O717    1.302   .     A
N718   O719    1.301   .     A
N718   O720    1.302   .     A
N721   O722    1.301   .     A
N721   O723    1.301   .     A
N724   O726    1.301   .     A
N724   O725    1.301   .     A
N727   O728    1.301   .     A
N727   O729    1.301   .     A
N730   O732    1.301   .     A
N730   O731    1.301   .     A
N733   O734    1.301   .     A
N733   O735    1.301   .     A
N736   O737    1.301   .     A
N736   O738    1.301   .     A
N739   O741    1.301   .     A
N739   O740    1.301   .     A
N742   O744    1.301   .     A
N742   O743    1.301   .     A
N745   H746    1.031   .     S
N745   C747    1.448   .     S
C747   H749    1.110   .     S
C747   H748    1.109   .     S
C747   H750    1.110   .     S
N751   C753    1.449   .     S
N751   H752    1.031   .     S
C753   H755    1.110   .     S
C753   H756    1.109   .     S
C753   H754    1.109   .     S
N757   C759    1.449   .     S
N757   H758    1.030   .     S
C759   H762    1.110   .     S
C759   H760    1.110   .     S
C759   H761    1.113   .     S
N763   H764    1.030   .     S
N763   C765    1.446   .     S
C765   H768    1.111   .     S
C765   H767    1.110   .     S
C765   H766    1.111   .     S
N769   H770    1.029   .     S
N769   C771    1.449   .     S
C771   H773    1.112   .     S
C771   H772    1.110   .     S
C771   H774    1.109   .     S
N775   H776    1.031   .     S
N775   C777    1.449   .     S
C777   H779    1.110   .     S
C777   H778    1.109   .     S
C777   H780    1.109   .     S
N781   H782    1.030   .     S
N781   C783    1.449   .     S
C783   H784    1.110   .     S
C783   H785    1.113   .     S
C783   H786    1.110   .     S
N787   C789    1.446   .     S
N787   H788    1.030   .     S
C789   H791    1.110   .     S
C789   H790    1.111   .     S
C789   H792    1.111   .     S
N793   C795    1.451   .     S
N793   H794    1.031   .     S
C795   H797    1.112   .     S
C795   H796    1.110   .     S
C795   H798    1.111   .     S
N799   H800    1.030   .     S
N799   C801    1.449   .     S
C801   H803    1.110   .     S
C801   H802    1.110   .     S
C801   H804    1.113   .     S
N805   C807    1.446   .     S
N805   H806    1.029   .     S
C807   H810    1.111   .     S
C807   H808    1.110   .     S
C807   H809    1.110   .     S
N811   C813    1.445   .     S
N811   H812    1.029   .     S
C813   H816    1.109   .     S
C813   H814    1.110   .     S
C813   H815    1.111   .     S
N817   C819    1.451   .     S
N817   H818    1.031   .     S
C819   H820    1.110   .     S
C819   H821    1.112   .     S
C819   H822    1.111   .     S
N823   C825    1.449   .     S
N823   H824    1.030   .     S
C825   H826    1.110   .     S
C825   H828    1.110   .     S
C825   H827    1.113   .     S
N829   H830    1.029   .     S
N829   C831    1.446   .     S
C831   H834    1.111   .     S
C831   H832    1.110   .     S
C831   H833    1.110   .     S
N835   C837    1.446   .     S
N835   H836    1.030   .     S
C837   H840    1.110   .     S
C837   H839    1.109   .     S
C837   H838    1.109   .     S
N841   C843    1.449   .     S
N841   H842    1.030   .     S
C843   H846    1.110   .     S
C843   H844    1.110   .     S
C843   H845    1.113   .     S
N847   C849    1.446   .     S
N847   H848    1.030   .     S
C849   H850    1.111   .     S
C849   H852    1.111   .     S
C849   H851    1.110   .     S
N853   C855    1.449   .     S
N853   H854    1.029   .     S
C855   H857    1.113   .     S
C855   H856    1.110   .     S
C855   H858    1.109   .     S
N859   C861    1.449   .     S
N859   H860    1.031   .     S
C861   H864    1.109   .     S
C861   H863    1.110   .     S
C861   H862    1.109   .     S
N865   C867    1.449   .     S
N865   H866    1.030   .     S
C867   H869    1.113   .     S
C867   H868    1.110   .     S
C867   H870    1.110   .     S
N871   H872    1.030   .     S
N871   C873    1.446   .     S
C873   H876    1.111   .     S
C873   H875    1.110   .     S
C873   H874    1.111   .     S
N877   C879    1.449   .     S
N877   H878    1.029   .     S
C879   H882    1.109   .     S
C879   H880    1.110   .     S
C879   H881    1.113   .     S
N883   C885    1.449   .     S
N883   H884    1.031   .     S
C885   H886    1.109   .     S
C885   H888    1.109   .     S
C885   H887    1.110   .     S
N889   C891    1.446   .     S
N889   H890    1.029   .     S
C891   H893    1.110   .     S
C891   H892    1.110   .     S
C891   H894    1.111   .     S
N895   C897    1.445   .     S
N895   H896    1.030   .     S
C897   H898    1.110   .     S
C897   H900    1.109   .     S
C897   H899    1.111   .     S
N901   H902    1.031   .     S
N901   C903    1.452   .     S
C903   H905    1.112   .     S
C903   H906    1.111   .     S
C903   H904    1.109   .     S
N907   C909    1.449   .     S
N907   H908    1.030   .     S
C909   H911    1.113   .     S
C909   H910    1.110   .     S
C909   H912    1.110   .     S
N913   H914    1.029   .     S
N913   C915    1.446   .     S
C915   H918    1.111   .     S
C915   H917    1.110   .     S
C915   H916    1.110   .     S
N919   H920    1.030   .     S
N919   C921    1.445   .     S
C921   H922    1.110   .     S
C921   H924    1.109   .     S
C921   H923    1.111   .     S
N925   C927    1.452   .     S
N925   H926    1.031   .     S
C927   H929    1.113   .     S
C927   H930    1.111   .     S
C927   H928    1.109   .     S
N931   C933    1.449   .     S
N931   H932    1.030   .     S
C933   H936    1.113   .     S
C933   H935    1.110   .     S
C933   H934    1.110   .     S
N937   O938    1.301   .     A
N937   O939    1.301   .     A
N940   O941    1.300   .     A
N940   O942    1.301   .     A
N943   O944    1.302   .     A
N943   O945    1.300   .     A
N946   O947    1.301   .     A
N946   O1932   1.301   1_545 S
O948   N1930   1.301   .     S
N949   O950    1.301   .     A
N949   O951    1.301   .     A
N952   O954    1.301   .     A
N952   O953    1.300   .     A
N955   O956    1.302   .     A
N955   O957    1.300   .     A
N958   O959    1.301   .     A
N958   O1944   1.301   .     S
O960   N1942   1.301   1_545 S
N961   O962    1.302   .     A
N961   O963    1.301   .     A
N964   O965    1.301   .     A
N964   O966    1.302   .     A
N967   O968    1.301   .     A
N967   O969    1.301   .     A
N970   O971    1.300   .     A
N970   O972    1.301   .     A
N973   O974    1.302   .     A
N973   O975    1.301   .     A
N976   O977    1.301   .     A
N976   O978    1.302   .     A
N979   O981    1.301   .     A
N979   O980    1.301   .     A
N982   O983    1.300   .     A
N982   O984    1.301   .     A
Zn985  O1071   1.936   .     S
Zn985  O1040   1.948   .     S
Zn985  O1025   1.948   .     S
Zn986  O1039   1.948   .     S
Zn986  O1067   1.936   .     S
Zn986  O1026   1.948   .     S
Zn987  O1027   1.948   .     S
Zn987  O1042   1.948   .     S
Zn987  O1062   1.937   .     S
Zn987  O1561   1.936   1_455 S
Zn988  O1070   1.936   .     S
Zn988  O1028   1.948   .     S
Zn988  O1041   1.948   .     S
Zn988  O1553   1.937   1_455 S
Zn989  O1044   1.948   .     S
Zn989  O1064   1.936   .     S
Zn989  O1025   1.947   .     S
Zn990  O1026   1.947   .     S
Zn990  O1043   1.948   .     S
Zn990  O1076   1.936   .     S
Zn991  O1027   1.947   .     S
Zn991  O1038   1.948   .     S
Zn991  O1073   1.937   .     S
Zn991  O1558   1.936   1_455 S
Zn992  O1037   1.948   .     S
Zn992  O1065   1.936   .     S
Zn992  O1028   1.947   .     S
Zn992  O1566   1.937   1_455 S
Zn993  O1032   1.948   .     S
Zn993  O1055   1.936   .     S
Zn993  O1052   1.936   .     S
Zn993  O1520   1.948   .     S
Zn994  O1031   1.948   .     S
Zn994  O1056   1.936   .     S
Zn994  O1051   1.936   .     S
Zn994  O1027   1.948   .     S
Zn995  O1046   1.937   .     S
Zn995  O1053   1.936   .     S
Zn995  O1034   1.948   .     S
Zn995  O42     1.948   1_565 S
Zn996  O1033   1.948   .     S
Zn996  O1054   1.936   .     S
Zn996  O1045   1.937   .     S
Zn996  O1025   1.948   .     S
Zn997  O1028   1.947   .     S
Zn997  O1059   1.936   .     S
Zn997  O1048   1.936   .     S
Zn997  O1036   1.948   .     S
Zn998  O1035   1.948   .     S
Zn998  O1060   1.936   .     S
Zn998  O1047   1.936   .     S
Zn998  O1519   1.947   .     S
Zn999  O1026   1.947   .     S
Zn999  O1050   1.936   .     S
Zn999  O1030   1.948   .     S
Zn999  O1057   1.937   .     S
Zn1000 O1029   1.948   .     S
Zn1000 O1049   1.936   .     S
Zn1000 O1058   1.937   .     S
Zn1000 O41     1.947   1_565 S
C1001  N1429   1.439   .     S
C1001  C1017   1.403   .     A
C1001  C1153   1.414   .     A
C1002  C1154   1.414   .     A
C1002  N1432   1.437   .     S
C1002  C1510   1.402   .     S
C1003  N1435   1.436   .     S
C1003  C1155   1.413   .     A
C1003  C35     1.401   1_565 S
C1004  C1156   1.412   .     A
C1004  C1020   1.400   .     A
C1004  N1438   1.439   .     S
C1005  C1149   1.414   .     A
C1005  N1441   1.439   .     S
C1005  C1509   1.403   1_455 S
C1006  N1444   1.437   .     S
C1006  C1150   1.414   .     A
C1006  C1018   1.402   .     A
C1007  C1151   1.414   .     A
C1007  N1447   1.436   .     S
C1007  C1019   1.401   .     A
C1008  C1152   1.412   .     A
C1008  N1450   1.439   .     S
C1008  C36     1.400   1_565 S
C1009  N1453   1.438   .     S
C1009  C1161   1.412   .     A
C1010  N1456   1.438   .     S
C1010  C1162   1.412   .     A
C1010  C38     1.401   1_565 S
C1011  C1163   1.414   .     A
C1011  C1023   1.403   .     A
C1011  N1459   1.439   .     S
C1012  C1164   1.413   .     A
C1012  N1462   1.437   .     S
C1012  C1516   1.402   1_455 S
C1013  N1465   1.438   .     S
C1013  C1021   1.403   .     A
C1013  C1157   1.412   .     A
C1014  C1022   1.401   .     A
C1014  C1158   1.412   .     A
C1014  N1468   1.438   .     S
C1015  N1471   1.439   .     S
C1015  C1159   1.414   .     A
C1015  C1515   1.403   1_455 S
C1016  C1160   1.415   .     A
C1016  N1474   1.437   .     S
C1016  C1024   1.402   .     A
C1017  C1095   1.453   .     S
C1017  C1497   1.403   .     S
C1018  C1096   1.456   .     S
C1018  C1494   1.402   1_455 S
C1019  C1093   1.458   .     S
C1020  C1094   1.449   .     S
C1021  C1099   1.456   .     S
C1021  C25     1.403   1_565 S
C1022  C1100   1.453   .     S
C1023  C1097   1.453   .     S
C1023  C1507   1.403   .     S
C1024  C1590   1.457   .     S
C1024  C1504   1.402   .     S
O1027  Zn1490  1.947   1_455 S
O1028  Zn1485  1.948   1_455 S
O1029  C109    1.278   1_565 A
O1030  C1094   1.276   .     A
O1031  C1587   1.277   1_455 S
O1032  C1588   1.278   .     S
O1033  C1093   1.278   .     S
O1034  C110    1.276   1_565 S
O1035  C1095   1.277   .     A
O1036  C1096   1.278   .     A
O1037  C1589   1.277   1_455 S
O1038  C1098   1.278   .     S
O1040  C1100   1.277   .     A
O1041  C1589   1.277   1_455 S
O1042  C1098   1.277   .     S
O1044  C1100   1.277   .     A
O1045  C1101   1.278   .     A
O1046  C1102   1.284   .     A
O1047  C1103   1.282   .     A
O1048  C1104   1.278   .     A
O1049  C1105   1.278   .     A
O1050  C1106   1.283   .     A
O1051  C1107   1.283   .     A
O1052  C1108   1.278   .     A
O1053  C1109   1.282   .     A
O1054  C1110   1.277   .     A
O1055  C1111   1.278   .     A
O1056  C1112   1.282   .     A
O1057  C1113   1.282   .     A
O1058  C1114   1.275   .     A
O1059  C1115   1.278   .     A
O1060  C1116   1.281   .     A
O1061  C1111   1.282   .     A
O1061  Zn1480  1.937   .     S
O1062  C1112   1.278   .     A
O1063  C1109   1.278   .     A
O1063  Zn6     1.936   1_565 S
O1064  C1110   1.284   .     A
O1065  C1115   1.281   .     A
O1066  C1116   1.277   .     A
O1066  Zn1483  1.936   .     S
O1067  C1113   1.278   .     A
O1068  C1114   1.284   .     A
O1068  Zn1     1.936   1_565 S
O1069  C1103   1.278   .     A
O1069  Zn1479  1.936   .     S
O1070  C1104   1.281   .     A
O1071  C1101   1.282   .     A
O1072  C1102   1.277   .     A
O1072  Zn2     1.936   1_565 S
O1073  C1107   1.277   .     A
O1074  C1108   1.281   .     A
O1074  Zn1484  1.937   .     S
O1075  C1105   1.282   .     A
O1075  Zn5     1.936   1_565 S
O1076  C1106   1.276   .     A
C1077  C1149   1.417   .     A
C1077  C1574   1.404   1_455 S
C1077  N1681   1.436   1_455 S
C1078  C1150   1.418   .     A
C1078  C1573   1.404   1_455 S
C1078  N1684   1.435   1_455 S
C1079  C1151   1.419   .     A
C1079  N1195   1.435   .     S
C1079  C1084   1.399   .     A
C1080  C1083   1.399   .     A
C1080  N1198   1.436   .     S
C1080  C1152   1.415   .     A
C1081  C1153   1.417   .     A
C1081  C1570   1.404   .     S
C1081  N1693   1.436   .     S
C1082  C1154   1.418   .     A
C1082  C1569   1.404   .     S
C1082  N1696   1.435   .     S
C1083  N1207   1.435   .     S
C1083  C1155   1.419   .     A
C1084  C1156   1.415   .     A
C1084  N1210   1.436   .     S
C1085  C1157   1.416   .     A
C1085  N1213   1.436   .     S
C1085  C1090   1.402   1_556 S
C1086  N1216   1.435   .     S
C1086  C1158   1.417   .     A
C1086  C1089   1.401   1_554 S
C1087  N1219   1.436   .     S
C1087  C1159   1.417   .     A
C1087  C1092   1.404   1_556 S
C1088  N1222   1.435   .     S
C1088  C1160   1.418   .     A
C1088  C1091   1.404   1_554 S
C1089  N1225   1.436   .     S
C1089  C1161   1.416   .     A
C1089  C1086   1.401   1_556 S
C1090  N1228   1.435   .     S
C1090  C1162   1.417   .     A
C1090  C1085   1.402   1_554 S
C1091  C1163   1.417   .     A
C1091  N1231   1.436   .     S
C1091  C1088   1.404   1_556 S
C1092  N1234   1.435   .     S
C1092  C1164   1.418   .     A
C1092  C1087   1.404   1_554 S
C1095  O1523   1.277   .     S
C1096  O1524   1.278   1_455 S
C1097  O1533   1.277   .     S
C1097  O1529   1.277   .     S
C1098  C1516   1.457   1_455 S
C1099  O55     1.278   1_565 S
C1099  O59     1.278   1_565 S
C1101  C1167   1.458   .     S
C1102  C1168   1.458   .     S
C1103  C1169   1.456   .     S
C1104  C1170   1.456   .     S
C1105  C1171   1.458   .     S
C1106  C1172   1.458   .     S
C1107  C1165   1.457   .     S
C1108  C1166   1.456   .     S
C1109  C1175   1.458   .     S
C1110  C1176   1.458   .     S
C1111  C1177   1.457   .     S
C1112  C1178   1.456   .     S
C1113  C1179   1.458   .     S
C1114  C1180   1.456   .     S
C1115  C1173   1.457   .     S
C1116  C1174   1.456   .     S
C1117  N1237   1.430   .     S
C1117  C1180   1.409   .     A
C1117  C1132   1.398   .     A
C1118  C1131   1.408   .     A
C1118  N1243   1.427   .     S
C1118  C1179   1.411   .     A
C1119  N1249   1.427   .     S
C1119  C1130   1.405   .     A
C1119  C1178   1.408   .     A
C1120  N1255   1.427   .     S
C1120  C1129   1.400   .     A
C1120  C1177   1.409   .     A
C1121  N1261   1.429   .     S
C1121  C1128   1.403   .     A
C1121  C1176   1.411   .     A
C1122  N1267   1.427   .     S
C1122  C1127   1.408   .     A
C1122  C1175   1.411   .     A
C1123  C1126   1.405   .     A
C1123  N1273   1.427   .     S
C1123  C1174   1.408   .     A
C1124  C1125   1.400   .     A
C1124  C1173   1.409   .     A
C1124  N1279   1.427   .     S
C1125  N1285   1.427   .     S
C1125  C1172   1.412   .     A
C1126  C1171   1.409   .     A
C1126  N1291   1.426   .     S
C1127  C1170   1.408   .     A
C1127  N1297   1.427   .     S
C1128  C1169   1.412   .     A
C1128  N1303   1.426   .     S
C1129  C1168   1.412   .     A
C1129  N1309   1.427   .     S
C1130  C1167   1.409   .     A
C1130  N1315   1.426   .     S
C1131  N1321   1.427   .     S
C1131  C1166   1.408   .     A
C1132  N1327   1.425   .     S
C1132  C1165   1.417   .     A
C1133  N1333   1.426   .     S
C1133  C1166   1.408   .     A
C1133  C1148   1.405   .     A
C1134  C1147   1.399   .     A
C1134  C1165   1.409   .     A
C1134  N1339   1.427   .     S
C1135  C1168   1.411   .     A
C1135  N1345   1.429   .     S
C1135  C1146   1.402   .     A
C1136  C1145   1.407   .     A
C1136  C1167   1.411   .     A
C1136  N1351   1.427   .     S
C1137  C1144   1.405   .     A
C1137  C1170   1.408   .     A
C1137  N1357   1.427   .     S
C1138  N1363   1.427   .     S
C1138  C1143   1.399   .     A
C1138  C1169   1.408   .     A
C1139  C1142   1.402   .     A
C1139  N1369   1.428   .     S
C1139  C1172   1.411   .     A
C1140  C1171   1.411   .     A
C1140  N1375   1.427   .     S
C1140  C1141   1.407   .     A
C1141  C1174   1.408   .     A
C1141  N1381   1.427   .     S
C1142  N1387   1.426   .     S
C1142  C1173   1.411   .     A
C1143  C1176   1.412   .     A
C1143  N1393   1.426   .     S
C1144  C1175   1.409   .     A
C1144  N1399   1.426   .     S
C1145  N1405   1.427   .     S
C1145  C1178   1.408   .     A
C1146  C1177   1.411   .     A
C1146  N1411   1.426   .     S
C1147  C1180   1.411   .     A
C1147  N1417   1.426   .     S
C1148  C1179   1.409   .     A
C1148  N1423   1.426   .     S
C1149  C1673   1.420   1_455 S
C1150  C1674   1.420   1_455 S
C1151  C1183   1.424   .     A
C1152  C200    1.422   1_565 S
C1153  C1181   1.420   .     A
C1154  C1182   1.420   .     A
C1155  C199    1.424   1_565 S
C1156  C1184   1.422   .     A
C1157  C1185   1.420   .     A
C1159  C1679   1.420   1_455 S
C1160  C1188   1.420   .     A
C1162  C1186   1.421   .     A
C1163  C1187   1.419   .     A
C1164  C1680   1.420   1_455 S
C1181  C1182   1.412   .     A
C1181  C1641   1.420   .     S
C1182  C1642   1.420   .     S
C1183  C1184   1.414   .     A
C1185  C177    1.420   1_565 S
C1185  C1186   1.412   1_556 S
C1186  C174    1.421   1_565 S
C1186  C1185   1.412   1_554 S
C1187  C1651   1.420   .     S
C1187  C1188   1.411   1_556 S
C1188  C1656   1.420   .     S
C1188  C1187   1.411   1_554 S
N1189  O1190   1.301   .     A
N1189  C1569   1.436   .     S
N1189  O1683   1.301   .     S
O1191  N1681   1.301   1_455 S
N1192  O1193   1.301   .     A
N1192  C1570   1.435   .     S
N1192  O1686   1.301   .     S
O1194  N1684   1.301   1_455 S
N1195  O1196   1.301   .     A
N1195  O1197   1.302   .     A
N1198  O1200   1.302   .     A
N1198  O1199   1.301   .     A
N1201  O1202   1.301   .     A
N1201  C1573   1.436   1_455 S
N1201  O1695   1.301   1_455 S
O1203  N1693   1.301   .     S
N1204  O1205   1.301   .     A
N1204  C1574   1.435   1_455 S
N1204  O1698   1.301   1_455 S
O1206  N1696   1.301   .     S
N1207  O1208   1.301   .     A
N1207  O1209   1.302   .     A
N1210  O1211   1.301   .     A
N1210  O1212   1.302   .     A
N1213  O1214   1.301   .     A
N1213  O1215   1.301   .     A
N1216  O1218   1.301   .     A
N1216  O1217   1.301   .     A
N1219  O1220   1.301   .     A
N1219  O1221   1.301   .     A
N1222  O1224   1.301   .     A
N1222  O1223   1.301   .     A
N1225  O1226   1.301   .     A
N1225  O1227   1.301   .     A
N1228  O1229   1.301   .     A
N1228  O1230   1.301   .     A
N1231  O1233   1.301   .     A
N1231  O1232   1.301   .     A
N1234  O1236   1.301   .     A
N1234  O1235   1.301   .     A
N1237  H1238   1.031   .     S
N1237  C1239   1.448   .     S
C1239  H1241   1.110   .     S
C1239  H1240   1.109   .     S
C1239  H1242   1.110   .     S
N1243  C1245   1.449   .     S
N1243  H1244   1.031   .     S
C1245  H1247   1.110   .     S
C1245  H1248   1.109   .     S
C1245  H1246   1.109   .     S
N1249  C1251   1.449   .     S
N1249  H1250   1.030   .     S
C1251  H1254   1.110   .     S
C1251  H1252   1.110   .     S
C1251  H1253   1.113   .     S
N1255  H1256   1.030   .     S
N1255  C1257   1.446   .     S
C1257  H1260   1.111   .     S
C1257  H1259   1.110   .     S
C1257  H1258   1.111   .     S
N1261  H1262   1.029   .     S
N1261  C1263   1.449   .     S
C1263  H1265   1.112   .     S
C1263  H1264   1.110   .     S
C1263  H1266   1.109   .     S
N1267  H1268   1.031   .     S
N1267  C1269   1.449   .     S
C1269  H1271   1.110   .     S
C1269  H1270   1.109   .     S
C1269  H1272   1.109   .     S
N1273  H1274   1.030   .     S
N1273  C1275   1.449   .     S
C1275  H1276   1.110   .     S
C1275  H1277   1.113   .     S
C1275  H1278   1.110   .     S
N1279  C1281   1.446   .     S
N1279  H1280   1.030   .     S
C1281  H1283   1.110   .     S
C1281  H1282   1.111   .     S
C1281  H1284   1.111   .     S
N1285  C1287   1.451   .     S
N1285  H1286   1.031   .     S
C1287  H1289   1.112   .     S
C1287  H1288   1.110   .     S
C1287  H1290   1.111   .     S
N1291  H1292   1.030   .     S
N1291  C1293   1.449   .     S
C1293  H1295   1.110   .     S
C1293  H1294   1.110   .     S
C1293  H1296   1.113   .     S
N1297  C1299   1.446   .     S
N1297  H1298   1.029   .     S
C1299  H1302   1.111   .     S
C1299  H1300   1.110   .     S
C1299  H1301   1.110   .     S
N1303  C1305   1.445   .     S
N1303  H1304   1.029   .     S
C1305  H1308   1.109   .     S
C1305  H1306   1.110   .     S
C1305  H1307   1.111   .     S
N1309  C1311   1.451   .     S
N1309  H1310   1.031   .     S
C1311  H1312   1.110   .     S
C1311  H1313   1.112   .     S
C1311  H1314   1.111   .     S
N1315  C1317   1.449   .     S
N1315  H1316   1.030   .     S
C1317  H1318   1.110   .     S
C1317  H1320   1.110   .     S
C1317  H1319   1.113   .     S
N1321  H1322   1.029   .     S
N1321  C1323   1.446   .     S
C1323  H1326   1.111   .     S
C1323  H1324   1.110   .     S
C1323  H1325   1.110   .     S
N1327  C1329   1.446   .     S
N1327  H1328   1.030   .     S
C1329  H1332   1.110   .     S
C1329  H1331   1.109   .     S
C1329  H1330   1.109   .     S
N1333  C1335   1.449   .     S
N1333  H1334   1.030   .     S
C1335  H1338   1.110   .     S
C1335  H1336   1.110   .     S
C1335  H1337   1.113   .     S
N1339  C1341   1.446   .     S
N1339  H1340   1.030   .     S
C1341  H1342   1.111   .     S
C1341  H1344   1.111   .     S
C1341  H1343   1.110   .     S
N1345  C1347   1.449   .     S
N1345  H1346   1.029   .     S
C1347  H1349   1.113   .     S
C1347  H1348   1.110   .     S
C1347  H1350   1.109   .     S
N1351  C1353   1.449   .     S
N1351  H1352   1.031   .     S
C1353  H1356   1.109   .     S
C1353  H1355   1.110   .     S
C1353  H1354   1.109   .     S
N1357  C1359   1.449   .     S
N1357  H1358   1.030   .     S
C1359  H1361   1.113   .     S
C1359  H1360   1.110   .     S
C1359  H1362   1.110   .     S
N1363  H1364   1.030   .     S
N1363  C1365   1.446   .     S
C1365  H1368   1.111   .     S
C1365  H1367   1.110   .     S
C1365  H1366   1.111   .     S
N1369  C1371   1.449   .     S
N1369  H1370   1.029   .     S
C1371  H1374   1.109   .     S
C1371  H1372   1.110   .     S
C1371  H1373   1.113   .     S
N1375  C1377   1.449   .     S
N1375  H1376   1.031   .     S
C1377  H1378   1.109   .     S
C1377  H1380   1.109   .     S
C1377  H1379   1.110   .     S
N1381  C1383   1.446   .     S
N1381  H1382   1.029   .     S
C1383  H1385   1.110   .     S
C1383  H1384   1.110   .     S
C1383  H1386   1.111   .     S
N1387  C1389   1.445   .     S
N1387  H1388   1.030   .     S
C1389  H1390   1.110   .     S
C1389  H1392   1.109   .     S
C1389  H1391   1.111   .     S
N1393  H1394   1.031   .     S
N1393  C1395   1.452   .     S
C1395  H1397   1.112   .     S
C1395  H1398   1.111   .     S
C1395  H1396   1.109   .     S
N1399  C1401   1.449   .     S
N1399  H1400   1.030   .     S
C1401  H1403   1.113   .     S
C1401  H1402   1.110   .     S
C1401  H1404   1.110   .     S
N1405  H1406   1.029   .     S
N1405  C1407   1.446   .     S
C1407  H1410   1.111   .     S
C1407  H1409   1.110   .     S
C1407  H1408   1.110   .     S
N1411  H1412   1.030   .     S
N1411  C1413   1.445   .     S
C1413  H1414   1.110   .     S
C1413  H1416   1.109   .     S
C1413  H1415   1.111   .     S
N1417  C1419   1.452   .     S
N1417  H1418   1.031   .     S
C1419  H1421   1.113   .     S
C1419  H1422   1.111   .     S
C1419  H1420   1.109   .     S
N1423  C1425   1.449   .     S
N1423  H1424   1.030   .     S
C1425  H1428   1.113   .     S
C1425  H1427   1.110   .     S
C1425  H1426   1.110   .     S
N1429  O1430   1.301   .     A
N1429  O1431   1.301   .     A
N1432  O1433   1.300   .     A
N1432  O1434   1.301   .     A
N1435  O1436   1.302   .     A
N1435  O1437   1.300   .     A
N1438  O1439   1.301   .     A
O1440  N454    1.301   1_565 S
N1441  O1442   1.301   .     A
N1441  O1443   1.301   .     A
N1444  O1446   1.301   .     A
N1444  O1445   1.300   .     A
N1447  O1448   1.302   .     A
N1447  O1449   1.300   .     A
N1450  O1451   1.301   .     A
N1450  O468    1.301   1_565 S
N1453  O1454   1.302   .     A
N1453  O1455   1.301   .     A
N1456  O1457   1.301   .     A
N1456  O1458   1.302   .     A
N1459  O1460   1.301   .     A
N1459  O1461   1.301   .     A
N1462  O1463   1.300   .     A
N1462  O1464   1.301   .     A
N1465  O1466   1.302   .     A
N1465  O1467   1.301   .     A
N1468  O1469   1.301   .     A
N1468  O1470   1.302   .     A
N1471  O1473   1.301   .     A
N1471  O1472   1.301   .     A
N1474  O1475   1.300   .     A
N1474  O1476   1.301   .     A
Zn1477 O1563   1.936   .     S
Zn1477 O1532   1.948   .     S
Zn1477 O1517   1.948   .     S
Zn1478 O1531   1.948   .     S
Zn1478 O1559   1.936   .     S
Zn1478 O1518   1.948   .     S
Zn1479 O1519   1.948   .     S
Zn1479 O1534   1.948   .     S
Zn1479 O1554   1.937   .     S
Zn1480 O1562   1.936   .     S
Zn1480 O1520   1.948   .     S
Zn1480 O1533   1.948   .     S
Zn1481 O1536   1.948   .     S
Zn1481 O1556   1.936   .     S
Zn1481 O1517   1.947   .     S
Zn1482 O1518   1.947   .     S
Zn1482 O1535   1.948   .     S
Zn1482 O1568   1.936   .     S
Zn1483 O1519   1.947   .     S
Zn1483 O1530   1.948   .     S
Zn1483 O1565   1.937   .     S
Zn1484 O1529   1.948   .     S
Zn1484 O1557   1.936   .     S
Zn1484 O1520   1.947   .     S
Zn1485 O1524   1.948   .     S
Zn1485 O1547   1.936   .     S
Zn1485 O1544   1.936   .     S
Zn1485 O1028   1.948   1_655 S
Zn1486 O1523   1.948   .     S
Zn1486 O1548   1.936   .     S
Zn1486 O1543   1.936   .     S
Zn1486 O1519   1.948   .     S
Zn1487 O1538   1.937   .     S
Zn1487 O1545   1.936   .     S
Zn1487 O1526   1.948   .     S
Zn1487 O534    1.948   1_565 S
Zn1488 O1525   1.948   .     S
Zn1488 O1546   1.936   .     S
Zn1488 O1537   1.937   .     S
Zn1488 O1517   1.948   .     S
Zn1489 O1520   1.947   .     S
Zn1489 O1551   1.936   .     S
Zn1489 O1540   1.936   .     S
Zn1489 O1528   1.948   .     S
Zn1490 O1527   1.948   .     S
Zn1490 O1552   1.936   .     S
Zn1490 O1539   1.936   .     S
Zn1490 O1027   1.947   1_655 S
Zn1491 O1518   1.947   .     S
Zn1491 O1542   1.936   .     S
Zn1491 O1522   1.948   .     S
Zn1491 O1549   1.937   .     S
Zn1492 O1521   1.948   .     S
Zn1492 O1541   1.936   .     S
Zn1492 O1550   1.937   .     S
Zn1492 O533    1.947   1_565 S
C1493  N1921   1.439   .     S
C1493  C1509   1.403   .     A
C1493  C1645   1.414   .     A
C1494  C1646   1.414   .     A
C1494  N1924   1.437   .     S
C1494  C1018   1.402   1_655 S
C1495  N1927   1.436   .     S
C1495  C1647   1.413   .     A
C1495  C527    1.401   1_565 S
C1496  C1648   1.412   .     A
C1496  C1512   1.400   .     A
C1496  N1930   1.439   .     S
C1497  C1641   1.414   .     A
C1497  N1933   1.439   .     S
C1498  N1936   1.437   .     S
C1498  C1642   1.414   .     A
C1498  C1510   1.402   .     A
C1499  C1643   1.414   .     A
C1499  N1939   1.436   .     S
C1499  C1511   1.401   .     A
C1500  C1644   1.412   .     A
C1500  N1942   1.439   .     S
C1500  C528    1.400   1_565 S
C1501  N1945   1.438   .     S
C1501  C1653   1.412   .     A
C1502  N1948   1.438   .     S
C1502  C1654   1.412   .     A
C1502  C530    1.401   1_565 S
C1503  C1655   1.414   .     A
C1503  C1515   1.403   .     A
C1503  N1951   1.439   .     S
C1504  C1656   1.413   .     A
C1504  N1954   1.437   .     S
C1505  N1957   1.438   .     S
C1505  C1513   1.403   .     A
C1505  C1649   1.412   .     A
C1506  C1514   1.401   .     A
C1506  C1650   1.412   .     A
C1506  N1960   1.438   .     S
C1507  N1963   1.439   .     S
C1507  C1651   1.414   .     A
C1508  C1652   1.415   .     A
C1508  N1966   1.437   .     S
C1508  C1516   1.402   .     A
C1509  C1587   1.453   .     S
C1509  C1005   1.403   1_655 S
C1510  C1588   1.456   .     S
C1511  C1585   1.458   .     S
C1512  C1586   1.449   .     S
C1513  C1591   1.456   .     S
C1513  C517    1.403   1_565 S
C1514  C1592   1.453   .     S
C1515  C1589   1.453   .     S
C1515  C1015   1.403   1_655 S
C1516  C1098   1.457   1_655 S
C1516  C1012   1.402   1_655 S
O1521  C601    1.278   1_565 A
O1522  C1586   1.276   .     A
O1524  C1096   1.278   1_655 S
O1525  C1585   1.278   .     S
O1526  C602    1.276   1_565 S
O1527  C1587   1.277   .     A
O1528  C1588   1.278   .     A
O1530  C1590   1.278   .     S
O1532  C1592   1.277   .     A
O1534  C1590   1.277   .     S
O1536  C1592   1.277   .     A
O1537  C1593   1.278   .     A
O1538  C1594   1.284   .     A
O1539  C1595   1.282   .     A
O1540  C1596   1.278   .     A
O1541  C1597   1.278   .     A
O1542  C1598   1.283   .     A
O1543  C1599   1.283   .     A
O1544  C1600   1.278   .     A
O1545  C1601   1.282   .     A
O1546  C1602   1.277   .     A
O1547  C1603   1.278   .     A
O1548  C1604   1.282   .     A
O1549  C1605   1.282   .     A
O1550  C1606   1.275   .     A
O1551  C1607   1.278   .     A
O1552  C1608   1.281   .     A
O1553  C1603   1.282   .     A
O1553  Zn988   1.937   1_655 S
O1554  C1604   1.278   .     A
O1555  C1601   1.278   .     A
O1555  Zn498   1.936   1_565 S
O1556  C1602   1.284   .     A
O1557  C1607   1.281   .     A
O1558  C1608   1.277   .     A
O1558  Zn991   1.936   1_655 S
O1559  C1605   1.278   .     A
O1560  C1606   1.284   .     A
O1560  Zn493   1.936   1_565 S
O1561  C1595   1.278   .     A
O1561  Zn987   1.936   1_655 S
O1562  C1596   1.281   .     A
O1563  C1593   1.282   .     A
O1564  C1594   1.277   .     A
O1564  Zn494   1.936   1_565 S
O1565  C1599   1.277   .     A
O1566  C1600   1.281   .     A
O1566  Zn992   1.937   1_655 S
O1567  C1597   1.282   .     A
O1567  Zn497   1.936   1_565 S
O1568  C1598   1.276   .     A
C1569  C1641   1.417   .     A
C1570  C1642   1.418   .     A
C1571  C1643   1.419   .     A
C1571  N1687   1.435   .     S
C1571  C1576   1.399   .     A
C1572  C1575   1.399   .     A
C1572  N1690   1.436   .     S
C1572  C1644   1.415   .     A
C1573  C1645   1.417   .     A
C1573  C1078   1.404   1_655 S
C1573  N1201   1.436   1_655 S
C1574  C1646   1.418   .     A
C1574  C1077   1.404   1_655 S
C1574  N1204   1.435   1_655 S
C1575  N1699   1.435   .     S
C1575  C1647   1.419   .     A
C1576  C1648   1.415   .     A
C1576  N1702   1.436   .     S
C1577  C1649   1.416   .     A
C1577  N1705   1.436   .     S
C1577  C1582   1.402   1_556 S
C1578  N1708   1.435   .     S
C1578  C1650   1.417   .     A
C1578  C1581   1.401   1_554 S
C1579  N1711   1.436   .     S
C1579  C1651   1.417   .     A
C1579  C1584   1.404   1_556 S
C1580  N1714   1.435   .     S
C1580  C1652   1.418   .     A
C1580  C1583   1.404   1_554 S
C1581  N1717   1.436   .     S
C1581  C1653   1.416   .     A
C1581  C1578   1.401   1_556 S
C1582  N1720   1.435   .     S
C1582  C1654   1.417   .     A
C1582  C1577   1.402   1_554 S
C1583  C1655   1.417   .     A
C1583  N1723   1.436   .     S
C1583  C1580   1.404   1_556 S
C1584  N1726   1.435   .     S
C1584  C1656   1.418   .     A
C1584  C1579   1.404   1_554 S
C1587  O1031   1.277   1_655 S
C1589  O1041   1.277   1_655 S
C1589  O1037   1.277   1_655 S
C1591  O547    1.278   1_565 S
C1591  O551    1.278   1_565 S
C1593  C1659   1.458   .     S
C1594  C1660   1.458   .     S
C1595  C1661   1.456   .     S
C1596  C1662   1.456   .     S
C1597  C1663   1.458   .     S
C1598  C1664   1.458   .     S
C1599  C1657   1.457   .     S
C1600  C1658   1.456   .     S
C1601  C1667   1.458   .     S
C1602  C1668   1.458   .     S
C1603  C1669   1.457   .     S
C1604  C1670   1.456   .     S
C1605  C1671   1.458   .     S
C1606  C1672   1.456   .     S
C1607  C1665   1.457   .     S
C1608  C1666   1.456   .     S
C1609  N1729   1.430   .     S
C1609  C1672   1.409   .     A
C1609  C1624   1.398   .     A
C1610  C1623   1.408   .     A
C1610  N1735   1.427   .     S
C1610  C1671   1.411   .     A
C1611  N1741   1.427   .     S
C1611  C1622   1.405   .     A
C1611  C1670   1.408   .     A
C1612  N1747   1.427   .     S
C1612  C1621   1.400   .     A
C1612  C1669   1.409   .     A
C1613  N1753   1.429   .     S
C1613  C1620   1.403   .     A
C1613  C1668   1.411   .     A
C1614  N1759   1.427   .     S
C1614  C1619   1.408   .     A
C1614  C1667   1.411   .     A
C1615  C1618   1.405   .     A
C1615  N1765   1.427   .     S
C1615  C1666   1.408   .     A
C1616  C1617   1.400   .     A
C1616  C1665   1.409   .     A
C1616  N1771   1.427   .     S
C1617  N1777   1.427   .     S
C1617  C1664   1.412   .     A
C1618  C1663   1.409   .     A
C1618  N1783   1.426   .     S
C1619  C1662   1.408   .     A
C1619  N1789   1.427   .     S
C1620  C1661   1.412   .     A
C1620  N1795   1.426   .     S
C1621  C1660   1.412   .     A
C1621  N1801   1.427   .     S
C1622  C1659   1.409   .     A
C1622  N1807   1.426   .     S
C1623  N1813   1.427   .     S
C1623  C1658   1.408   .     A
C1624  N1819   1.425   .     S
C1624  C1657   1.417   .     A
C1625  N1825   1.426   .     S
C1625  C1658   1.408   .     A
C1625  C1640   1.405   .     A
C1626  C1639   1.399   .     A
C1626  C1657   1.409   .     A
C1626  N1831   1.427   .     S
C1627  C1660   1.411   .     A
C1627  N1837   1.429   .     S
C1627  C1638   1.402   .     A
C1628  C1637   1.407   .     A
C1628  C1659   1.411   .     A
C1628  N1843   1.427   .     S
C1629  C1636   1.405   .     A
C1629  C1662   1.408   .     A
C1629  N1849   1.427   .     S
C1630  N1855   1.427   .     S
C1630  C1635   1.399   .     A
C1630  C1661   1.408   .     A
C1631  C1634   1.402   .     A
C1631  N1861   1.428   .     S
C1631  C1664   1.411   .     A
C1632  C1663   1.411   .     A
C1632  N1867   1.427   .     S
C1632  C1633   1.407   .     A
C1633  C1666   1.408   .     A
C1633  N1873   1.427   .     S
C1634  N1879   1.426   .     S
C1634  C1665   1.411   .     A
C1635  C1668   1.412   .     A
C1635  N1885   1.426   .     S
C1636  C1667   1.409   .     A
C1636  N1891   1.426   .     S
C1637  N1897   1.427   .     S
C1637  C1670   1.408   .     A
C1638  C1669   1.411   .     A
C1638  N1903   1.426   .     S
C1639  C1672   1.411   .     A
C1639  N1909   1.426   .     S
C1640  C1671   1.409   .     A
C1640  N1915   1.426   .     S
C1643  C1675   1.424   .     A
C1644  C692    1.422   1_565 S
C1645  C1673   1.420   .     A
C1646  C1674   1.420   .     A
C1647  C691    1.424   1_565 S
C1648  C1676   1.422   .     A
C1649  C1677   1.420   .     A
C1652  C1680   1.420   .     A
C1654  C1678   1.421   .     A
C1655  C1679   1.419   .     A
C1673  C1674   1.412   .     A
C1673  C1149   1.420   1_655 S
C1674  C1150   1.420   1_655 S
C1675  C1676   1.414   .     A
C1677  C669    1.420   1_565 S
C1677  C1678   1.412   1_556 S
C1678  C666    1.421   1_565 S
C1678  C1677   1.412   1_554 S
C1679  C1159   1.420   1_655 S
C1679  C1680   1.411   1_556 S
C1680  C1164   1.420   1_655 S
C1680  C1679   1.411   1_554 S
N1681  O1682   1.301   .     A
N1681  C1077   1.436   1_655 S
N1681  O1191   1.301   1_655 S
N1684  O1685   1.301   .     A
N1684  C1078   1.435   1_655 S
N1684  O1194   1.301   1_655 S
N1687  O1688   1.301   .     A
N1687  O1689   1.302   .     A
N1690  O1692   1.302   .     A
N1690  O1691   1.301   .     A
N1693  O1694   1.301   .     A
O1695  N1201   1.301   1_655 S
N1696  O1697   1.301   .     A
O1698  N1204   1.301   1_655 S
N1699  O1700   1.301   .     A
N1699  O1701   1.302   .     A
N1702  O1703   1.301   .     A
N1702  O1704   1.302   .     A
N1705  O1706   1.301   .     A
N1705  O1707   1.301   .     A
N1708  O1710   1.301   .     A
N1708  O1709   1.301   .     A
N1711  O1712   1.301   .     A
N1711  O1713   1.301   .     A
N1714  O1716   1.301   .     A
N1714  O1715   1.301   .     A
N1717  O1718   1.301   .     A
N1717  O1719   1.301   .     A
N1720  O1721   1.301   .     A
N1720  O1722   1.301   .     A
N1723  O1725   1.301   .     A
N1723  O1724   1.301   .     A
N1726  O1728   1.301   .     A
N1726  O1727   1.301   .     A
N1729  H1730   1.031   .     S
N1729  C1731   1.448   .     S
C1731  H1733   1.110   .     S
C1731  H1732   1.109   .     S
C1731  H1734   1.110   .     S
N1735  C1737   1.449   .     S
N1735  H1736   1.031   .     S
C1737  H1739   1.110   .     S
C1737  H1740   1.109   .     S
C1737  H1738   1.109   .     S
N1741  C1743   1.449   .     S
N1741  H1742   1.030   .     S
C1743  H1746   1.110   .     S
C1743  H1744   1.110   .     S
C1743  H1745   1.113   .     S
N1747  H1748   1.030   .     S
N1747  C1749   1.446   .     S
C1749  H1752   1.111   .     S
C1749  H1751   1.110   .     S
C1749  H1750   1.111   .     S
N1753  H1754   1.029   .     S
N1753  C1755   1.449   .     S
C1755  H1757   1.112   .     S
C1755  H1756   1.110   .     S
C1755  H1758   1.109   .     S
N1759  H1760   1.031   .     S
N1759  C1761   1.449   .     S
C1761  H1763   1.110   .     S
C1761  H1762   1.109   .     S
C1761  H1764   1.109   .     S
N1765  H1766   1.030   .     S
N1765  C1767   1.449   .     S
C1767  H1768   1.110   .     S
C1767  H1769   1.113   .     S
C1767  H1770   1.110   .     S
N1771  C1773   1.446   .     S
N1771  H1772   1.030   .     S
C1773  H1775   1.110   .     S
C1773  H1774   1.111   .     S
C1773  H1776   1.111   .     S
N1777  C1779   1.451   .     S
N1777  H1778   1.031   .     S
C1779  H1781   1.112   .     S
C1779  H1780   1.110   .     S
C1779  H1782   1.111   .     S
N1783  H1784   1.030   .     S
N1783  C1785   1.449   .     S
C1785  H1787   1.110   .     S
C1785  H1786   1.110   .     S
C1785  H1788   1.113   .     S
N1789  C1791   1.446   .     S
N1789  H1790   1.029   .     S
C1791  H1794   1.111   .     S
C1791  H1792   1.110   .     S
C1791  H1793   1.110   .     S
N1795  C1797   1.445   .     S
N1795  H1796   1.029   .     S
C1797  H1800   1.109   .     S
C1797  H1798   1.110   .     S
C1797  H1799   1.111   .     S
N1801  C1803   1.451   .     S
N1801  H1802   1.031   .     S
C1803  H1804   1.110   .     S
C1803  H1805   1.112   .     S
C1803  H1806   1.111   .     S
N1807  C1809   1.449   .     S
N1807  H1808   1.030   .     S
C1809  H1810   1.110   .     S
C1809  H1812   1.110   .     S
C1809  H1811   1.113   .     S
N1813  H1814   1.029   .     S
N1813  C1815   1.446   .     S
C1815  H1818   1.111   .     S
C1815  H1816   1.110   .     S
C1815  H1817   1.110   .     S
N1819  C1821   1.446   .     S
N1819  H1820   1.030   .     S
C1821  H1824   1.110   .     S
C1821  H1823   1.109   .     S
C1821  H1822   1.109   .     S
N1825  C1827   1.449   .     S
N1825  H1826   1.030   .     S
C1827  H1830   1.110   .     S
C1827  H1828   1.110   .     S
C1827  H1829   1.113   .     S
N1831  C1833   1.446   .     S
N1831  H1832   1.030   .     S
C1833  H1834   1.111   .     S
C1833  H1836   1.111   .     S
C1833  H1835   1.110   .     S
N1837  C1839   1.449   .     S
N1837  H1838   1.029   .     S
C1839  H1841   1.113   .     S
C1839  H1840   1.110   .     S
C1839  H1842   1.109   .     S
N1843  C1845   1.449   .     S
N1843  H1844   1.031   .     S
C1845  H1848   1.109   .     S
C1845  H1847   1.110   .     S
C1845  H1846   1.109   .     S
N1849  C1851   1.449   .     S
N1849  H1850   1.030   .     S
C1851  H1853   1.113   .     S
C1851  H1852   1.110   .     S
C1851  H1854   1.110   .     S
N1855  H1856   1.030   .     S
N1855  C1857   1.446   .     S
C1857  H1860   1.111   .     S
C1857  H1859   1.110   .     S
C1857  H1858   1.111   .     S
N1861  C1863   1.449   .     S
N1861  H1862   1.029   .     S
C1863  H1866   1.109   .     S
C1863  H1864   1.110   .     S
C1863  H1865   1.113   .     S
N1867  C1869   1.449   .     S
N1867  H1868   1.031   .     S
C1869  H1870   1.109   .     S
C1869  H1872   1.109   .     S
C1869  H1871   1.110   .     S
N1873  C1875   1.446   .     S
N1873  H1874   1.029   .     S
C1875  H1877   1.110   .     S
C1875  H1876   1.110   .     S
C1875  H1878   1.111   .     S
N1879  C1881   1.445   .     S
N1879  H1880   1.030   .     S
C1881  H1882   1.110   .     S
C1881  H1884   1.109   .     S
C1881  H1883   1.111   .     S
N1885  H1886   1.031   .     S
N1885  C1887   1.452   .     S
C1887  H1889   1.112   .     S
C1887  H1890   1.111   .     S
C1887  H1888   1.109   .     S
N1891  C1893   1.449   .     S
N1891  H1892   1.030   .     S
C1893  H1895   1.113   .     S
C1893  H1894   1.110   .     S
C1893  H1896   1.110   .     S
N1897  H1898   1.029   .     S
N1897  C1899   1.446   .     S
C1899  H1902   1.111   .     S
C1899  H1901   1.110   .     S
C1899  H1900   1.110   .     S
N1903  H1904   1.030   .     S
N1903  C1905   1.445   .     S
C1905  H1906   1.110   .     S
C1905  H1908   1.109   .     S
C1905  H1907   1.111   .     S
N1909  C1911   1.452   .     S
N1909  H1910   1.031   .     S
C1911  H1913   1.113   .     S
C1911  H1914   1.111   .     S
C1911  H1912   1.109   .     S
N1915  C1917   1.449   .     S
N1915  H1916   1.030   .     S
C1917  H1920   1.113   .     S
C1917  H1919   1.110   .     S
C1917  H1918   1.110   .     S
N1921  O1922   1.301   .     A
N1921  O1923   1.301   .     A
N1924  O1925   1.300   .     A
N1924  O1926   1.301   .     A
N1927  O1928   1.302   .     A
N1927  O1929   1.300   .     A
N1930  O1931   1.301   .     A
O1932  N946    1.301   1_565 S
N1933  O1934   1.301   .     A
N1933  O1935   1.301   .     A
N1936  O1938   1.301   .     A
N1936  O1937   1.300   .     A
N1939  O1940   1.302   .     A
N1939  O1941   1.300   .     A
N1942  O1943   1.301   .     A
N1942  O960    1.301   1_565 S
N1945  O1946   1.302   .     A
N1945  O1947   1.301   .     A
N1948  O1949   1.301   .     A
N1948  O1950   1.302   .     A
N1951  O1952   1.301   .     A
N1951  O1953   1.301   .     A
N1954  O1955   1.300   .     A
N1954  O1956   1.301   .     A
N1957  O1958   1.302   .     A
N1957  O1959   1.301   .     A
N1960  O1961   1.301   .     A
N1960  O1962   1.302   .     A
N1963  O1965   1.301   .     A
N1963  O1964   1.301   .     A
N1966  O1967   1.300   .     A
N1966  O1968   1.301   .     A
