data_str_m3_o1_o18_pcu_sym.24
_audit_creation_date              2020-01-03
_audit_creation_method            'Materials Studio'
_symmetry_space_group_name_H-M    'P1'
_symmetry_Int_Tables_number       1
_symmetry_cell_setting            triclinic
loop_
_symmetry_equiv_pos_as_xyz
  x,y,z
_cell_length_a                    29.8440
_cell_length_b                    31.8483
_cell_length_c                    30.8026
_cell_angle_alpha                 90.9939
_cell_angle_beta                  68.2230
_cell_angle_gamma                 89.9266
loop_
_atom_site_label
_atom_site_type_symbol
_atom_site_fract_x
_atom_site_fract_y
_atom_site_fract_z
_atom_site_U_iso_or_equiv
_atom_site_adp_type
_atom_site_occupancy
O1     O     0.12846   0.22775   0.25001   0.00000  Uiso   1.00
O2     O     0.20488   0.10558   0.25000   0.00000  Uiso   1.00
O3     O     0.20490   0.22774   0.25000   0.00000  Uiso   1.00
O4     O     0.12843   0.10559   0.25000   0.00000  Uiso   1.00
C5     C     0.16694   0.24647   0.24942   0.00000  Uiso   1.00
C6     C     0.16614   0.08695   0.25145   0.00000  Uiso   1.00
O7     O     0.10661   0.16667   0.31613   0.00000  Uiso   1.00
O8     O     0.22672   0.16666   0.18388   0.00000  Uiso   1.00
O9     O     0.18305   0.16666   0.31612   0.00000  Uiso   1.00
O10    O     0.15028   0.16667   0.18388   0.00000  Uiso   1.00
C11    C     0.13631   0.16468   0.33774   0.00000  Uiso   1.00
C12    C     0.19666   0.17038   0.16213   0.00000  Uiso   1.00
Zn13   Zn    0.11562   0.16667   0.25000   0.00000  Uiso   1.00
Zn14   Zn    0.21771   0.16666   0.25000   0.00000  Uiso   1.00
C15    C     0.11724   0.15635   0.38780   0.00000  Uiso   1.00
C16    C     0.21468   0.17799   0.11121   0.00000  Uiso   1.00
C17    C     0.07618   0.11002   0.45201   0.00000  Uiso   1.00
C18    C     0.27982   0.18291   0.03489   0.00000  Uiso   1.00
C19    C     0.08521   0.12268   0.40631   0.00000  Uiso   1.00
C20    C     0.26458   0.18179   0.08380   0.00000  Uiso   1.00
C21    C     0.13953   0.17623   0.41518   0.00000  Uiso   1.00
C22    C     0.18131   0.17981   0.08855   0.00000  Uiso   1.00
C23    C     0.13999   0.15570   0.45507   0.00000  Uiso   1.00
C24    C     0.19805   0.17002   0.04060   0.00000  Uiso   1.00
C25    C     0.10319   0.12633   0.47729   0.00000  Uiso   1.00
C26    C     0.24660   0.17827   0.01252   0.00000  Uiso   1.00
C27    C     0.17650   0.16281   0.47295   0.00000  Uiso   1.00
C28    C     0.16664   0.15445   0.01979   0.00000  Uiso   1.00
C29    C     0.12688   0.12927   0.04448   0.00000  Uiso   1.00
C30    C     0.22348   0.17523   0.44464   0.00000  Uiso   1.00
C31    C     0.09630   0.11322   0.02306   0.00000  Uiso   1.00
C32    C     0.25927   0.18164   0.46346   0.00000  Uiso   1.00
H33    H     0.05048   0.08518   0.46568   0.00000  Uiso   1.00
H34    H     0.31786   0.18661   0.01516   0.00000  Uiso   1.00
H35    H     0.12096   0.12069   0.08001   0.00000  Uiso   1.00
H36    H     0.23293   0.17850   0.40732   0.00000  Uiso   1.00
C37    C     0.16111   0.31227   0.21216   0.00000  Uiso   1.00
C38    C     0.17341   0.02135   0.28864   0.00000  Uiso   1.00
C39    C     0.15939   0.02217   0.21497   0.00000  Uiso   1.00
C40    C     0.17384   0.31132   0.28637   0.00000  Uiso   1.00
H41    H     0.15506   0.04006   0.18709   0.00000  Uiso   1.00
H42    H     0.17848   0.29335   0.31401   0.00000  Uiso   1.00
C43    C     0.16581   0.04282   0.25243   0.00000  Uiso   1.00
C44    C     0.16745   0.29070   0.24884   0.00000  Uiso   1.00
C45    C     0.31703   0.13420   0.22972   0.00000  Uiso   1.00
C46    C     0.01667   0.19965   0.26933   0.00000  Uiso   1.00
C47    C     0.03147   0.13416   0.22973   0.00000  Uiso   1.00
C48    C     0.30178   0.19931   0.27019   0.00000  Uiso   1.00
N49    N     0.04759   0.16668   0.25001   0.00000  Uiso   1.00
N50    N     0.28574   0.16666   0.24999   0.00000  Uiso   1.00
C51    C     0.05657   0.08480   0.05022   0.00000  Uiso   1.00
H52    H     0.02583   0.07930   0.04033   0.00000  Uiso   1.00
O53    O     0.05730   0.06751   0.08505   0.00000  Uiso   1.00
C54    C     0.30751   0.19415   0.43028   0.00000  Uiso   1.00
H55    H     0.31804   0.18541   0.39369   0.00000  Uiso   1.00
O56    O     0.00119   0.21619   0.44217   0.00000  Uiso   1.00
C57    C     0.13289   0.20139   0.11095   0.00000  Uiso   1.00
H58    H     0.11887   0.21176   0.14705   0.00000  Uiso   1.00
O59    O     0.10895   0.21124   0.08798   0.00000  Uiso   1.00
C60    C     0.15532   0.22074   0.40534   0.00000  Uiso   1.00
H61    H     0.15538   0.23544   0.37385   0.00000  Uiso   1.00
O62    O     0.16490   0.24250   0.43372   0.00000  Uiso   1.00
N63    N     0.29958   0.18928   0.10479   0.00000  Uiso   1.00
O64    O     0.29309   0.22038   0.13453   0.00000  Uiso   1.00
O65    O     0.00883   0.17201   0.08657   0.00000  Uiso   1.00
N66    N     0.06365   0.09940   0.37881   0.00000  Uiso   1.00
O67    O     0.03500   0.11811   0.36205   0.00000  Uiso   1.00
O68    O     0.06428   0.05856   0.37904   0.00000  Uiso   1.00
C69    C     0.15944   0.29038   0.16990   0.00000  Uiso   1.00
H70    H     0.17084   0.25792   0.16283   0.00000  Uiso   1.00
O71    O     0.14621   0.30857   0.14211   0.00000  Uiso   1.00
C72    C     0.17944   0.04343   0.32912   0.00000  Uiso   1.00
H73    H     0.17611   0.07728   0.33301   0.00000  Uiso   1.00
O74    O     0.18795   0.02390   0.35901   0.00000  Uiso   1.00
N75    N     0.30206   0.10045   0.20713   0.00000  Uiso   1.00
O76    O     0.29791   0.10636   0.16714   0.00000  Uiso   1.00
O77    O     0.29866   0.06263   0.22330   0.00000  Uiso   1.00
N78    N     0.03283   0.23467   0.28912   0.00000  Uiso   1.00
O79    O     0.04265   0.27002   0.26709   0.00000  Uiso   1.00
O80    O     0.03904   0.23115   0.32847   0.00000  Uiso   1.00
C81    C     0.06375   0.09897   0.20613   0.00000  Uiso   1.00
H82    H     0.05575   0.06755   0.21984   0.00000  Uiso   1.00
O83    O     0.09815   0.10431   0.16992   0.00000  Uiso   1.00
C84    C     0.26795   0.23314   0.29566   0.00000  Uiso   1.00
H85    H     0.23191   0.22557   0.31844   0.00000  Uiso   1.00
O86    O     0.27965   0.26998   0.29109   0.00000  Uiso   1.00
O87    O     0.46179   0.22775   0.25001   0.00000  Uiso   1.00
O88    O     0.53821   0.10558   0.25000   0.00000  Uiso   1.00
O89    O     0.53823   0.22774   0.25000   0.00000  Uiso   1.00
O90    O     0.46177   0.10559   0.25000   0.00000  Uiso   1.00
C91    C     0.50027   0.24647   0.24942   0.00000  Uiso   1.00
C92    C     0.49947   0.08695   0.25145   0.00000  Uiso   1.00
O93    O     0.43994   0.16667   0.31613   0.00000  Uiso   1.00
O94    O     0.56006   0.16666   0.18388   0.00000  Uiso   1.00
O95    O     0.51639   0.16666   0.31612   0.00000  Uiso   1.00
O96    O     0.48361   0.16667   0.18388   0.00000  Uiso   1.00
C97    C     0.46964   0.16468   0.33774   0.00000  Uiso   1.00
C98    C     0.52999   0.17038   0.16213   0.00000  Uiso   1.00
Zn99   Zn    0.44896   0.16667   0.25000   0.00000  Uiso   1.00
Zn100  Zn    0.55104   0.16666   0.25000   0.00000  Uiso   1.00
C101   C     0.45057   0.15635   0.38780   0.00000  Uiso   1.00
C102   C     0.54801   0.17799   0.11121   0.00000  Uiso   1.00
C103   C     0.40952   0.11002   0.45201   0.00000  Uiso   1.00
C104   C     0.61315   0.18291   0.03489   0.00000  Uiso   1.00
C105   C     0.41854   0.12268   0.40631   0.00000  Uiso   1.00
C106   C     0.59791   0.18179   0.08380   0.00000  Uiso   1.00
C107   C     0.47286   0.17623   0.41518   0.00000  Uiso   1.00
C108   C     0.51464   0.17981   0.08855   0.00000  Uiso   1.00
C109   C     0.47332   0.15570   0.45507   0.00000  Uiso   1.00
C110   C     0.53139   0.17002   0.04060   0.00000  Uiso   1.00
C111   C     0.43653   0.12633   0.47729   0.00000  Uiso   1.00
C112   C     0.57993   0.17827   0.01252   0.00000  Uiso   1.00
C113   C     0.50984   0.16281   0.47295   0.00000  Uiso   1.00
C114   C     0.49997   0.15445   0.01979   0.00000  Uiso   1.00
C115   C     0.46021   0.12927   0.04448   0.00000  Uiso   1.00
C116   C     0.55681   0.17523   0.44464   0.00000  Uiso   1.00
C117   C     0.42963   0.11322   0.02306   0.00000  Uiso   1.00
C118   C     0.59260   0.18164   0.46346   0.00000  Uiso   1.00
H119   H     0.38381   0.08518   0.46568   0.00000  Uiso   1.00
H120   H     0.65120   0.18661   0.01516   0.00000  Uiso   1.00
H121   H     0.45429   0.12069   0.08001   0.00000  Uiso   1.00
H122   H     0.56627   0.17850   0.40732   0.00000  Uiso   1.00
C123   C     0.49445   0.31227   0.21216   0.00000  Uiso   1.00
C124   C     0.50674   0.02135   0.28864   0.00000  Uiso   1.00
C125   C     0.49272   0.02217   0.21497   0.00000  Uiso   1.00
C126   C     0.50717   0.31132   0.28637   0.00000  Uiso   1.00
H127   H     0.48839   0.04006   0.18709   0.00000  Uiso   1.00
H128   H     0.51182   0.29335   0.31401   0.00000  Uiso   1.00
C129   C     0.49914   0.04282   0.25243   0.00000  Uiso   1.00
C130   C     0.50078   0.29070   0.24884   0.00000  Uiso   1.00
C131   C     0.65037   0.13420   0.22972   0.00000  Uiso   1.00
C132   C     0.35001   0.19965   0.26933   0.00000  Uiso   1.00
C133   C     0.36481   0.13416   0.22973   0.00000  Uiso   1.00
C134   C     0.63512   0.19931   0.27019   0.00000  Uiso   1.00
N135   N     0.38093   0.16668   0.25001   0.00000  Uiso   1.00
N136   N     0.61907   0.16666   0.24999   0.00000  Uiso   1.00
C137   C     0.38990   0.08480   0.05022   0.00000  Uiso   1.00
H138   H     0.35916   0.07930   0.04033   0.00000  Uiso   1.00
O139   O     0.39063   0.06751   0.08505   0.00000  Uiso   1.00
C140   C     0.64084   0.19415   0.43028   0.00000  Uiso   1.00
H141   H     0.65137   0.18541   0.39369   0.00000  Uiso   1.00
O142   O     0.33452   0.21619   0.44217   0.00000  Uiso   1.00
C143   C     0.46623   0.20139   0.11095   0.00000  Uiso   1.00
H144   H     0.45221   0.21176   0.14705   0.00000  Uiso   1.00
O145   O     0.44228   0.21124   0.08798   0.00000  Uiso   1.00
C146   C     0.48865   0.22074   0.40534   0.00000  Uiso   1.00
H147   H     0.48871   0.23544   0.37385   0.00000  Uiso   1.00
O148   O     0.49823   0.24250   0.43372   0.00000  Uiso   1.00
N149   N     0.63291   0.18928   0.10479   0.00000  Uiso   1.00
O150   O     0.62643   0.22038   0.13453   0.00000  Uiso   1.00
O151   O     0.34216   0.17201   0.08657   0.00000  Uiso   1.00
N152   N     0.39699   0.09940   0.37881   0.00000  Uiso   1.00
O153   O     0.36833   0.11811   0.36205   0.00000  Uiso   1.00
O154   O     0.39761   0.05856   0.37904   0.00000  Uiso   1.00
C155   C     0.49278   0.29038   0.16990   0.00000  Uiso   1.00
H156   H     0.50417   0.25792   0.16283   0.00000  Uiso   1.00
O157   O     0.47954   0.30857   0.14211   0.00000  Uiso   1.00
C158   C     0.51277   0.04343   0.32912   0.00000  Uiso   1.00
H159   H     0.50944   0.07728   0.33301   0.00000  Uiso   1.00
O160   O     0.52128   0.02390   0.35901   0.00000  Uiso   1.00
N161   N     0.63540   0.10045   0.20713   0.00000  Uiso   1.00
O162   O     0.63124   0.10636   0.16714   0.00000  Uiso   1.00
O163   O     0.63199   0.06263   0.22330   0.00000  Uiso   1.00
N164   N     0.36616   0.23467   0.28912   0.00000  Uiso   1.00
O165   O     0.37599   0.27002   0.26709   0.00000  Uiso   1.00
O166   O     0.37237   0.23115   0.32847   0.00000  Uiso   1.00
C167   C     0.39709   0.09897   0.20613   0.00000  Uiso   1.00
H168   H     0.38909   0.06755   0.21984   0.00000  Uiso   1.00
O169   O     0.43148   0.10431   0.16992   0.00000  Uiso   1.00
C170   C     0.60128   0.23314   0.29566   0.00000  Uiso   1.00
H171   H     0.56524   0.22557   0.31844   0.00000  Uiso   1.00
O172   O     0.61298   0.26998   0.29109   0.00000  Uiso   1.00
O173   O     0.79512   0.22775   0.25001   0.00000  Uiso   1.00
O174   O     0.87154   0.10558   0.25000   0.00000  Uiso   1.00
O175   O     0.87157   0.22774   0.25000   0.00000  Uiso   1.00
O176   O     0.79510   0.10559   0.25000   0.00000  Uiso   1.00
C177   C     0.83361   0.24647   0.24942   0.00000  Uiso   1.00
C178   C     0.83280   0.08695   0.25145   0.00000  Uiso   1.00
O179   O     0.77328   0.16667   0.31613   0.00000  Uiso   1.00
O180   O     0.89339   0.16666   0.18388   0.00000  Uiso   1.00
O181   O     0.84972   0.16666   0.31612   0.00000  Uiso   1.00
O182   O     0.81695   0.16667   0.18388   0.00000  Uiso   1.00
C183   C     0.80297   0.16468   0.33774   0.00000  Uiso   1.00
C184   C     0.86333   0.17038   0.16213   0.00000  Uiso   1.00
Zn185  Zn    0.78229   0.16667   0.25000   0.00000  Uiso   1.00
Zn186  Zn    0.88438   0.16666   0.25000   0.00000  Uiso   1.00
C187   C     0.78390   0.15635   0.38780   0.00000  Uiso   1.00
C188   C     0.88134   0.17799   0.11121   0.00000  Uiso   1.00
C189   C     0.74285   0.11002   0.45201   0.00000  Uiso   1.00
C190   C     0.94649   0.18291   0.03489   0.00000  Uiso   1.00
C191   C     0.75187   0.12268   0.40631   0.00000  Uiso   1.00
C192   C     0.93125   0.18179   0.08380   0.00000  Uiso   1.00
C193   C     0.80620   0.17623   0.41518   0.00000  Uiso   1.00
C194   C     0.84797   0.17981   0.08855   0.00000  Uiso   1.00
C195   C     0.80666   0.15570   0.45507   0.00000  Uiso   1.00
C196   C     0.86472   0.17002   0.04060   0.00000  Uiso   1.00
C197   C     0.76986   0.12633   0.47729   0.00000  Uiso   1.00
C198   C     0.91327   0.17827   0.01252   0.00000  Uiso   1.00
C199   C     0.84317   0.16281   0.47295   0.00000  Uiso   1.00
C200   C     0.83330   0.15445   0.01979   0.00000  Uiso   1.00
C201   C     0.79355   0.12927   0.04448   0.00000  Uiso   1.00
C202   C     0.89014   0.17523   0.44464   0.00000  Uiso   1.00
C203   C     0.76296   0.11322   0.02306   0.00000  Uiso   1.00
C204   C     0.92593   0.18164   0.46346   0.00000  Uiso   1.00
H205   H     0.71715   0.08518   0.46568   0.00000  Uiso   1.00
H206   H     0.98453   0.18661   0.01516   0.00000  Uiso   1.00
H207   H     0.78763   0.12069   0.08001   0.00000  Uiso   1.00
H208   H     0.89960   0.17850   0.40732   0.00000  Uiso   1.00
C209   C     0.82778   0.31227   0.21216   0.00000  Uiso   1.00
C210   C     0.84008   0.02135   0.28864   0.00000  Uiso   1.00
C211   C     0.82606   0.02217   0.21497   0.00000  Uiso   1.00
C212   C     0.84051   0.31132   0.28637   0.00000  Uiso   1.00
H213   H     0.82172   0.04006   0.18709   0.00000  Uiso   1.00
H214   H     0.84515   0.29335   0.31401   0.00000  Uiso   1.00
C215   C     0.83248   0.04282   0.25243   0.00000  Uiso   1.00
C216   C     0.83411   0.29070   0.24884   0.00000  Uiso   1.00
C217   C     0.98370   0.13420   0.22972   0.00000  Uiso   1.00
C218   C     0.68334   0.19965   0.26933   0.00000  Uiso   1.00
C219   C     0.69814   0.13416   0.22973   0.00000  Uiso   1.00
C220   C     0.96845   0.19931   0.27019   0.00000  Uiso   1.00
N221   N     0.71426   0.16668   0.25001   0.00000  Uiso   1.00
N222   N     0.95241   0.16666   0.24999   0.00000  Uiso   1.00
C223   C     0.72324   0.08480   0.05022   0.00000  Uiso   1.00
H224   H     0.69250   0.07930   0.04033   0.00000  Uiso   1.00
O225   O     0.72396   0.06751   0.08505   0.00000  Uiso   1.00
C226   C     0.97418   0.19415   0.43028   0.00000  Uiso   1.00
H227   H     0.98471   0.18541   0.39369   0.00000  Uiso   1.00
O228   O     0.66785   0.21619   0.44217   0.00000  Uiso   1.00
C229   C     0.79956   0.20139   0.11095   0.00000  Uiso   1.00
H230   H     0.78554   0.21176   0.14705   0.00000  Uiso   1.00
O231   O     0.77562   0.21124   0.08798   0.00000  Uiso   1.00
C232   C     0.82198   0.22074   0.40534   0.00000  Uiso   1.00
H233   H     0.82204   0.23544   0.37385   0.00000  Uiso   1.00
O234   O     0.83157   0.24250   0.43372   0.00000  Uiso   1.00
N235   N     0.96625   0.18928   0.10479   0.00000  Uiso   1.00
O236   O     0.95976   0.22038   0.13453   0.00000  Uiso   1.00
O237   O     0.67549   0.17201   0.08657   0.00000  Uiso   1.00
N238   N     0.73032   0.09940   0.37881   0.00000  Uiso   1.00
O239   O     0.70167   0.11811   0.36205   0.00000  Uiso   1.00
O240   O     0.73095   0.05856   0.37904   0.00000  Uiso   1.00
C241   C     0.82611   0.29038   0.16990   0.00000  Uiso   1.00
H242   H     0.83750   0.25792   0.16283   0.00000  Uiso   1.00
O243   O     0.81287   0.30857   0.14211   0.00000  Uiso   1.00
C244   C     0.84610   0.04343   0.32912   0.00000  Uiso   1.00
H245   H     0.84277   0.07728   0.33301   0.00000  Uiso   1.00
O246   O     0.85462   0.02390   0.35901   0.00000  Uiso   1.00
N247   N     0.96873   0.10045   0.20713   0.00000  Uiso   1.00
O248   O     0.96458   0.10636   0.16714   0.00000  Uiso   1.00
O249   O     0.96532   0.06263   0.22330   0.00000  Uiso   1.00
N250   N     0.69949   0.23467   0.28912   0.00000  Uiso   1.00
O251   O     0.70932   0.27002   0.26709   0.00000  Uiso   1.00
O252   O     0.70571   0.23115   0.32847   0.00000  Uiso   1.00
C253   C     0.73042   0.09897   0.20613   0.00000  Uiso   1.00
H254   H     0.72242   0.06755   0.21984   0.00000  Uiso   1.00
O255   O     0.76482   0.10431   0.16992   0.00000  Uiso   1.00
C256   C     0.93461   0.23314   0.29566   0.00000  Uiso   1.00
H257   H     0.89858   0.22557   0.31844   0.00000  Uiso   1.00
O258   O     0.94631   0.26998   0.29109   0.00000  Uiso   1.00
O259   O     0.12846   0.56108   0.25001   0.00000  Uiso   1.00
O260   O     0.20488   0.43892   0.25000   0.00000  Uiso   1.00
O261   O     0.20490   0.56107   0.25000   0.00000  Uiso   1.00
O262   O     0.12843   0.43893   0.25000   0.00000  Uiso   1.00
C263   C     0.16694   0.57980   0.24942   0.00000  Uiso   1.00
C264   C     0.16614   0.42028   0.25145   0.00000  Uiso   1.00
O265   O     0.10661   0.50001   0.31613   0.00000  Uiso   1.00
O266   O     0.22672   0.49999   0.18388   0.00000  Uiso   1.00
O267   O     0.18305   0.50000   0.31612   0.00000  Uiso   1.00
O268   O     0.15028   0.50000   0.18388   0.00000  Uiso   1.00
C269   C     0.13631   0.49802   0.33774   0.00000  Uiso   1.00
C270   C     0.19666   0.50371   0.16213   0.00000  Uiso   1.00
Zn271  Zn    0.11562   0.50001   0.25000   0.00000  Uiso   1.00
Zn272  Zn    0.21771   0.49999   0.25000   0.00000  Uiso   1.00
C273   C     0.11724   0.48968   0.38780   0.00000  Uiso   1.00
C274   C     0.21468   0.51132   0.11121   0.00000  Uiso   1.00
C275   C     0.07618   0.44335   0.45201   0.00000  Uiso   1.00
C276   C     0.27982   0.51624   0.03489   0.00000  Uiso   1.00
C277   C     0.08521   0.45602   0.40631   0.00000  Uiso   1.00
C278   C     0.26458   0.51513   0.08380   0.00000  Uiso   1.00
C279   C     0.13953   0.50957   0.41518   0.00000  Uiso   1.00
C280   C     0.18131   0.51314   0.08855   0.00000  Uiso   1.00
C281   C     0.13999   0.48904   0.45507   0.00000  Uiso   1.00
C282   C     0.19805   0.50336   0.04060   0.00000  Uiso   1.00
C283   C     0.10319   0.45967   0.47729   0.00000  Uiso   1.00
C284   C     0.24660   0.51160   0.01252   0.00000  Uiso   1.00
C285   C     0.17650   0.49615   0.47295   0.00000  Uiso   1.00
C286   C     0.16664   0.48778   0.01979   0.00000  Uiso   1.00
C287   C     0.12688   0.46261   0.04448   0.00000  Uiso   1.00
C288   C     0.22348   0.50856   0.44464   0.00000  Uiso   1.00
C289   C     0.09630   0.44655   0.02306   0.00000  Uiso   1.00
C290   C     0.25927   0.51498   0.46346   0.00000  Uiso   1.00
H291   H     0.05048   0.41851   0.46568   0.00000  Uiso   1.00
H292   H     0.31786   0.51994   0.01516   0.00000  Uiso   1.00
H293   H     0.12096   0.45402   0.08001   0.00000  Uiso   1.00
H294   H     0.23293   0.51183   0.40732   0.00000  Uiso   1.00
C295   C     0.16111   0.64560   0.21216   0.00000  Uiso   1.00
C296   C     0.17341   0.35469   0.28864   0.00000  Uiso   1.00
C297   C     0.15939   0.35551   0.21497   0.00000  Uiso   1.00
C298   C     0.17384   0.64466   0.28637   0.00000  Uiso   1.00
H299   H     0.15506   0.37339   0.18709   0.00000  Uiso   1.00
H300   H     0.17848   0.62669   0.31401   0.00000  Uiso   1.00
C301   C     0.16581   0.37615   0.25243   0.00000  Uiso   1.00
C302   C     0.16745   0.62403   0.24884   0.00000  Uiso   1.00
C303   C     0.31703   0.46753   0.22972   0.00000  Uiso   1.00
C304   C     0.01667   0.53298   0.26933   0.00000  Uiso   1.00
C305   C     0.03147   0.46750   0.22973   0.00000  Uiso   1.00
C306   C     0.30178   0.53265   0.27019   0.00000  Uiso   1.00
N307   N     0.04759   0.50001   0.25001   0.00000  Uiso   1.00
N308   N     0.28574   0.49999   0.24999   0.00000  Uiso   1.00
C309   C     0.05657   0.41813   0.05022   0.00000  Uiso   1.00
H310   H     0.02583   0.41263   0.04033   0.00000  Uiso   1.00
O311   O     0.05730   0.40084   0.08505   0.00000  Uiso   1.00
C312   C     0.30751   0.52749   0.43028   0.00000  Uiso   1.00
H313   H     0.31804   0.51874   0.39369   0.00000  Uiso   1.00
O314   O     0.00119   0.54953   0.44217   0.00000  Uiso   1.00
C315   C     0.13289   0.53473   0.11095   0.00000  Uiso   1.00
H316   H     0.11887   0.54509   0.14705   0.00000  Uiso   1.00
O317   O     0.10895   0.54458   0.08798   0.00000  Uiso   1.00
C318   C     0.15532   0.55407   0.40534   0.00000  Uiso   1.00
H319   H     0.15538   0.56877   0.37385   0.00000  Uiso   1.00
O320   O     0.16490   0.57583   0.43372   0.00000  Uiso   1.00
N321   N     0.29958   0.52262   0.10479   0.00000  Uiso   1.00
O322   O     0.29309   0.55371   0.13453   0.00000  Uiso   1.00
O323   O     0.00883   0.50534   0.08657   0.00000  Uiso   1.00
N324   N     0.06365   0.43274   0.37881   0.00000  Uiso   1.00
O325   O     0.03500   0.45145   0.36205   0.00000  Uiso   1.00
O326   O     0.06428   0.39189   0.37904   0.00000  Uiso   1.00
C327   C     0.15944   0.62371   0.16990   0.00000  Uiso   1.00
H328   H     0.17084   0.59125   0.16283   0.00000  Uiso   1.00
O329   O     0.14621   0.64191   0.14211   0.00000  Uiso   1.00
C330   C     0.17944   0.37676   0.32912   0.00000  Uiso   1.00
H331   H     0.17611   0.41061   0.33301   0.00000  Uiso   1.00
O332   O     0.18795   0.35723   0.35901   0.00000  Uiso   1.00
N333   N     0.30206   0.43378   0.20713   0.00000  Uiso   1.00
O334   O     0.29791   0.43969   0.16714   0.00000  Uiso   1.00
O335   O     0.29866   0.39596   0.22330   0.00000  Uiso   1.00
N336   N     0.03283   0.56801   0.28912   0.00000  Uiso   1.00
O337   O     0.04265   0.60336   0.26709   0.00000  Uiso   1.00
O338   O     0.03904   0.56448   0.32847   0.00000  Uiso   1.00
C339   C     0.06375   0.43230   0.20613   0.00000  Uiso   1.00
H340   H     0.05575   0.40088   0.21984   0.00000  Uiso   1.00
O341   O     0.09815   0.43765   0.16992   0.00000  Uiso   1.00
C342   C     0.26795   0.56648   0.29566   0.00000  Uiso   1.00
H343   H     0.23191   0.55890   0.31844   0.00000  Uiso   1.00
O344   O     0.27965   0.60331   0.29109   0.00000  Uiso   1.00
O345   O     0.46179   0.56108   0.25001   0.00000  Uiso   1.00
O346   O     0.53821   0.43892   0.25000   0.00000  Uiso   1.00
O347   O     0.53823   0.56107   0.25000   0.00000  Uiso   1.00
O348   O     0.46177   0.43893   0.25000   0.00000  Uiso   1.00
C349   C     0.50027   0.57980   0.24942   0.00000  Uiso   1.00
C350   C     0.49947   0.42028   0.25145   0.00000  Uiso   1.00
O351   O     0.43994   0.50001   0.31613   0.00000  Uiso   1.00
O352   O     0.56006   0.49999   0.18388   0.00000  Uiso   1.00
O353   O     0.51639   0.50000   0.31612   0.00000  Uiso   1.00
O354   O     0.48361   0.50000   0.18388   0.00000  Uiso   1.00
C355   C     0.46964   0.49802   0.33774   0.00000  Uiso   1.00
C356   C     0.52999   0.50371   0.16213   0.00000  Uiso   1.00
Zn357  Zn    0.44896   0.50001   0.25000   0.00000  Uiso   1.00
Zn358  Zn    0.55104   0.49999   0.25000   0.00000  Uiso   1.00
C359   C     0.45057   0.48968   0.38780   0.00000  Uiso   1.00
C360   C     0.54801   0.51132   0.11121   0.00000  Uiso   1.00
C361   C     0.40952   0.44335   0.45201   0.00000  Uiso   1.00
C362   C     0.61315   0.51624   0.03489   0.00000  Uiso   1.00
C363   C     0.41854   0.45602   0.40631   0.00000  Uiso   1.00
C364   C     0.59791   0.51513   0.08380   0.00000  Uiso   1.00
C365   C     0.47286   0.50957   0.41518   0.00000  Uiso   1.00
C366   C     0.51464   0.51314   0.08855   0.00000  Uiso   1.00
C367   C     0.47332   0.48904   0.45507   0.00000  Uiso   1.00
C368   C     0.53139   0.50336   0.04060   0.00000  Uiso   1.00
C369   C     0.43653   0.45967   0.47729   0.00000  Uiso   1.00
C370   C     0.57993   0.51160   0.01252   0.00000  Uiso   1.00
C371   C     0.50984   0.49615   0.47295   0.00000  Uiso   1.00
C372   C     0.49997   0.48778   0.01979   0.00000  Uiso   1.00
C373   C     0.46021   0.46261   0.04448   0.00000  Uiso   1.00
C374   C     0.55681   0.50856   0.44464   0.00000  Uiso   1.00
C375   C     0.42963   0.44655   0.02306   0.00000  Uiso   1.00
C376   C     0.59260   0.51498   0.46346   0.00000  Uiso   1.00
H377   H     0.38381   0.41851   0.46568   0.00000  Uiso   1.00
H378   H     0.65120   0.51994   0.01516   0.00000  Uiso   1.00
H379   H     0.45429   0.45402   0.08001   0.00000  Uiso   1.00
H380   H     0.56627   0.51183   0.40732   0.00000  Uiso   1.00
C381   C     0.49445   0.64560   0.21216   0.00000  Uiso   1.00
C382   C     0.50674   0.35469   0.28864   0.00000  Uiso   1.00
C383   C     0.49272   0.35551   0.21497   0.00000  Uiso   1.00
C384   C     0.50717   0.64466   0.28637   0.00000  Uiso   1.00
H385   H     0.48839   0.37339   0.18709   0.00000  Uiso   1.00
H386   H     0.51182   0.62669   0.31401   0.00000  Uiso   1.00
C387   C     0.49914   0.37615   0.25243   0.00000  Uiso   1.00
C388   C     0.50078   0.62403   0.24884   0.00000  Uiso   1.00
C389   C     0.65037   0.46753   0.22972   0.00000  Uiso   1.00
C390   C     0.35001   0.53298   0.26933   0.00000  Uiso   1.00
C391   C     0.36481   0.46750   0.22973   0.00000  Uiso   1.00
C392   C     0.63512   0.53265   0.27019   0.00000  Uiso   1.00
N393   N     0.38093   0.50001   0.25001   0.00000  Uiso   1.00
N394   N     0.61907   0.49999   0.24999   0.00000  Uiso   1.00
C395   C     0.38990   0.41813   0.05022   0.00000  Uiso   1.00
H396   H     0.35916   0.41263   0.04033   0.00000  Uiso   1.00
O397   O     0.39063   0.40084   0.08505   0.00000  Uiso   1.00
C398   C     0.64084   0.52749   0.43028   0.00000  Uiso   1.00
H399   H     0.65137   0.51874   0.39369   0.00000  Uiso   1.00
O400   O     0.33452   0.54953   0.44217   0.00000  Uiso   1.00
C401   C     0.46623   0.53473   0.11095   0.00000  Uiso   1.00
H402   H     0.45221   0.54509   0.14705   0.00000  Uiso   1.00
O403   O     0.44228   0.54458   0.08798   0.00000  Uiso   1.00
C404   C     0.48865   0.55407   0.40534   0.00000  Uiso   1.00
H405   H     0.48871   0.56877   0.37385   0.00000  Uiso   1.00
O406   O     0.49823   0.57583   0.43372   0.00000  Uiso   1.00
N407   N     0.63291   0.52262   0.10479   0.00000  Uiso   1.00
O408   O     0.62643   0.55371   0.13453   0.00000  Uiso   1.00
O409   O     0.34216   0.50534   0.08657   0.00000  Uiso   1.00
N410   N     0.39699   0.43274   0.37881   0.00000  Uiso   1.00
O411   O     0.36833   0.45145   0.36205   0.00000  Uiso   1.00
O412   O     0.39761   0.39189   0.37904   0.00000  Uiso   1.00
C413   C     0.49278   0.62371   0.16990   0.00000  Uiso   1.00
H414   H     0.50417   0.59125   0.16283   0.00000  Uiso   1.00
O415   O     0.47954   0.64191   0.14211   0.00000  Uiso   1.00
C416   C     0.51277   0.37676   0.32912   0.00000  Uiso   1.00
H417   H     0.50944   0.41061   0.33301   0.00000  Uiso   1.00
O418   O     0.52128   0.35723   0.35901   0.00000  Uiso   1.00
N419   N     0.63540   0.43378   0.20713   0.00000  Uiso   1.00
O420   O     0.63124   0.43969   0.16714   0.00000  Uiso   1.00
O421   O     0.63199   0.39596   0.22330   0.00000  Uiso   1.00
N422   N     0.36616   0.56801   0.28912   0.00000  Uiso   1.00
O423   O     0.37599   0.60336   0.26709   0.00000  Uiso   1.00
O424   O     0.37237   0.56448   0.32847   0.00000  Uiso   1.00
C425   C     0.39709   0.43230   0.20613   0.00000  Uiso   1.00
H426   H     0.38909   0.40088   0.21984   0.00000  Uiso   1.00
O427   O     0.43148   0.43765   0.16992   0.00000  Uiso   1.00
C428   C     0.60128   0.56648   0.29566   0.00000  Uiso   1.00
H429   H     0.56524   0.55890   0.31844   0.00000  Uiso   1.00
O430   O     0.61298   0.60331   0.29109   0.00000  Uiso   1.00
O431   O     0.79512   0.56108   0.25001   0.00000  Uiso   1.00
O432   O     0.87154   0.43892   0.25000   0.00000  Uiso   1.00
O433   O     0.87157   0.56107   0.25000   0.00000  Uiso   1.00
O434   O     0.79510   0.43893   0.25000   0.00000  Uiso   1.00
C435   C     0.83361   0.57980   0.24942   0.00000  Uiso   1.00
C436   C     0.83280   0.42028   0.25145   0.00000  Uiso   1.00
O437   O     0.77328   0.50001   0.31613   0.00000  Uiso   1.00
O438   O     0.89339   0.49999   0.18388   0.00000  Uiso   1.00
O439   O     0.84972   0.50000   0.31612   0.00000  Uiso   1.00
O440   O     0.81695   0.50000   0.18388   0.00000  Uiso   1.00
C441   C     0.80297   0.49802   0.33774   0.00000  Uiso   1.00
C442   C     0.86333   0.50371   0.16213   0.00000  Uiso   1.00
Zn443  Zn    0.78229   0.50001   0.25000   0.00000  Uiso   1.00
Zn444  Zn    0.88438   0.49999   0.25000   0.00000  Uiso   1.00
C445   C     0.78390   0.48968   0.38780   0.00000  Uiso   1.00
C446   C     0.88134   0.51132   0.11121   0.00000  Uiso   1.00
C447   C     0.74285   0.44335   0.45201   0.00000  Uiso   1.00
C448   C     0.94649   0.51624   0.03489   0.00000  Uiso   1.00
C449   C     0.75187   0.45602   0.40631   0.00000  Uiso   1.00
C450   C     0.93125   0.51513   0.08380   0.00000  Uiso   1.00
C451   C     0.80620   0.50957   0.41518   0.00000  Uiso   1.00
C452   C     0.84797   0.51314   0.08855   0.00000  Uiso   1.00
C453   C     0.80666   0.48904   0.45507   0.00000  Uiso   1.00
C454   C     0.86472   0.50336   0.04060   0.00000  Uiso   1.00
C455   C     0.76986   0.45967   0.47729   0.00000  Uiso   1.00
C456   C     0.91327   0.51160   0.01252   0.00000  Uiso   1.00
C457   C     0.84317   0.49615   0.47295   0.00000  Uiso   1.00
C458   C     0.83330   0.48778   0.01979   0.00000  Uiso   1.00
C459   C     0.79355   0.46261   0.04448   0.00000  Uiso   1.00
C460   C     0.89014   0.50856   0.44464   0.00000  Uiso   1.00
C461   C     0.76296   0.44655   0.02306   0.00000  Uiso   1.00
C462   C     0.92593   0.51498   0.46346   0.00000  Uiso   1.00
H463   H     0.71715   0.41851   0.46568   0.00000  Uiso   1.00
H464   H     0.98453   0.51994   0.01516   0.00000  Uiso   1.00
H465   H     0.78763   0.45402   0.08001   0.00000  Uiso   1.00
H466   H     0.89960   0.51183   0.40732   0.00000  Uiso   1.00
C467   C     0.82778   0.64560   0.21216   0.00000  Uiso   1.00
C468   C     0.84008   0.35469   0.28864   0.00000  Uiso   1.00
C469   C     0.82606   0.35551   0.21497   0.00000  Uiso   1.00
C470   C     0.84051   0.64466   0.28637   0.00000  Uiso   1.00
H471   H     0.82172   0.37339   0.18709   0.00000  Uiso   1.00
H472   H     0.84515   0.62669   0.31401   0.00000  Uiso   1.00
C473   C     0.83248   0.37615   0.25243   0.00000  Uiso   1.00
C474   C     0.83411   0.62403   0.24884   0.00000  Uiso   1.00
C475   C     0.98370   0.46753   0.22972   0.00000  Uiso   1.00
C476   C     0.68334   0.53298   0.26933   0.00000  Uiso   1.00
C477   C     0.69814   0.46750   0.22973   0.00000  Uiso   1.00
C478   C     0.96845   0.53265   0.27019   0.00000  Uiso   1.00
N479   N     0.71426   0.50001   0.25001   0.00000  Uiso   1.00
N480   N     0.95241   0.49999   0.24999   0.00000  Uiso   1.00
C481   C     0.72324   0.41813   0.05022   0.00000  Uiso   1.00
H482   H     0.69250   0.41263   0.04033   0.00000  Uiso   1.00
O483   O     0.72396   0.40084   0.08505   0.00000  Uiso   1.00
C484   C     0.97418   0.52749   0.43028   0.00000  Uiso   1.00
H485   H     0.98471   0.51874   0.39369   0.00000  Uiso   1.00
O486   O     0.66785   0.54953   0.44217   0.00000  Uiso   1.00
C487   C     0.79956   0.53473   0.11095   0.00000  Uiso   1.00
H488   H     0.78554   0.54509   0.14705   0.00000  Uiso   1.00
O489   O     0.77562   0.54458   0.08798   0.00000  Uiso   1.00
C490   C     0.82198   0.55407   0.40534   0.00000  Uiso   1.00
H491   H     0.82204   0.56877   0.37385   0.00000  Uiso   1.00
O492   O     0.83157   0.57583   0.43372   0.00000  Uiso   1.00
N493   N     0.96625   0.52262   0.10479   0.00000  Uiso   1.00
O494   O     0.95976   0.55371   0.13453   0.00000  Uiso   1.00
O495   O     0.67549   0.50534   0.08657   0.00000  Uiso   1.00
N496   N     0.73032   0.43274   0.37881   0.00000  Uiso   1.00
O497   O     0.70167   0.45145   0.36205   0.00000  Uiso   1.00
O498   O     0.73095   0.39189   0.37904   0.00000  Uiso   1.00
C499   C     0.82611   0.62371   0.16990   0.00000  Uiso   1.00
H500   H     0.83750   0.59125   0.16283   0.00000  Uiso   1.00
O501   O     0.81287   0.64191   0.14211   0.00000  Uiso   1.00
C502   C     0.84610   0.37676   0.32912   0.00000  Uiso   1.00
H503   H     0.84277   0.41061   0.33301   0.00000  Uiso   1.00
O504   O     0.85462   0.35723   0.35901   0.00000  Uiso   1.00
N505   N     0.96873   0.43378   0.20713   0.00000  Uiso   1.00
O506   O     0.96458   0.43969   0.16714   0.00000  Uiso   1.00
O507   O     0.96532   0.39596   0.22330   0.00000  Uiso   1.00
N508   N     0.69949   0.56801   0.28912   0.00000  Uiso   1.00
O509   O     0.70932   0.60336   0.26709   0.00000  Uiso   1.00
O510   O     0.70571   0.56448   0.32847   0.00000  Uiso   1.00
C511   C     0.73042   0.43230   0.20613   0.00000  Uiso   1.00
H512   H     0.72242   0.40088   0.21984   0.00000  Uiso   1.00
O513   O     0.76482   0.43765   0.16992   0.00000  Uiso   1.00
C514   C     0.93461   0.56648   0.29566   0.00000  Uiso   1.00
H515   H     0.89858   0.55890   0.31844   0.00000  Uiso   1.00
O516   O     0.94631   0.60331   0.29109   0.00000  Uiso   1.00
O517   O     0.12846   0.89442   0.25001   0.00000  Uiso   1.00
O518   O     0.20488   0.77225   0.25000   0.00000  Uiso   1.00
O519   O     0.20490   0.89441   0.25000   0.00000  Uiso   1.00
O520   O     0.12843   0.77226   0.25000   0.00000  Uiso   1.00
C521   C     0.16694   0.91314   0.24942   0.00000  Uiso   1.00
C522   C     0.16614   0.75361   0.25145   0.00000  Uiso   1.00
O523   O     0.10661   0.83334   0.31613   0.00000  Uiso   1.00
O524   O     0.22672   0.83333   0.18388   0.00000  Uiso   1.00
O525   O     0.18305   0.83333   0.31612   0.00000  Uiso   1.00
O526   O     0.15028   0.83334   0.18388   0.00000  Uiso   1.00
C527   C     0.13631   0.83135   0.33774   0.00000  Uiso   1.00
C528   C     0.19666   0.83705   0.16213   0.00000  Uiso   1.00
Zn529  Zn    0.11562   0.83334   0.25000   0.00000  Uiso   1.00
Zn530  Zn    0.21771   0.83333   0.25000   0.00000  Uiso   1.00
C531   C     0.11724   0.82301   0.38780   0.00000  Uiso   1.00
C532   C     0.21468   0.84466   0.11121   0.00000  Uiso   1.00
C533   C     0.07618   0.77668   0.45201   0.00000  Uiso   1.00
C534   C     0.27982   0.84958   0.03489   0.00000  Uiso   1.00
C535   C     0.08521   0.78935   0.40631   0.00000  Uiso   1.00
C536   C     0.26458   0.84846   0.08380   0.00000  Uiso   1.00
C537   C     0.13953   0.84290   0.41518   0.00000  Uiso   1.00
C538   C     0.18131   0.84647   0.08855   0.00000  Uiso   1.00
C539   C     0.13999   0.82237   0.45507   0.00000  Uiso   1.00
C540   C     0.19805   0.83669   0.04060   0.00000  Uiso   1.00
C541   C     0.10319   0.79300   0.47729   0.00000  Uiso   1.00
C542   C     0.24660   0.84494   0.01252   0.00000  Uiso   1.00
C543   C     0.17650   0.82948   0.47295   0.00000  Uiso   1.00
C544   C     0.16664   0.82112   0.01979   0.00000  Uiso   1.00
C545   C     0.12688   0.79594   0.04448   0.00000  Uiso   1.00
C546   C     0.22348   0.84190   0.44464   0.00000  Uiso   1.00
C547   C     0.09630   0.77988   0.02306   0.00000  Uiso   1.00
C548   C     0.25927   0.84831   0.46346   0.00000  Uiso   1.00
H549   H     0.05048   0.75184   0.46568   0.00000  Uiso   1.00
H550   H     0.31786   0.85327   0.01516   0.00000  Uiso   1.00
H551   H     0.12096   0.78735   0.08001   0.00000  Uiso   1.00
H552   H     0.23293   0.84516   0.40732   0.00000  Uiso   1.00
C553   C     0.16111   0.97894   0.21216   0.00000  Uiso   1.00
C554   C     0.17341   0.68802   0.28864   0.00000  Uiso   1.00
C555   C     0.15939   0.68884   0.21497   0.00000  Uiso   1.00
C556   C     0.17384   0.97799   0.28637   0.00000  Uiso   1.00
H557   H     0.15506   0.70673   0.18709   0.00000  Uiso   1.00
H558   H     0.17848   0.96002   0.31401   0.00000  Uiso   1.00
C559   C     0.16581   0.70948   0.25243   0.00000  Uiso   1.00
C560   C     0.16745   0.95737   0.24884   0.00000  Uiso   1.00
C561   C     0.31703   0.80086   0.22972   0.00000  Uiso   1.00
C562   C     0.01667   0.86631   0.26933   0.00000  Uiso   1.00
C563   C     0.03147   0.80083   0.22973   0.00000  Uiso   1.00
C564   C     0.30178   0.86598   0.27019   0.00000  Uiso   1.00
N565   N     0.04759   0.83334   0.25001   0.00000  Uiso   1.00
N566   N     0.28574   0.83332   0.24999   0.00000  Uiso   1.00
C567   C     0.05657   0.75147   0.05022   0.00000  Uiso   1.00
H568   H     0.02583   0.74596   0.04033   0.00000  Uiso   1.00
O569   O     0.05730   0.73417   0.08505   0.00000  Uiso   1.00
C570   C     0.30751   0.86082   0.43028   0.00000  Uiso   1.00
H571   H     0.31804   0.85207   0.39369   0.00000  Uiso   1.00
O572   O     0.00119   0.88286   0.44217   0.00000  Uiso   1.00
C573   C     0.13289   0.86806   0.11095   0.00000  Uiso   1.00
H574   H     0.11887   0.87843   0.14705   0.00000  Uiso   1.00
O575   O     0.10895   0.87791   0.08798   0.00000  Uiso   1.00
C576   C     0.15532   0.88741   0.40534   0.00000  Uiso   1.00
H577   H     0.15538   0.90210   0.37385   0.00000  Uiso   1.00
O578   O     0.16490   0.90917   0.43372   0.00000  Uiso   1.00
N579   N     0.29958   0.85595   0.10479   0.00000  Uiso   1.00
O580   O     0.29309   0.88705   0.13453   0.00000  Uiso   1.00
O581   O     0.00883   0.83867   0.08657   0.00000  Uiso   1.00
N582   N     0.06365   0.76607   0.37881   0.00000  Uiso   1.00
O583   O     0.03500   0.78478   0.36205   0.00000  Uiso   1.00
O584   O     0.06428   0.72522   0.37904   0.00000  Uiso   1.00
C585   C     0.15944   0.95704   0.16990   0.00000  Uiso   1.00
H586   H     0.17084   0.92458   0.16283   0.00000  Uiso   1.00
O587   O     0.14621   0.97524   0.14211   0.00000  Uiso   1.00
C588   C     0.17944   0.71009   0.32912   0.00000  Uiso   1.00
H589   H     0.17611   0.74394   0.33301   0.00000  Uiso   1.00
O590   O     0.18795   0.69057   0.35901   0.00000  Uiso   1.00
N591   N     0.30206   0.76711   0.20713   0.00000  Uiso   1.00
O592   O     0.29791   0.77302   0.16714   0.00000  Uiso   1.00
O593   O     0.29866   0.72929   0.22330   0.00000  Uiso   1.00
N594   N     0.03283   0.90134   0.28912   0.00000  Uiso   1.00
O595   O     0.04265   0.93669   0.26709   0.00000  Uiso   1.00
O596   O     0.03904   0.89781   0.32847   0.00000  Uiso   1.00
C597   C     0.06375   0.76563   0.20613   0.00000  Uiso   1.00
H598   H     0.05575   0.73422   0.21984   0.00000  Uiso   1.00
O599   O     0.09815   0.77098   0.16992   0.00000  Uiso   1.00
C600   C     0.26795   0.89981   0.29566   0.00000  Uiso   1.00
H601   H     0.23191   0.89223   0.31844   0.00000  Uiso   1.00
O602   O     0.27965   0.93665   0.29109   0.00000  Uiso   1.00
O603   O     0.46179   0.89442   0.25001   0.00000  Uiso   1.00
O604   O     0.53821   0.77225   0.25000   0.00000  Uiso   1.00
O605   O     0.53823   0.89441   0.25000   0.00000  Uiso   1.00
O606   O     0.46177   0.77226   0.25000   0.00000  Uiso   1.00
C607   C     0.50027   0.91314   0.24942   0.00000  Uiso   1.00
C608   C     0.49947   0.75361   0.25145   0.00000  Uiso   1.00
O609   O     0.43994   0.83334   0.31613   0.00000  Uiso   1.00
O610   O     0.56006   0.83333   0.18388   0.00000  Uiso   1.00
O611   O     0.51639   0.83333   0.31612   0.00000  Uiso   1.00
O612   O     0.48361   0.83334   0.18388   0.00000  Uiso   1.00
C613   C     0.46964   0.83135   0.33774   0.00000  Uiso   1.00
C614   C     0.52999   0.83705   0.16213   0.00000  Uiso   1.00
Zn615  Zn    0.44896   0.83334   0.25000   0.00000  Uiso   1.00
Zn616  Zn    0.55104   0.83333   0.25000   0.00000  Uiso   1.00
C617   C     0.45057   0.82301   0.38780   0.00000  Uiso   1.00
C618   C     0.54801   0.84466   0.11121   0.00000  Uiso   1.00
C619   C     0.40952   0.77668   0.45201   0.00000  Uiso   1.00
C620   C     0.61315   0.84958   0.03489   0.00000  Uiso   1.00
C621   C     0.41854   0.78935   0.40631   0.00000  Uiso   1.00
C622   C     0.59791   0.84846   0.08380   0.00000  Uiso   1.00
C623   C     0.47286   0.84290   0.41518   0.00000  Uiso   1.00
C624   C     0.51464   0.84647   0.08855   0.00000  Uiso   1.00
C625   C     0.47332   0.82237   0.45507   0.00000  Uiso   1.00
C626   C     0.53139   0.83669   0.04060   0.00000  Uiso   1.00
C627   C     0.43653   0.79300   0.47729   0.00000  Uiso   1.00
C628   C     0.57993   0.84494   0.01252   0.00000  Uiso   1.00
C629   C     0.50984   0.82948   0.47295   0.00000  Uiso   1.00
C630   C     0.49997   0.82112   0.01979   0.00000  Uiso   1.00
C631   C     0.46021   0.79594   0.04448   0.00000  Uiso   1.00
C632   C     0.55681   0.84190   0.44464   0.00000  Uiso   1.00
C633   C     0.42963   0.77988   0.02306   0.00000  Uiso   1.00
C634   C     0.59260   0.84831   0.46346   0.00000  Uiso   1.00
H635   H     0.38381   0.75184   0.46568   0.00000  Uiso   1.00
H636   H     0.65120   0.85327   0.01516   0.00000  Uiso   1.00
H637   H     0.45429   0.78735   0.08001   0.00000  Uiso   1.00
H638   H     0.56627   0.84516   0.40732   0.00000  Uiso   1.00
C639   C     0.49445   0.97894   0.21216   0.00000  Uiso   1.00
C640   C     0.50674   0.68802   0.28864   0.00000  Uiso   1.00
C641   C     0.49272   0.68884   0.21497   0.00000  Uiso   1.00
C642   C     0.50717   0.97799   0.28637   0.00000  Uiso   1.00
H643   H     0.48839   0.70673   0.18709   0.00000  Uiso   1.00
H644   H     0.51182   0.96002   0.31401   0.00000  Uiso   1.00
C645   C     0.49914   0.70948   0.25243   0.00000  Uiso   1.00
C646   C     0.50078   0.95737   0.24884   0.00000  Uiso   1.00
C647   C     0.65037   0.80086   0.22972   0.00000  Uiso   1.00
C648   C     0.35001   0.86631   0.26933   0.00000  Uiso   1.00
C649   C     0.36481   0.80083   0.22973   0.00000  Uiso   1.00
C650   C     0.63512   0.86598   0.27019   0.00000  Uiso   1.00
N651   N     0.38093   0.83334   0.25001   0.00000  Uiso   1.00
N652   N     0.61907   0.83332   0.24999   0.00000  Uiso   1.00
C653   C     0.38990   0.75147   0.05022   0.00000  Uiso   1.00
H654   H     0.35916   0.74596   0.04033   0.00000  Uiso   1.00
O655   O     0.39063   0.73417   0.08505   0.00000  Uiso   1.00
C656   C     0.64084   0.86082   0.43028   0.00000  Uiso   1.00
H657   H     0.65137   0.85207   0.39369   0.00000  Uiso   1.00
O658   O     0.33452   0.88286   0.44217   0.00000  Uiso   1.00
C659   C     0.46623   0.86806   0.11095   0.00000  Uiso   1.00
H660   H     0.45221   0.87843   0.14705   0.00000  Uiso   1.00
O661   O     0.44228   0.87791   0.08798   0.00000  Uiso   1.00
C662   C     0.48865   0.88741   0.40534   0.00000  Uiso   1.00
H663   H     0.48871   0.90210   0.37385   0.00000  Uiso   1.00
O664   O     0.49823   0.90917   0.43372   0.00000  Uiso   1.00
N665   N     0.63291   0.85595   0.10479   0.00000  Uiso   1.00
O666   O     0.62643   0.88705   0.13453   0.00000  Uiso   1.00
O667   O     0.34216   0.83867   0.08657   0.00000  Uiso   1.00
N668   N     0.39699   0.76607   0.37881   0.00000  Uiso   1.00
O669   O     0.36833   0.78478   0.36205   0.00000  Uiso   1.00
O670   O     0.39761   0.72522   0.37904   0.00000  Uiso   1.00
C671   C     0.49278   0.95704   0.16990   0.00000  Uiso   1.00
H672   H     0.50417   0.92458   0.16283   0.00000  Uiso   1.00
O673   O     0.47954   0.97524   0.14211   0.00000  Uiso   1.00
C674   C     0.51277   0.71009   0.32912   0.00000  Uiso   1.00
H675   H     0.50944   0.74394   0.33301   0.00000  Uiso   1.00
O676   O     0.52128   0.69057   0.35901   0.00000  Uiso   1.00
N677   N     0.63540   0.76711   0.20713   0.00000  Uiso   1.00
O678   O     0.63124   0.77302   0.16714   0.00000  Uiso   1.00
O679   O     0.63199   0.72929   0.22330   0.00000  Uiso   1.00
N680   N     0.36616   0.90134   0.28912   0.00000  Uiso   1.00
O681   O     0.37599   0.93669   0.26709   0.00000  Uiso   1.00
O682   O     0.37237   0.89781   0.32847   0.00000  Uiso   1.00
C683   C     0.39709   0.76563   0.20613   0.00000  Uiso   1.00
H684   H     0.38909   0.73422   0.21984   0.00000  Uiso   1.00
O685   O     0.43148   0.77098   0.16992   0.00000  Uiso   1.00
C686   C     0.60128   0.89981   0.29566   0.00000  Uiso   1.00
H687   H     0.56524   0.89223   0.31844   0.00000  Uiso   1.00
O688   O     0.61298   0.93665   0.29109   0.00000  Uiso   1.00
O689   O     0.79512   0.89442   0.25001   0.00000  Uiso   1.00
O690   O     0.87154   0.77225   0.25000   0.00000  Uiso   1.00
O691   O     0.87157   0.89441   0.25000   0.00000  Uiso   1.00
O692   O     0.79510   0.77226   0.25000   0.00000  Uiso   1.00
C693   C     0.83361   0.91314   0.24942   0.00000  Uiso   1.00
C694   C     0.83280   0.75361   0.25145   0.00000  Uiso   1.00
O695   O     0.77328   0.83334   0.31613   0.00000  Uiso   1.00
O696   O     0.89339   0.83333   0.18388   0.00000  Uiso   1.00
O697   O     0.84972   0.83333   0.31612   0.00000  Uiso   1.00
O698   O     0.81695   0.83334   0.18388   0.00000  Uiso   1.00
C699   C     0.80297   0.83135   0.33774   0.00000  Uiso   1.00
C700   C     0.86333   0.83705   0.16213   0.00000  Uiso   1.00
Zn701  Zn    0.78229   0.83334   0.25000   0.00000  Uiso   1.00
Zn702  Zn    0.88438   0.83333   0.25000   0.00000  Uiso   1.00
C703   C     0.78390   0.82301   0.38780   0.00000  Uiso   1.00
C704   C     0.88134   0.84466   0.11121   0.00000  Uiso   1.00
C705   C     0.74285   0.77668   0.45201   0.00000  Uiso   1.00
C706   C     0.94649   0.84958   0.03489   0.00000  Uiso   1.00
C707   C     0.75187   0.78935   0.40631   0.00000  Uiso   1.00
C708   C     0.93125   0.84846   0.08380   0.00000  Uiso   1.00
C709   C     0.80620   0.84290   0.41518   0.00000  Uiso   1.00
C710   C     0.84797   0.84647   0.08855   0.00000  Uiso   1.00
C711   C     0.80666   0.82237   0.45507   0.00000  Uiso   1.00
C712   C     0.86472   0.83669   0.04060   0.00000  Uiso   1.00
C713   C     0.76986   0.79300   0.47729   0.00000  Uiso   1.00
C714   C     0.91327   0.84494   0.01252   0.00000  Uiso   1.00
C715   C     0.84317   0.82948   0.47295   0.00000  Uiso   1.00
C716   C     0.83330   0.82112   0.01979   0.00000  Uiso   1.00
C717   C     0.79355   0.79594   0.04448   0.00000  Uiso   1.00
C718   C     0.89014   0.84190   0.44464   0.00000  Uiso   1.00
C719   C     0.76296   0.77988   0.02306   0.00000  Uiso   1.00
C720   C     0.92593   0.84831   0.46346   0.00000  Uiso   1.00
H721   H     0.71715   0.75184   0.46568   0.00000  Uiso   1.00
H722   H     0.98453   0.85327   0.01516   0.00000  Uiso   1.00
H723   H     0.78763   0.78735   0.08001   0.00000  Uiso   1.00
H724   H     0.89960   0.84516   0.40732   0.00000  Uiso   1.00
C725   C     0.82778   0.97894   0.21216   0.00000  Uiso   1.00
C726   C     0.84008   0.68802   0.28864   0.00000  Uiso   1.00
C727   C     0.82606   0.68884   0.21497   0.00000  Uiso   1.00
C728   C     0.84051   0.97799   0.28637   0.00000  Uiso   1.00
H729   H     0.82172   0.70673   0.18709   0.00000  Uiso   1.00
H730   H     0.84515   0.96002   0.31401   0.00000  Uiso   1.00
C731   C     0.83248   0.70948   0.25243   0.00000  Uiso   1.00
C732   C     0.83411   0.95737   0.24884   0.00000  Uiso   1.00
C733   C     0.98370   0.80086   0.22972   0.00000  Uiso   1.00
C734   C     0.68334   0.86631   0.26933   0.00000  Uiso   1.00
C735   C     0.69814   0.80083   0.22973   0.00000  Uiso   1.00
C736   C     0.96845   0.86598   0.27019   0.00000  Uiso   1.00
N737   N     0.71426   0.83334   0.25001   0.00000  Uiso   1.00
N738   N     0.95241   0.83332   0.24999   0.00000  Uiso   1.00
C739   C     0.72324   0.75147   0.05022   0.00000  Uiso   1.00
H740   H     0.69250   0.74596   0.04033   0.00000  Uiso   1.00
O741   O     0.72396   0.73417   0.08505   0.00000  Uiso   1.00
C742   C     0.97418   0.86082   0.43028   0.00000  Uiso   1.00
H743   H     0.98471   0.85207   0.39369   0.00000  Uiso   1.00
O744   O     0.66785   0.88286   0.44217   0.00000  Uiso   1.00
C745   C     0.79956   0.86806   0.11095   0.00000  Uiso   1.00
H746   H     0.78554   0.87843   0.14705   0.00000  Uiso   1.00
O747   O     0.77562   0.87791   0.08798   0.00000  Uiso   1.00
C748   C     0.82198   0.88741   0.40534   0.00000  Uiso   1.00
H749   H     0.82204   0.90210   0.37385   0.00000  Uiso   1.00
O750   O     0.83157   0.90917   0.43372   0.00000  Uiso   1.00
N751   N     0.96625   0.85595   0.10479   0.00000  Uiso   1.00
O752   O     0.95976   0.88705   0.13453   0.00000  Uiso   1.00
O753   O     0.67549   0.83867   0.08657   0.00000  Uiso   1.00
N754   N     0.73032   0.76607   0.37881   0.00000  Uiso   1.00
O755   O     0.70167   0.78478   0.36205   0.00000  Uiso   1.00
O756   O     0.73095   0.72522   0.37904   0.00000  Uiso   1.00
C757   C     0.82611   0.95704   0.16990   0.00000  Uiso   1.00
H758   H     0.83750   0.92458   0.16283   0.00000  Uiso   1.00
O759   O     0.81287   0.97524   0.14211   0.00000  Uiso   1.00
C760   C     0.84610   0.71009   0.32912   0.00000  Uiso   1.00
H761   H     0.84277   0.74394   0.33301   0.00000  Uiso   1.00
O762   O     0.85462   0.69057   0.35901   0.00000  Uiso   1.00
N763   N     0.96873   0.76711   0.20713   0.00000  Uiso   1.00
O764   O     0.96458   0.77302   0.16714   0.00000  Uiso   1.00
O765   O     0.96532   0.72929   0.22330   0.00000  Uiso   1.00
N766   N     0.69949   0.90134   0.28912   0.00000  Uiso   1.00
O767   O     0.70932   0.93669   0.26709   0.00000  Uiso   1.00
O768   O     0.70571   0.89781   0.32847   0.00000  Uiso   1.00
C769   C     0.73042   0.76563   0.20613   0.00000  Uiso   1.00
H770   H     0.72242   0.73422   0.21984   0.00000  Uiso   1.00
O771   O     0.76482   0.77098   0.16992   0.00000  Uiso   1.00
C772   C     0.93461   0.89981   0.29566   0.00000  Uiso   1.00
H773   H     0.89858   0.89223   0.31844   0.00000  Uiso   1.00
O774   O     0.94631   0.93665   0.29109   0.00000  Uiso   1.00
O775   O     0.12846   0.22775   0.75001   0.00000  Uiso   1.00
O776   O     0.20488   0.10558   0.75000   0.00000  Uiso   1.00
O777   O     0.20490   0.22774   0.75000   0.00000  Uiso   1.00
O778   O     0.12843   0.10559   0.75000   0.00000  Uiso   1.00
C779   C     0.16694   0.24647   0.74942   0.00000  Uiso   1.00
C780   C     0.16614   0.08695   0.75145   0.00000  Uiso   1.00
O781   O     0.10661   0.16667   0.81613   0.00000  Uiso   1.00
O782   O     0.22672   0.16666   0.68388   0.00000  Uiso   1.00
O783   O     0.18305   0.16666   0.81612   0.00000  Uiso   1.00
O784   O     0.15028   0.16667   0.68388   0.00000  Uiso   1.00
C785   C     0.13631   0.16468   0.83774   0.00000  Uiso   1.00
C786   C     0.19666   0.17038   0.66213   0.00000  Uiso   1.00
Zn787  Zn    0.11562   0.16667   0.75000   0.00000  Uiso   1.00
Zn788  Zn    0.21771   0.16666   0.75000   0.00000  Uiso   1.00
C789   C     0.11724   0.15635   0.88780   0.00000  Uiso   1.00
C790   C     0.21468   0.17799   0.61121   0.00000  Uiso   1.00
C791   C     0.07618   0.11002   0.95201   0.00000  Uiso   1.00
C792   C     0.27982   0.18291   0.53489   0.00000  Uiso   1.00
C793   C     0.08521   0.12268   0.90631   0.00000  Uiso   1.00
C794   C     0.26458   0.18179   0.58380   0.00000  Uiso   1.00
C795   C     0.13953   0.17623   0.91518   0.00000  Uiso   1.00
C796   C     0.18131   0.17981   0.58855   0.00000  Uiso   1.00
C797   C     0.13999   0.15570   0.95507   0.00000  Uiso   1.00
C798   C     0.19805   0.17002   0.54060   0.00000  Uiso   1.00
C799   C     0.10319   0.12633   0.97729   0.00000  Uiso   1.00
C800   C     0.24660   0.17827   0.51252   0.00000  Uiso   1.00
C801   C     0.17650   0.16281   0.97295   0.00000  Uiso   1.00
C802   C     0.16664   0.15445   0.51979   0.00000  Uiso   1.00
C803   C     0.12688   0.12927   0.54448   0.00000  Uiso   1.00
C804   C     0.22348   0.17523   0.94464   0.00000  Uiso   1.00
C805   C     0.09630   0.11322   0.52306   0.00000  Uiso   1.00
C806   C     0.25927   0.18164   0.96346   0.00000  Uiso   1.00
H807   H     0.05048   0.08518   0.96568   0.00000  Uiso   1.00
H808   H     0.31786   0.18661   0.51516   0.00000  Uiso   1.00
H809   H     0.12096   0.12069   0.58001   0.00000  Uiso   1.00
H810   H     0.23293   0.17850   0.90732   0.00000  Uiso   1.00
C811   C     0.16111   0.31227   0.71216   0.00000  Uiso   1.00
C812   C     0.17341   0.02135   0.78864   0.00000  Uiso   1.00
C813   C     0.15939   0.02217   0.71497   0.00000  Uiso   1.00
C814   C     0.17384   0.31132   0.78637   0.00000  Uiso   1.00
H815   H     0.15506   0.04006   0.68709   0.00000  Uiso   1.00
H816   H     0.17848   0.29335   0.81401   0.00000  Uiso   1.00
C817   C     0.16581   0.04282   0.75243   0.00000  Uiso   1.00
C818   C     0.16745   0.29070   0.74884   0.00000  Uiso   1.00
C819   C     0.31703   0.13420   0.72972   0.00000  Uiso   1.00
C820   C     0.01667   0.19965   0.76933   0.00000  Uiso   1.00
C821   C     0.03147   0.13416   0.72973   0.00000  Uiso   1.00
C822   C     0.30178   0.19931   0.77019   0.00000  Uiso   1.00
N823   N     0.04759   0.16668   0.75001   0.00000  Uiso   1.00
N824   N     0.28574   0.16666   0.74999   0.00000  Uiso   1.00
C825   C     0.05657   0.08480   0.55022   0.00000  Uiso   1.00
H826   H     0.02583   0.07930   0.54033   0.00000  Uiso   1.00
O827   O     0.05730   0.06751   0.58505   0.00000  Uiso   1.00
C828   C     0.30751   0.19415   0.93028   0.00000  Uiso   1.00
H829   H     0.31804   0.18541   0.89369   0.00000  Uiso   1.00
O830   O     0.00119   0.21619   0.94217   0.00000  Uiso   1.00
C831   C     0.13289   0.20139   0.61095   0.00000  Uiso   1.00
H832   H     0.11887   0.21176   0.64705   0.00000  Uiso   1.00
O833   O     0.10895   0.21124   0.58798   0.00000  Uiso   1.00
C834   C     0.15532   0.22074   0.90534   0.00000  Uiso   1.00
H835   H     0.15538   0.23544   0.87385   0.00000  Uiso   1.00
O836   O     0.16490   0.24250   0.93372   0.00000  Uiso   1.00
N837   N     0.29958   0.18928   0.60479   0.00000  Uiso   1.00
O838   O     0.29309   0.22038   0.63453   0.00000  Uiso   1.00
O839   O     0.00883   0.17201   0.58657   0.00000  Uiso   1.00
N840   N     0.06365   0.09940   0.87881   0.00000  Uiso   1.00
O841   O     0.03500   0.11811   0.86205   0.00000  Uiso   1.00
O842   O     0.06428   0.05856   0.87904   0.00000  Uiso   1.00
C843   C     0.15944   0.29038   0.66990   0.00000  Uiso   1.00
H844   H     0.17084   0.25792   0.66283   0.00000  Uiso   1.00
O845   O     0.14621   0.30857   0.64211   0.00000  Uiso   1.00
C846   C     0.17944   0.04343   0.82912   0.00000  Uiso   1.00
H847   H     0.17611   0.07728   0.83301   0.00000  Uiso   1.00
O848   O     0.18795   0.02390   0.85901   0.00000  Uiso   1.00
N849   N     0.30206   0.10045   0.70713   0.00000  Uiso   1.00
O850   O     0.29791   0.10636   0.66714   0.00000  Uiso   1.00
O851   O     0.29866   0.06263   0.72330   0.00000  Uiso   1.00
N852   N     0.03283   0.23467   0.78912   0.00000  Uiso   1.00
O853   O     0.04265   0.27002   0.76709   0.00000  Uiso   1.00
O854   O     0.03904   0.23115   0.82847   0.00000  Uiso   1.00
C855   C     0.06375   0.09897   0.70613   0.00000  Uiso   1.00
H856   H     0.05575   0.06755   0.71984   0.00000  Uiso   1.00
O857   O     0.09815   0.10431   0.66992   0.00000  Uiso   1.00
C858   C     0.26795   0.23314   0.79566   0.00000  Uiso   1.00
H859   H     0.23191   0.22557   0.81844   0.00000  Uiso   1.00
O860   O     0.27965   0.26998   0.79109   0.00000  Uiso   1.00
O861   O     0.46179   0.22775   0.75001   0.00000  Uiso   1.00
O862   O     0.53821   0.10558   0.75000   0.00000  Uiso   1.00
O863   O     0.53823   0.22774   0.75000   0.00000  Uiso   1.00
O864   O     0.46177   0.10559   0.75000   0.00000  Uiso   1.00
C865   C     0.50027   0.24647   0.74942   0.00000  Uiso   1.00
C866   C     0.49947   0.08695   0.75145   0.00000  Uiso   1.00
O867   O     0.43994   0.16667   0.81613   0.00000  Uiso   1.00
O868   O     0.56006   0.16666   0.68388   0.00000  Uiso   1.00
O869   O     0.51639   0.16666   0.81612   0.00000  Uiso   1.00
O870   O     0.48361   0.16667   0.68388   0.00000  Uiso   1.00
C871   C     0.46964   0.16468   0.83774   0.00000  Uiso   1.00
C872   C     0.52999   0.17038   0.66213   0.00000  Uiso   1.00
Zn873  Zn    0.44896   0.16667   0.75000   0.00000  Uiso   1.00
Zn874  Zn    0.55104   0.16666   0.75000   0.00000  Uiso   1.00
C875   C     0.45057   0.15635   0.88780   0.00000  Uiso   1.00
C876   C     0.54801   0.17799   0.61121   0.00000  Uiso   1.00
C877   C     0.40952   0.11002   0.95201   0.00000  Uiso   1.00
C878   C     0.61315   0.18291   0.53489   0.00000  Uiso   1.00
C879   C     0.41854   0.12268   0.90631   0.00000  Uiso   1.00
C880   C     0.59791   0.18179   0.58380   0.00000  Uiso   1.00
C881   C     0.47286   0.17623   0.91518   0.00000  Uiso   1.00
C882   C     0.51464   0.17981   0.58855   0.00000  Uiso   1.00
C883   C     0.47332   0.15570   0.95507   0.00000  Uiso   1.00
C884   C     0.53139   0.17002   0.54060   0.00000  Uiso   1.00
C885   C     0.43653   0.12633   0.97729   0.00000  Uiso   1.00
C886   C     0.57993   0.17827   0.51252   0.00000  Uiso   1.00
C887   C     0.50984   0.16281   0.97295   0.00000  Uiso   1.00
C888   C     0.49997   0.15445   0.51979   0.00000  Uiso   1.00
C889   C     0.46021   0.12927   0.54448   0.00000  Uiso   1.00
C890   C     0.55681   0.17523   0.94464   0.00000  Uiso   1.00
C891   C     0.42963   0.11322   0.52306   0.00000  Uiso   1.00
C892   C     0.59260   0.18164   0.96346   0.00000  Uiso   1.00
H893   H     0.38381   0.08518   0.96568   0.00000  Uiso   1.00
H894   H     0.65120   0.18661   0.51516   0.00000  Uiso   1.00
H895   H     0.45429   0.12069   0.58001   0.00000  Uiso   1.00
H896   H     0.56627   0.17850   0.90732   0.00000  Uiso   1.00
C897   C     0.49445   0.31227   0.71216   0.00000  Uiso   1.00
C898   C     0.50674   0.02135   0.78864   0.00000  Uiso   1.00
C899   C     0.49272   0.02217   0.71497   0.00000  Uiso   1.00
C900   C     0.50717   0.31132   0.78637   0.00000  Uiso   1.00
H901   H     0.48839   0.04006   0.68709   0.00000  Uiso   1.00
H902   H     0.51182   0.29335   0.81401   0.00000  Uiso   1.00
C903   C     0.49914   0.04282   0.75243   0.00000  Uiso   1.00
C904   C     0.50078   0.29070   0.74884   0.00000  Uiso   1.00
C905   C     0.65037   0.13420   0.72972   0.00000  Uiso   1.00
C906   C     0.35001   0.19965   0.76933   0.00000  Uiso   1.00
C907   C     0.36481   0.13416   0.72973   0.00000  Uiso   1.00
C908   C     0.63512   0.19931   0.77019   0.00000  Uiso   1.00
N909   N     0.38093   0.16668   0.75001   0.00000  Uiso   1.00
N910   N     0.61907   0.16666   0.74999   0.00000  Uiso   1.00
C911   C     0.38990   0.08480   0.55022   0.00000  Uiso   1.00
H912   H     0.35916   0.07930   0.54033   0.00000  Uiso   1.00
O913   O     0.39063   0.06751   0.58505   0.00000  Uiso   1.00
C914   C     0.64084   0.19415   0.93028   0.00000  Uiso   1.00
H915   H     0.65137   0.18541   0.89369   0.00000  Uiso   1.00
O916   O     0.33452   0.21619   0.94217   0.00000  Uiso   1.00
C917   C     0.46623   0.20139   0.61095   0.00000  Uiso   1.00
H918   H     0.45221   0.21176   0.64705   0.00000  Uiso   1.00
O919   O     0.44228   0.21124   0.58798   0.00000  Uiso   1.00
C920   C     0.48865   0.22074   0.90534   0.00000  Uiso   1.00
H921   H     0.48871   0.23544   0.87385   0.00000  Uiso   1.00
O922   O     0.49823   0.24250   0.93372   0.00000  Uiso   1.00
N923   N     0.63291   0.18928   0.60479   0.00000  Uiso   1.00
O924   O     0.62643   0.22038   0.63453   0.00000  Uiso   1.00
O925   O     0.34216   0.17201   0.58657   0.00000  Uiso   1.00
N926   N     0.39699   0.09940   0.87881   0.00000  Uiso   1.00
O927   O     0.36833   0.11811   0.86205   0.00000  Uiso   1.00
O928   O     0.39761   0.05856   0.87904   0.00000  Uiso   1.00
C929   C     0.49278   0.29038   0.66990   0.00000  Uiso   1.00
H930   H     0.50417   0.25792   0.66283   0.00000  Uiso   1.00
O931   O     0.47954   0.30857   0.64211   0.00000  Uiso   1.00
C932   C     0.51277   0.04343   0.82912   0.00000  Uiso   1.00
H933   H     0.50944   0.07728   0.83301   0.00000  Uiso   1.00
O934   O     0.52128   0.02390   0.85901   0.00000  Uiso   1.00
N935   N     0.63540   0.10045   0.70713   0.00000  Uiso   1.00
O936   O     0.63124   0.10636   0.66714   0.00000  Uiso   1.00
O937   O     0.63199   0.06263   0.72330   0.00000  Uiso   1.00
N938   N     0.36616   0.23467   0.78912   0.00000  Uiso   1.00
O939   O     0.37599   0.27002   0.76709   0.00000  Uiso   1.00
O940   O     0.37237   0.23115   0.82847   0.00000  Uiso   1.00
C941   C     0.39709   0.09897   0.70613   0.00000  Uiso   1.00
H942   H     0.38909   0.06755   0.71984   0.00000  Uiso   1.00
O943   O     0.43148   0.10431   0.66992   0.00000  Uiso   1.00
C944   C     0.60128   0.23314   0.79566   0.00000  Uiso   1.00
H945   H     0.56524   0.22557   0.81844   0.00000  Uiso   1.00
O946   O     0.61298   0.26998   0.79109   0.00000  Uiso   1.00
O947   O     0.79512   0.22775   0.75001   0.00000  Uiso   1.00
O948   O     0.87154   0.10558   0.75000   0.00000  Uiso   1.00
O949   O     0.87157   0.22774   0.75000   0.00000  Uiso   1.00
O950   O     0.79510   0.10559   0.75000   0.00000  Uiso   1.00
C951   C     0.83361   0.24647   0.74942   0.00000  Uiso   1.00
C952   C     0.83280   0.08695   0.75145   0.00000  Uiso   1.00
O953   O     0.77328   0.16667   0.81613   0.00000  Uiso   1.00
O954   O     0.89339   0.16666   0.68388   0.00000  Uiso   1.00
O955   O     0.84972   0.16666   0.81612   0.00000  Uiso   1.00
O956   O     0.81695   0.16667   0.68388   0.00000  Uiso   1.00
C957   C     0.80297   0.16468   0.83774   0.00000  Uiso   1.00
C958   C     0.86333   0.17038   0.66213   0.00000  Uiso   1.00
Zn959  Zn    0.78229   0.16667   0.75000   0.00000  Uiso   1.00
Zn960  Zn    0.88438   0.16666   0.75000   0.00000  Uiso   1.00
C961   C     0.78390   0.15635   0.88780   0.00000  Uiso   1.00
C962   C     0.88134   0.17799   0.61121   0.00000  Uiso   1.00
C963   C     0.74285   0.11002   0.95201   0.00000  Uiso   1.00
C964   C     0.94649   0.18291   0.53489   0.00000  Uiso   1.00
C965   C     0.75187   0.12268   0.90631   0.00000  Uiso   1.00
C966   C     0.93125   0.18179   0.58380   0.00000  Uiso   1.00
C967   C     0.80620   0.17623   0.91518   0.00000  Uiso   1.00
C968   C     0.84797   0.17981   0.58855   0.00000  Uiso   1.00
C969   C     0.80666   0.15570   0.95507   0.00000  Uiso   1.00
C970   C     0.86472   0.17002   0.54060   0.00000  Uiso   1.00
C971   C     0.76986   0.12633   0.97729   0.00000  Uiso   1.00
C972   C     0.91327   0.17827   0.51252   0.00000  Uiso   1.00
C973   C     0.84317   0.16281   0.97295   0.00000  Uiso   1.00
C974   C     0.83330   0.15445   0.51979   0.00000  Uiso   1.00
C975   C     0.79355   0.12927   0.54448   0.00000  Uiso   1.00
C976   C     0.89014   0.17523   0.94464   0.00000  Uiso   1.00
C977   C     0.76296   0.11322   0.52306   0.00000  Uiso   1.00
C978   C     0.92593   0.18164   0.96346   0.00000  Uiso   1.00
H979   H     0.71715   0.08518   0.96568   0.00000  Uiso   1.00
H980   H     0.98453   0.18661   0.51516   0.00000  Uiso   1.00
H981   H     0.78763   0.12069   0.58001   0.00000  Uiso   1.00
H982   H     0.89960   0.17850   0.90732   0.00000  Uiso   1.00
C983   C     0.82778   0.31227   0.71216   0.00000  Uiso   1.00
C984   C     0.84008   0.02135   0.78864   0.00000  Uiso   1.00
C985   C     0.82606   0.02217   0.71497   0.00000  Uiso   1.00
C986   C     0.84051   0.31132   0.78637   0.00000  Uiso   1.00
H987   H     0.82172   0.04006   0.68709   0.00000  Uiso   1.00
H988   H     0.84515   0.29335   0.81401   0.00000  Uiso   1.00
C989   C     0.83248   0.04282   0.75243   0.00000  Uiso   1.00
C990   C     0.83411   0.29070   0.74884   0.00000  Uiso   1.00
C991   C     0.98370   0.13420   0.72972   0.00000  Uiso   1.00
C992   C     0.68334   0.19965   0.76933   0.00000  Uiso   1.00
C993   C     0.69814   0.13416   0.72973   0.00000  Uiso   1.00
C994   C     0.96845   0.19931   0.77019   0.00000  Uiso   1.00
N995   N     0.71426   0.16668   0.75001   0.00000  Uiso   1.00
N996   N     0.95241   0.16666   0.74999   0.00000  Uiso   1.00
C997   C     0.72324   0.08480   0.55022   0.00000  Uiso   1.00
H998   H     0.69250   0.07930   0.54033   0.00000  Uiso   1.00
O999   O     0.72396   0.06751   0.58505   0.00000  Uiso   1.00
C1000  C     0.97418   0.19415   0.93028   0.00000  Uiso   1.00
H1001  H     0.98471   0.18541   0.89369   0.00000  Uiso   1.00
O1002  O     0.66785   0.21619   0.94217   0.00000  Uiso   1.00
C1003  C     0.79956   0.20139   0.61095   0.00000  Uiso   1.00
H1004  H     0.78554   0.21176   0.64705   0.00000  Uiso   1.00
O1005  O     0.77562   0.21124   0.58798   0.00000  Uiso   1.00
C1006  C     0.82198   0.22074   0.90534   0.00000  Uiso   1.00
H1007  H     0.82204   0.23544   0.87385   0.00000  Uiso   1.00
O1008  O     0.83157   0.24250   0.93372   0.00000  Uiso   1.00
N1009  N     0.96625   0.18928   0.60479   0.00000  Uiso   1.00
O1010  O     0.95976   0.22038   0.63453   0.00000  Uiso   1.00
O1011  O     0.67549   0.17201   0.58657   0.00000  Uiso   1.00
N1012  N     0.73032   0.09940   0.87881   0.00000  Uiso   1.00
O1013  O     0.70167   0.11811   0.86205   0.00000  Uiso   1.00
O1014  O     0.73095   0.05856   0.87904   0.00000  Uiso   1.00
C1015  C     0.82611   0.29038   0.66990   0.00000  Uiso   1.00
H1016  H     0.83750   0.25792   0.66283   0.00000  Uiso   1.00
O1017  O     0.81287   0.30857   0.64211   0.00000  Uiso   1.00
C1018  C     0.84610   0.04343   0.82912   0.00000  Uiso   1.00
H1019  H     0.84277   0.07728   0.83301   0.00000  Uiso   1.00
O1020  O     0.85462   0.02390   0.85901   0.00000  Uiso   1.00
N1021  N     0.96873   0.10045   0.70713   0.00000  Uiso   1.00
O1022  O     0.96458   0.10636   0.66714   0.00000  Uiso   1.00
O1023  O     0.96532   0.06263   0.72330   0.00000  Uiso   1.00
N1024  N     0.69949   0.23467   0.78912   0.00000  Uiso   1.00
O1025  O     0.70932   0.27002   0.76709   0.00000  Uiso   1.00
O1026  O     0.70571   0.23115   0.82847   0.00000  Uiso   1.00
C1027  C     0.73042   0.09897   0.70613   0.00000  Uiso   1.00
H1028  H     0.72242   0.06755   0.71984   0.00000  Uiso   1.00
O1029  O     0.76482   0.10431   0.66992   0.00000  Uiso   1.00
C1030  C     0.93461   0.23314   0.79566   0.00000  Uiso   1.00
H1031  H     0.89858   0.22557   0.81844   0.00000  Uiso   1.00
O1032  O     0.94631   0.26998   0.79109   0.00000  Uiso   1.00
O1033  O     0.12846   0.56108   0.75001   0.00000  Uiso   1.00
O1034  O     0.20488   0.43892   0.75000   0.00000  Uiso   1.00
O1035  O     0.20490   0.56107   0.75000   0.00000  Uiso   1.00
O1036  O     0.12843   0.43893   0.75000   0.00000  Uiso   1.00
C1037  C     0.16694   0.57980   0.74942   0.00000  Uiso   1.00
C1038  C     0.16614   0.42028   0.75145   0.00000  Uiso   1.00
O1039  O     0.10661   0.50001   0.81613   0.00000  Uiso   1.00
O1040  O     0.22672   0.49999   0.68388   0.00000  Uiso   1.00
O1041  O     0.18305   0.50000   0.81612   0.00000  Uiso   1.00
O1042  O     0.15028   0.50000   0.68388   0.00000  Uiso   1.00
C1043  C     0.13631   0.49802   0.83774   0.00000  Uiso   1.00
C1044  C     0.19666   0.50371   0.66213   0.00000  Uiso   1.00
Zn1045 Zn    0.11562   0.50001   0.75000   0.00000  Uiso   1.00
Zn1046 Zn    0.21771   0.49999   0.75000   0.00000  Uiso   1.00
C1047  C     0.11724   0.48968   0.88780   0.00000  Uiso   1.00
C1048  C     0.21468   0.51132   0.61121   0.00000  Uiso   1.00
C1049  C     0.07618   0.44335   0.95201   0.00000  Uiso   1.00
C1050  C     0.27982   0.51624   0.53489   0.00000  Uiso   1.00
C1051  C     0.08521   0.45602   0.90631   0.00000  Uiso   1.00
C1052  C     0.26458   0.51513   0.58380   0.00000  Uiso   1.00
C1053  C     0.13953   0.50957   0.91518   0.00000  Uiso   1.00
C1054  C     0.18131   0.51314   0.58855   0.00000  Uiso   1.00
C1055  C     0.13999   0.48904   0.95507   0.00000  Uiso   1.00
C1056  C     0.19805   0.50336   0.54060   0.00000  Uiso   1.00
C1057  C     0.10319   0.45967   0.97729   0.00000  Uiso   1.00
C1058  C     0.24660   0.51160   0.51252   0.00000  Uiso   1.00
C1059  C     0.17650   0.49615   0.97295   0.00000  Uiso   1.00
C1060  C     0.16664   0.48778   0.51979   0.00000  Uiso   1.00
C1061  C     0.12688   0.46261   0.54448   0.00000  Uiso   1.00
C1062  C     0.22348   0.50856   0.94464   0.00000  Uiso   1.00
C1063  C     0.09630   0.44655   0.52306   0.00000  Uiso   1.00
C1064  C     0.25927   0.51498   0.96346   0.00000  Uiso   1.00
H1065  H     0.05048   0.41851   0.96568   0.00000  Uiso   1.00
H1066  H     0.31786   0.51994   0.51516   0.00000  Uiso   1.00
H1067  H     0.12096   0.45402   0.58001   0.00000  Uiso   1.00
H1068  H     0.23293   0.51183   0.90732   0.00000  Uiso   1.00
C1069  C     0.16111   0.64560   0.71216   0.00000  Uiso   1.00
C1070  C     0.17341   0.35469   0.78864   0.00000  Uiso   1.00
C1071  C     0.15939   0.35551   0.71497   0.00000  Uiso   1.00
C1072  C     0.17384   0.64466   0.78637   0.00000  Uiso   1.00
H1073  H     0.15506   0.37339   0.68709   0.00000  Uiso   1.00
H1074  H     0.17848   0.62669   0.81401   0.00000  Uiso   1.00
C1075  C     0.16581   0.37615   0.75243   0.00000  Uiso   1.00
C1076  C     0.16745   0.62403   0.74884   0.00000  Uiso   1.00
C1077  C     0.31703   0.46753   0.72972   0.00000  Uiso   1.00
C1078  C     0.01667   0.53298   0.76933   0.00000  Uiso   1.00
C1079  C     0.03147   0.46750   0.72973   0.00000  Uiso   1.00
C1080  C     0.30178   0.53265   0.77019   0.00000  Uiso   1.00
N1081  N     0.04759   0.50001   0.75001   0.00000  Uiso   1.00
N1082  N     0.28574   0.49999   0.74999   0.00000  Uiso   1.00
C1083  C     0.05657   0.41813   0.55022   0.00000  Uiso   1.00
H1084  H     0.02583   0.41263   0.54033   0.00000  Uiso   1.00
O1085  O     0.05730   0.40084   0.58505   0.00000  Uiso   1.00
C1086  C     0.30751   0.52749   0.93028   0.00000  Uiso   1.00
H1087  H     0.31804   0.51874   0.89369   0.00000  Uiso   1.00
O1088  O     0.00119   0.54953   0.94217   0.00000  Uiso   1.00
C1089  C     0.13289   0.53473   0.61095   0.00000  Uiso   1.00
H1090  H     0.11887   0.54509   0.64705   0.00000  Uiso   1.00
O1091  O     0.10895   0.54458   0.58798   0.00000  Uiso   1.00
C1092  C     0.15532   0.55407   0.90534   0.00000  Uiso   1.00
H1093  H     0.15538   0.56877   0.87385   0.00000  Uiso   1.00
O1094  O     0.16490   0.57583   0.93372   0.00000  Uiso   1.00
N1095  N     0.29958   0.52262   0.60479   0.00000  Uiso   1.00
O1096  O     0.29309   0.55371   0.63453   0.00000  Uiso   1.00
O1097  O     0.00883   0.50534   0.58657   0.00000  Uiso   1.00
N1098  N     0.06365   0.43274   0.87881   0.00000  Uiso   1.00
O1099  O     0.03500   0.45145   0.86205   0.00000  Uiso   1.00
O1100  O     0.06428   0.39189   0.87904   0.00000  Uiso   1.00
C1101  C     0.15944   0.62371   0.66990   0.00000  Uiso   1.00
H1102  H     0.17084   0.59125   0.66283   0.00000  Uiso   1.00
O1103  O     0.14621   0.64191   0.64211   0.00000  Uiso   1.00
C1104  C     0.17944   0.37676   0.82912   0.00000  Uiso   1.00
H1105  H     0.17611   0.41061   0.83301   0.00000  Uiso   1.00
O1106  O     0.18795   0.35723   0.85901   0.00000  Uiso   1.00
N1107  N     0.30206   0.43378   0.70713   0.00000  Uiso   1.00
O1108  O     0.29791   0.43969   0.66714   0.00000  Uiso   1.00
O1109  O     0.29866   0.39596   0.72330   0.00000  Uiso   1.00
N1110  N     0.03283   0.56801   0.78912   0.00000  Uiso   1.00
O1111  O     0.04265   0.60336   0.76709   0.00000  Uiso   1.00
O1112  O     0.03904   0.56448   0.82847   0.00000  Uiso   1.00
C1113  C     0.06375   0.43230   0.70613   0.00000  Uiso   1.00
H1114  H     0.05575   0.40088   0.71984   0.00000  Uiso   1.00
O1115  O     0.09815   0.43765   0.66992   0.00000  Uiso   1.00
C1116  C     0.26795   0.56648   0.79566   0.00000  Uiso   1.00
H1117  H     0.23191   0.55890   0.81844   0.00000  Uiso   1.00
O1118  O     0.27965   0.60331   0.79109   0.00000  Uiso   1.00
O1119  O     0.46179   0.56108   0.75001   0.00000  Uiso   1.00
O1120  O     0.53821   0.43892   0.75000   0.00000  Uiso   1.00
O1121  O     0.53823   0.56107   0.75000   0.00000  Uiso   1.00
O1122  O     0.46177   0.43893   0.75000   0.00000  Uiso   1.00
C1123  C     0.50027   0.57980   0.74942   0.00000  Uiso   1.00
C1124  C     0.49947   0.42028   0.75145   0.00000  Uiso   1.00
O1125  O     0.43994   0.50001   0.81613   0.00000  Uiso   1.00
O1126  O     0.56006   0.49999   0.68388   0.00000  Uiso   1.00
O1127  O     0.51639   0.50000   0.81612   0.00000  Uiso   1.00
O1128  O     0.48361   0.50000   0.68388   0.00000  Uiso   1.00
C1129  C     0.46964   0.49802   0.83774   0.00000  Uiso   1.00
C1130  C     0.52999   0.50371   0.66213   0.00000  Uiso   1.00
Zn1131 Zn    0.44896   0.50001   0.75000   0.00000  Uiso   1.00
Zn1132 Zn    0.55104   0.49999   0.75000   0.00000  Uiso   1.00
C1133  C     0.45057   0.48968   0.88780   0.00000  Uiso   1.00
C1134  C     0.54801   0.51132   0.61121   0.00000  Uiso   1.00
C1135  C     0.40952   0.44335   0.95201   0.00000  Uiso   1.00
C1136  C     0.61315   0.51624   0.53489   0.00000  Uiso   1.00
C1137  C     0.41854   0.45602   0.90631   0.00000  Uiso   1.00
C1138  C     0.59791   0.51513   0.58380   0.00000  Uiso   1.00
C1139  C     0.47286   0.50957   0.91518   0.00000  Uiso   1.00
C1140  C     0.51464   0.51314   0.58855   0.00000  Uiso   1.00
C1141  C     0.47332   0.48904   0.95507   0.00000  Uiso   1.00
C1142  C     0.53139   0.50336   0.54060   0.00000  Uiso   1.00
C1143  C     0.43653   0.45967   0.97729   0.00000  Uiso   1.00
C1144  C     0.57993   0.51160   0.51252   0.00000  Uiso   1.00
C1145  C     0.50984   0.49615   0.97295   0.00000  Uiso   1.00
C1146  C     0.49997   0.48778   0.51979   0.00000  Uiso   1.00
C1147  C     0.46021   0.46261   0.54448   0.00000  Uiso   1.00
C1148  C     0.55681   0.50856   0.94464   0.00000  Uiso   1.00
C1149  C     0.42963   0.44655   0.52306   0.00000  Uiso   1.00
C1150  C     0.59260   0.51498   0.96346   0.00000  Uiso   1.00
H1151  H     0.38381   0.41851   0.96568   0.00000  Uiso   1.00
H1152  H     0.65120   0.51994   0.51516   0.00000  Uiso   1.00
H1153  H     0.45429   0.45402   0.58001   0.00000  Uiso   1.00
H1154  H     0.56627   0.51183   0.90732   0.00000  Uiso   1.00
C1155  C     0.49445   0.64560   0.71216   0.00000  Uiso   1.00
C1156  C     0.50674   0.35469   0.78864   0.00000  Uiso   1.00
C1157  C     0.49272   0.35551   0.71497   0.00000  Uiso   1.00
C1158  C     0.50717   0.64466   0.78637   0.00000  Uiso   1.00
H1159  H     0.48839   0.37339   0.68709   0.00000  Uiso   1.00
H1160  H     0.51182   0.62669   0.81401   0.00000  Uiso   1.00
C1161  C     0.49914   0.37615   0.75243   0.00000  Uiso   1.00
C1162  C     0.50078   0.62403   0.74884   0.00000  Uiso   1.00
C1163  C     0.65037   0.46753   0.72972   0.00000  Uiso   1.00
C1164  C     0.35001   0.53298   0.76933   0.00000  Uiso   1.00
C1165  C     0.36481   0.46750   0.72973   0.00000  Uiso   1.00
C1166  C     0.63512   0.53265   0.77019   0.00000  Uiso   1.00
N1167  N     0.38093   0.50001   0.75001   0.00000  Uiso   1.00
N1168  N     0.61907   0.49999   0.74999   0.00000  Uiso   1.00
C1169  C     0.38990   0.41813   0.55022   0.00000  Uiso   1.00
H1170  H     0.35916   0.41263   0.54033   0.00000  Uiso   1.00
O1171  O     0.39063   0.40084   0.58505   0.00000  Uiso   1.00
C1172  C     0.64084   0.52749   0.93028   0.00000  Uiso   1.00
H1173  H     0.65137   0.51874   0.89369   0.00000  Uiso   1.00
O1174  O     0.33452   0.54953   0.94217   0.00000  Uiso   1.00
C1175  C     0.46623   0.53473   0.61095   0.00000  Uiso   1.00
H1176  H     0.45221   0.54509   0.64705   0.00000  Uiso   1.00
O1177  O     0.44228   0.54458   0.58798   0.00000  Uiso   1.00
C1178  C     0.48865   0.55407   0.90534   0.00000  Uiso   1.00
H1179  H     0.48871   0.56877   0.87385   0.00000  Uiso   1.00
O1180  O     0.49823   0.57583   0.93372   0.00000  Uiso   1.00
N1181  N     0.63291   0.52262   0.60479   0.00000  Uiso   1.00
O1182  O     0.62643   0.55371   0.63453   0.00000  Uiso   1.00
O1183  O     0.34216   0.50534   0.58657   0.00000  Uiso   1.00
N1184  N     0.39699   0.43274   0.87881   0.00000  Uiso   1.00
O1185  O     0.36833   0.45145   0.86205   0.00000  Uiso   1.00
O1186  O     0.39761   0.39189   0.87904   0.00000  Uiso   1.00
C1187  C     0.49278   0.62371   0.66990   0.00000  Uiso   1.00
H1188  H     0.50417   0.59125   0.66283   0.00000  Uiso   1.00
O1189  O     0.47954   0.64191   0.64211   0.00000  Uiso   1.00
C1190  C     0.51277   0.37676   0.82912   0.00000  Uiso   1.00
H1191  H     0.50944   0.41061   0.83301   0.00000  Uiso   1.00
O1192  O     0.52128   0.35723   0.85901   0.00000  Uiso   1.00
N1193  N     0.63540   0.43378   0.70713   0.00000  Uiso   1.00
O1194  O     0.63124   0.43969   0.66714   0.00000  Uiso   1.00
O1195  O     0.63199   0.39596   0.72330   0.00000  Uiso   1.00
N1196  N     0.36616   0.56801   0.78912   0.00000  Uiso   1.00
O1197  O     0.37599   0.60336   0.76709   0.00000  Uiso   1.00
O1198  O     0.37237   0.56448   0.82847   0.00000  Uiso   1.00
C1199  C     0.39709   0.43230   0.70613   0.00000  Uiso   1.00
H1200  H     0.38909   0.40088   0.71984   0.00000  Uiso   1.00
O1201  O     0.43148   0.43765   0.66992   0.00000  Uiso   1.00
C1202  C     0.60128   0.56648   0.79566   0.00000  Uiso   1.00
H1203  H     0.56524   0.55890   0.81844   0.00000  Uiso   1.00
O1204  O     0.61298   0.60331   0.79109   0.00000  Uiso   1.00
O1205  O     0.79512   0.56108   0.75001   0.00000  Uiso   1.00
O1206  O     0.87154   0.43892   0.75000   0.00000  Uiso   1.00
O1207  O     0.87157   0.56107   0.75000   0.00000  Uiso   1.00
O1208  O     0.79510   0.43893   0.75000   0.00000  Uiso   1.00
C1209  C     0.83361   0.57980   0.74942   0.00000  Uiso   1.00
C1210  C     0.83280   0.42028   0.75145   0.00000  Uiso   1.00
O1211  O     0.77328   0.50001   0.81613   0.00000  Uiso   1.00
O1212  O     0.89339   0.49999   0.68388   0.00000  Uiso   1.00
O1213  O     0.84972   0.50000   0.81612   0.00000  Uiso   1.00
O1214  O     0.81695   0.50000   0.68388   0.00000  Uiso   1.00
C1215  C     0.80297   0.49802   0.83774   0.00000  Uiso   1.00
C1216  C     0.86333   0.50371   0.66213   0.00000  Uiso   1.00
Zn1217 Zn    0.78229   0.50001   0.75000   0.00000  Uiso   1.00
Zn1218 Zn    0.88438   0.49999   0.75000   0.00000  Uiso   1.00
C1219  C     0.78390   0.48968   0.88780   0.00000  Uiso   1.00
C1220  C     0.88134   0.51132   0.61121   0.00000  Uiso   1.00
C1221  C     0.74285   0.44335   0.95201   0.00000  Uiso   1.00
C1222  C     0.94649   0.51624   0.53489   0.00000  Uiso   1.00
C1223  C     0.75187   0.45602   0.90631   0.00000  Uiso   1.00
C1224  C     0.93125   0.51513   0.58380   0.00000  Uiso   1.00
C1225  C     0.80620   0.50957   0.91518   0.00000  Uiso   1.00
C1226  C     0.84797   0.51314   0.58855   0.00000  Uiso   1.00
C1227  C     0.80666   0.48904   0.95507   0.00000  Uiso   1.00
C1228  C     0.86472   0.50336   0.54060   0.00000  Uiso   1.00
C1229  C     0.76986   0.45967   0.97729   0.00000  Uiso   1.00
C1230  C     0.91327   0.51160   0.51252   0.00000  Uiso   1.00
C1231  C     0.84317   0.49615   0.97295   0.00000  Uiso   1.00
C1232  C     0.83330   0.48778   0.51979   0.00000  Uiso   1.00
C1233  C     0.79355   0.46261   0.54448   0.00000  Uiso   1.00
C1234  C     0.89014   0.50856   0.94464   0.00000  Uiso   1.00
C1235  C     0.76296   0.44655   0.52306   0.00000  Uiso   1.00
C1236  C     0.92593   0.51498   0.96346   0.00000  Uiso   1.00
H1237  H     0.71715   0.41851   0.96568   0.00000  Uiso   1.00
H1238  H     0.98453   0.51994   0.51516   0.00000  Uiso   1.00
H1239  H     0.78763   0.45402   0.58001   0.00000  Uiso   1.00
H1240  H     0.89960   0.51183   0.90732   0.00000  Uiso   1.00
C1241  C     0.82778   0.64560   0.71216   0.00000  Uiso   1.00
C1242  C     0.84008   0.35469   0.78864   0.00000  Uiso   1.00
C1243  C     0.82606   0.35551   0.71497   0.00000  Uiso   1.00
C1244  C     0.84051   0.64466   0.78637   0.00000  Uiso   1.00
H1245  H     0.82172   0.37339   0.68709   0.00000  Uiso   1.00
H1246  H     0.84515   0.62669   0.81401   0.00000  Uiso   1.00
C1247  C     0.83248   0.37615   0.75243   0.00000  Uiso   1.00
C1248  C     0.83411   0.62403   0.74884   0.00000  Uiso   1.00
C1249  C     0.98370   0.46753   0.72972   0.00000  Uiso   1.00
C1250  C     0.68334   0.53298   0.76933   0.00000  Uiso   1.00
C1251  C     0.69814   0.46750   0.72973   0.00000  Uiso   1.00
C1252  C     0.96845   0.53265   0.77019   0.00000  Uiso   1.00
N1253  N     0.71426   0.50001   0.75001   0.00000  Uiso   1.00
N1254  N     0.95241   0.49999   0.74999   0.00000  Uiso   1.00
C1255  C     0.72324   0.41813   0.55022   0.00000  Uiso   1.00
H1256  H     0.69250   0.41263   0.54033   0.00000  Uiso   1.00
O1257  O     0.72396   0.40084   0.58505   0.00000  Uiso   1.00
C1258  C     0.97418   0.52749   0.93028   0.00000  Uiso   1.00
H1259  H     0.98471   0.51874   0.89369   0.00000  Uiso   1.00
O1260  O     0.66785   0.54953   0.94217   0.00000  Uiso   1.00
C1261  C     0.79956   0.53473   0.61095   0.00000  Uiso   1.00
H1262  H     0.78554   0.54509   0.64705   0.00000  Uiso   1.00
O1263  O     0.77562   0.54458   0.58798   0.00000  Uiso   1.00
C1264  C     0.82198   0.55407   0.90534   0.00000  Uiso   1.00
H1265  H     0.82204   0.56877   0.87385   0.00000  Uiso   1.00
O1266  O     0.83157   0.57583   0.93372   0.00000  Uiso   1.00
N1267  N     0.96625   0.52262   0.60479   0.00000  Uiso   1.00
O1268  O     0.95976   0.55371   0.63453   0.00000  Uiso   1.00
O1269  O     0.67549   0.50534   0.58657   0.00000  Uiso   1.00
N1270  N     0.73032   0.43274   0.87881   0.00000  Uiso   1.00
O1271  O     0.70167   0.45145   0.86205   0.00000  Uiso   1.00
O1272  O     0.73095   0.39189   0.87904   0.00000  Uiso   1.00
C1273  C     0.82611   0.62371   0.66990   0.00000  Uiso   1.00
H1274  H     0.83750   0.59125   0.66283   0.00000  Uiso   1.00
O1275  O     0.81287   0.64191   0.64211   0.00000  Uiso   1.00
C1276  C     0.84610   0.37676   0.82912   0.00000  Uiso   1.00
H1277  H     0.84277   0.41061   0.83301   0.00000  Uiso   1.00
O1278  O     0.85462   0.35723   0.85901   0.00000  Uiso   1.00
N1279  N     0.96873   0.43378   0.70713   0.00000  Uiso   1.00
O1280  O     0.96458   0.43969   0.66714   0.00000  Uiso   1.00
O1281  O     0.96532   0.39596   0.72330   0.00000  Uiso   1.00
N1282  N     0.69949   0.56801   0.78912   0.00000  Uiso   1.00
O1283  O     0.70932   0.60336   0.76709   0.00000  Uiso   1.00
O1284  O     0.70571   0.56448   0.82847   0.00000  Uiso   1.00
C1285  C     0.73042   0.43230   0.70613   0.00000  Uiso   1.00
H1286  H     0.72242   0.40088   0.71984   0.00000  Uiso   1.00
O1287  O     0.76482   0.43765   0.66992   0.00000  Uiso   1.00
C1288  C     0.93461   0.56648   0.79566   0.00000  Uiso   1.00
H1289  H     0.89858   0.55890   0.81844   0.00000  Uiso   1.00
O1290  O     0.94631   0.60331   0.79109   0.00000  Uiso   1.00
O1291  O     0.12846   0.89442   0.75001   0.00000  Uiso   1.00
O1292  O     0.20488   0.77225   0.75000   0.00000  Uiso   1.00
O1293  O     0.20490   0.89441   0.75000   0.00000  Uiso   1.00
O1294  O     0.12843   0.77226   0.75000   0.00000  Uiso   1.00
C1295  C     0.16694   0.91314   0.74942   0.00000  Uiso   1.00
C1296  C     0.16614   0.75361   0.75145   0.00000  Uiso   1.00
O1297  O     0.10661   0.83334   0.81613   0.00000  Uiso   1.00
O1298  O     0.22672   0.83333   0.68388   0.00000  Uiso   1.00
O1299  O     0.18305   0.83333   0.81612   0.00000  Uiso   1.00
O1300  O     0.15028   0.83334   0.68388   0.00000  Uiso   1.00
C1301  C     0.13631   0.83135   0.83774   0.00000  Uiso   1.00
C1302  C     0.19666   0.83705   0.66213   0.00000  Uiso   1.00
Zn1303 Zn    0.11562   0.83334   0.75000   0.00000  Uiso   1.00
Zn1304 Zn    0.21771   0.83333   0.75000   0.00000  Uiso   1.00
C1305  C     0.11724   0.82301   0.88780   0.00000  Uiso   1.00
C1306  C     0.21468   0.84466   0.61121   0.00000  Uiso   1.00
C1307  C     0.07618   0.77668   0.95201   0.00000  Uiso   1.00
C1308  C     0.27982   0.84958   0.53489   0.00000  Uiso   1.00
C1309  C     0.08521   0.78935   0.90631   0.00000  Uiso   1.00
C1310  C     0.26458   0.84846   0.58380   0.00000  Uiso   1.00
C1311  C     0.13953   0.84290   0.91518   0.00000  Uiso   1.00
C1312  C     0.18131   0.84647   0.58855   0.00000  Uiso   1.00
C1313  C     0.13999   0.82237   0.95507   0.00000  Uiso   1.00
C1314  C     0.19805   0.83669   0.54060   0.00000  Uiso   1.00
C1315  C     0.10319   0.79300   0.97729   0.00000  Uiso   1.00
C1316  C     0.24660   0.84494   0.51252   0.00000  Uiso   1.00
C1317  C     0.17650   0.82948   0.97295   0.00000  Uiso   1.00
C1318  C     0.16664   0.82112   0.51979   0.00000  Uiso   1.00
C1319  C     0.12688   0.79594   0.54448   0.00000  Uiso   1.00
C1320  C     0.22348   0.84190   0.94464   0.00000  Uiso   1.00
C1321  C     0.09630   0.77988   0.52306   0.00000  Uiso   1.00
C1322  C     0.25927   0.84831   0.96346   0.00000  Uiso   1.00
H1323  H     0.05048   0.75184   0.96568   0.00000  Uiso   1.00
H1324  H     0.31786   0.85327   0.51516   0.00000  Uiso   1.00
H1325  H     0.12096   0.78735   0.58001   0.00000  Uiso   1.00
H1326  H     0.23293   0.84516   0.90732   0.00000  Uiso   1.00
C1327  C     0.16111   0.97894   0.71216   0.00000  Uiso   1.00
C1328  C     0.17341   0.68802   0.78864   0.00000  Uiso   1.00
C1329  C     0.15939   0.68884   0.71497   0.00000  Uiso   1.00
C1330  C     0.17384   0.97799   0.78637   0.00000  Uiso   1.00
H1331  H     0.15506   0.70673   0.68709   0.00000  Uiso   1.00
H1332  H     0.17848   0.96002   0.81401   0.00000  Uiso   1.00
C1333  C     0.16581   0.70948   0.75243   0.00000  Uiso   1.00
C1334  C     0.16745   0.95737   0.74884   0.00000  Uiso   1.00
C1335  C     0.31703   0.80086   0.72972   0.00000  Uiso   1.00
C1336  C     0.01667   0.86631   0.76933   0.00000  Uiso   1.00
C1337  C     0.03147   0.80083   0.72973   0.00000  Uiso   1.00
C1338  C     0.30178   0.86598   0.77019   0.00000  Uiso   1.00
N1339  N     0.04759   0.83334   0.75001   0.00000  Uiso   1.00
N1340  N     0.28574   0.83332   0.74999   0.00000  Uiso   1.00
C1341  C     0.05657   0.75147   0.55022   0.00000  Uiso   1.00
H1342  H     0.02583   0.74596   0.54033   0.00000  Uiso   1.00
O1343  O     0.05730   0.73417   0.58505   0.00000  Uiso   1.00
C1344  C     0.30751   0.86082   0.93028   0.00000  Uiso   1.00
H1345  H     0.31804   0.85207   0.89369   0.00000  Uiso   1.00
O1346  O     0.00119   0.88286   0.94217   0.00000  Uiso   1.00
C1347  C     0.13289   0.86806   0.61095   0.00000  Uiso   1.00
H1348  H     0.11887   0.87843   0.64705   0.00000  Uiso   1.00
O1349  O     0.10895   0.87791   0.58798   0.00000  Uiso   1.00
C1350  C     0.15532   0.88741   0.90534   0.00000  Uiso   1.00
H1351  H     0.15538   0.90210   0.87385   0.00000  Uiso   1.00
O1352  O     0.16490   0.90917   0.93372   0.00000  Uiso   1.00
N1353  N     0.29958   0.85595   0.60479   0.00000  Uiso   1.00
O1354  O     0.29309   0.88705   0.63453   0.00000  Uiso   1.00
O1355  O     0.00883   0.83867   0.58657   0.00000  Uiso   1.00
N1356  N     0.06365   0.76607   0.87881   0.00000  Uiso   1.00
O1357  O     0.03500   0.78478   0.86205   0.00000  Uiso   1.00
O1358  O     0.06428   0.72522   0.87904   0.00000  Uiso   1.00
C1359  C     0.15944   0.95704   0.66990   0.00000  Uiso   1.00
H1360  H     0.17084   0.92458   0.66283   0.00000  Uiso   1.00
O1361  O     0.14621   0.97524   0.64211   0.00000  Uiso   1.00
C1362  C     0.17944   0.71009   0.82912   0.00000  Uiso   1.00
H1363  H     0.17611   0.74394   0.83301   0.00000  Uiso   1.00
O1364  O     0.18795   0.69057   0.85901   0.00000  Uiso   1.00
N1365  N     0.30206   0.76711   0.70713   0.00000  Uiso   1.00
O1366  O     0.29791   0.77302   0.66714   0.00000  Uiso   1.00
O1367  O     0.29866   0.72929   0.72330   0.00000  Uiso   1.00
N1368  N     0.03283   0.90134   0.78912   0.00000  Uiso   1.00
O1369  O     0.04265   0.93669   0.76709   0.00000  Uiso   1.00
O1370  O     0.03904   0.89781   0.82847   0.00000  Uiso   1.00
C1371  C     0.06375   0.76563   0.70613   0.00000  Uiso   1.00
H1372  H     0.05575   0.73422   0.71984   0.00000  Uiso   1.00
O1373  O     0.09815   0.77098   0.66992   0.00000  Uiso   1.00
C1374  C     0.26795   0.89981   0.79566   0.00000  Uiso   1.00
H1375  H     0.23191   0.89223   0.81844   0.00000  Uiso   1.00
O1376  O     0.27965   0.93665   0.79109   0.00000  Uiso   1.00
O1377  O     0.46179   0.89442   0.75001   0.00000  Uiso   1.00
O1378  O     0.53821   0.77225   0.75000   0.00000  Uiso   1.00
O1379  O     0.53823   0.89441   0.75000   0.00000  Uiso   1.00
O1380  O     0.46177   0.77226   0.75000   0.00000  Uiso   1.00
C1381  C     0.50027   0.91314   0.74942   0.00000  Uiso   1.00
C1382  C     0.49947   0.75361   0.75145   0.00000  Uiso   1.00
O1383  O     0.43994   0.83334   0.81613   0.00000  Uiso   1.00
O1384  O     0.56006   0.83333   0.68388   0.00000  Uiso   1.00
O1385  O     0.51639   0.83333   0.81612   0.00000  Uiso   1.00
O1386  O     0.48361   0.83334   0.68388   0.00000  Uiso   1.00
C1387  C     0.46964   0.83135   0.83774   0.00000  Uiso   1.00
C1388  C     0.52999   0.83705   0.66213   0.00000  Uiso   1.00
Zn1389 Zn    0.44896   0.83334   0.75000   0.00000  Uiso   1.00
Zn1390 Zn    0.55104   0.83333   0.75000   0.00000  Uiso   1.00
C1391  C     0.45057   0.82301   0.88780   0.00000  Uiso   1.00
C1392  C     0.54801   0.84466   0.61121   0.00000  Uiso   1.00
C1393  C     0.40952   0.77668   0.95201   0.00000  Uiso   1.00
C1394  C     0.61315   0.84958   0.53489   0.00000  Uiso   1.00
C1395  C     0.41854   0.78935   0.90631   0.00000  Uiso   1.00
C1396  C     0.59791   0.84846   0.58380   0.00000  Uiso   1.00
C1397  C     0.47286   0.84290   0.91518   0.00000  Uiso   1.00
C1398  C     0.51464   0.84647   0.58855   0.00000  Uiso   1.00
C1399  C     0.47332   0.82237   0.95507   0.00000  Uiso   1.00
C1400  C     0.53139   0.83669   0.54060   0.00000  Uiso   1.00
C1401  C     0.43653   0.79300   0.97729   0.00000  Uiso   1.00
C1402  C     0.57993   0.84494   0.51252   0.00000  Uiso   1.00
C1403  C     0.50984   0.82948   0.97295   0.00000  Uiso   1.00
C1404  C     0.49997   0.82112   0.51979   0.00000  Uiso   1.00
C1405  C     0.46021   0.79594   0.54448   0.00000  Uiso   1.00
C1406  C     0.55681   0.84190   0.94464   0.00000  Uiso   1.00
C1407  C     0.42963   0.77988   0.52306   0.00000  Uiso   1.00
C1408  C     0.59260   0.84831   0.96346   0.00000  Uiso   1.00
H1409  H     0.38381   0.75184   0.96568   0.00000  Uiso   1.00
H1410  H     0.65120   0.85327   0.51516   0.00000  Uiso   1.00
H1411  H     0.45429   0.78735   0.58001   0.00000  Uiso   1.00
H1412  H     0.56627   0.84516   0.90732   0.00000  Uiso   1.00
C1413  C     0.49445   0.97894   0.71216   0.00000  Uiso   1.00
C1414  C     0.50674   0.68802   0.78864   0.00000  Uiso   1.00
C1415  C     0.49272   0.68884   0.71497   0.00000  Uiso   1.00
C1416  C     0.50717   0.97799   0.78637   0.00000  Uiso   1.00
H1417  H     0.48839   0.70673   0.68709   0.00000  Uiso   1.00
H1418  H     0.51182   0.96002   0.81401   0.00000  Uiso   1.00
C1419  C     0.49914   0.70948   0.75243   0.00000  Uiso   1.00
C1420  C     0.50078   0.95737   0.74884   0.00000  Uiso   1.00
C1421  C     0.65037   0.80086   0.72972   0.00000  Uiso   1.00
C1422  C     0.35001   0.86631   0.76933   0.00000  Uiso   1.00
C1423  C     0.36481   0.80083   0.72973   0.00000  Uiso   1.00
C1424  C     0.63512   0.86598   0.77019   0.00000  Uiso   1.00
N1425  N     0.38093   0.83334   0.75001   0.00000  Uiso   1.00
N1426  N     0.61907   0.83332   0.74999   0.00000  Uiso   1.00
C1427  C     0.38990   0.75147   0.55022   0.00000  Uiso   1.00
H1428  H     0.35916   0.74596   0.54033   0.00000  Uiso   1.00
O1429  O     0.39063   0.73417   0.58505   0.00000  Uiso   1.00
C1430  C     0.64084   0.86082   0.93028   0.00000  Uiso   1.00
H1431  H     0.65137   0.85207   0.89369   0.00000  Uiso   1.00
O1432  O     0.33452   0.88286   0.94217   0.00000  Uiso   1.00
C1433  C     0.46623   0.86806   0.61095   0.00000  Uiso   1.00
H1434  H     0.45221   0.87843   0.64705   0.00000  Uiso   1.00
O1435  O     0.44228   0.87791   0.58798   0.00000  Uiso   1.00
C1436  C     0.48865   0.88741   0.90534   0.00000  Uiso   1.00
H1437  H     0.48871   0.90210   0.87385   0.00000  Uiso   1.00
O1438  O     0.49823   0.90917   0.93372   0.00000  Uiso   1.00
N1439  N     0.63291   0.85595   0.60479   0.00000  Uiso   1.00
O1440  O     0.62643   0.88705   0.63453   0.00000  Uiso   1.00
O1441  O     0.34216   0.83867   0.58657   0.00000  Uiso   1.00
N1442  N     0.39699   0.76607   0.87881   0.00000  Uiso   1.00
O1443  O     0.36833   0.78478   0.86205   0.00000  Uiso   1.00
O1444  O     0.39761   0.72522   0.87904   0.00000  Uiso   1.00
C1445  C     0.49278   0.95704   0.66990   0.00000  Uiso   1.00
H1446  H     0.50417   0.92458   0.66283   0.00000  Uiso   1.00
O1447  O     0.47954   0.97524   0.64211   0.00000  Uiso   1.00
C1448  C     0.51277   0.71009   0.82912   0.00000  Uiso   1.00
H1449  H     0.50944   0.74394   0.83301   0.00000  Uiso   1.00
O1450  O     0.52128   0.69057   0.85901   0.00000  Uiso   1.00
N1451  N     0.63540   0.76711   0.70713   0.00000  Uiso   1.00
O1452  O     0.63124   0.77302   0.66714   0.00000  Uiso   1.00
O1453  O     0.63199   0.72929   0.72330   0.00000  Uiso   1.00
N1454  N     0.36616   0.90134   0.78912   0.00000  Uiso   1.00
O1455  O     0.37599   0.93669   0.76709   0.00000  Uiso   1.00
O1456  O     0.37237   0.89781   0.82847   0.00000  Uiso   1.00
C1457  C     0.39709   0.76563   0.70613   0.00000  Uiso   1.00
H1458  H     0.38909   0.73422   0.71984   0.00000  Uiso   1.00
O1459  O     0.43148   0.77098   0.66992   0.00000  Uiso   1.00
C1460  C     0.60128   0.89981   0.79566   0.00000  Uiso   1.00
H1461  H     0.56524   0.89223   0.81844   0.00000  Uiso   1.00
O1462  O     0.61298   0.93665   0.79109   0.00000  Uiso   1.00
O1463  O     0.79512   0.89442   0.75001   0.00000  Uiso   1.00
O1464  O     0.87154   0.77225   0.75000   0.00000  Uiso   1.00
O1465  O     0.87157   0.89441   0.75000   0.00000  Uiso   1.00
O1466  O     0.79510   0.77226   0.75000   0.00000  Uiso   1.00
C1467  C     0.83361   0.91314   0.74942   0.00000  Uiso   1.00
C1468  C     0.83280   0.75361   0.75145   0.00000  Uiso   1.00
O1469  O     0.77328   0.83334   0.81613   0.00000  Uiso   1.00
O1470  O     0.89339   0.83333   0.68388   0.00000  Uiso   1.00
O1471  O     0.84972   0.83333   0.81612   0.00000  Uiso   1.00
O1472  O     0.81695   0.83334   0.68388   0.00000  Uiso   1.00
C1473  C     0.80297   0.83135   0.83774   0.00000  Uiso   1.00
C1474  C     0.86333   0.83705   0.66213   0.00000  Uiso   1.00
Zn1475 Zn    0.78229   0.83334   0.75000   0.00000  Uiso   1.00
Zn1476 Zn    0.88438   0.83333   0.75000   0.00000  Uiso   1.00
C1477  C     0.78390   0.82301   0.88780   0.00000  Uiso   1.00
C1478  C     0.88134   0.84466   0.61121   0.00000  Uiso   1.00
C1479  C     0.74285   0.77668   0.95201   0.00000  Uiso   1.00
C1480  C     0.94649   0.84958   0.53489   0.00000  Uiso   1.00
C1481  C     0.75187   0.78935   0.90631   0.00000  Uiso   1.00
C1482  C     0.93125   0.84846   0.58380   0.00000  Uiso   1.00
C1483  C     0.80620   0.84290   0.91518   0.00000  Uiso   1.00
C1484  C     0.84797   0.84647   0.58855   0.00000  Uiso   1.00
C1485  C     0.80666   0.82237   0.95507   0.00000  Uiso   1.00
C1486  C     0.86472   0.83669   0.54060   0.00000  Uiso   1.00
C1487  C     0.76986   0.79300   0.97729   0.00000  Uiso   1.00
C1488  C     0.91327   0.84494   0.51252   0.00000  Uiso   1.00
C1489  C     0.84317   0.82948   0.97295   0.00000  Uiso   1.00
C1490  C     0.83330   0.82112   0.51979   0.00000  Uiso   1.00
C1491  C     0.79355   0.79594   0.54448   0.00000  Uiso   1.00
C1492  C     0.89014   0.84190   0.94464   0.00000  Uiso   1.00
C1493  C     0.76296   0.77988   0.52306   0.00000  Uiso   1.00
C1494  C     0.92593   0.84831   0.96346   0.00000  Uiso   1.00
H1495  H     0.71715   0.75184   0.96568   0.00000  Uiso   1.00
H1496  H     0.98453   0.85327   0.51516   0.00000  Uiso   1.00
H1497  H     0.78763   0.78735   0.58001   0.00000  Uiso   1.00
H1498  H     0.89960   0.84516   0.90732   0.00000  Uiso   1.00
C1499  C     0.82778   0.97894   0.71216   0.00000  Uiso   1.00
C1500  C     0.84008   0.68802   0.78864   0.00000  Uiso   1.00
C1501  C     0.82606   0.68884   0.71497   0.00000  Uiso   1.00
C1502  C     0.84051   0.97799   0.78637   0.00000  Uiso   1.00
H1503  H     0.82172   0.70673   0.68709   0.00000  Uiso   1.00
H1504  H     0.84515   0.96002   0.81401   0.00000  Uiso   1.00
C1505  C     0.83248   0.70948   0.75243   0.00000  Uiso   1.00
C1506  C     0.83411   0.95737   0.74884   0.00000  Uiso   1.00
C1507  C     0.98370   0.80086   0.72972   0.00000  Uiso   1.00
C1508  C     0.68334   0.86631   0.76933   0.00000  Uiso   1.00
C1509  C     0.69814   0.80083   0.72973   0.00000  Uiso   1.00
C1510  C     0.96845   0.86598   0.77019   0.00000  Uiso   1.00
N1511  N     0.71426   0.83334   0.75001   0.00000  Uiso   1.00
N1512  N     0.95241   0.83332   0.74999   0.00000  Uiso   1.00
C1513  C     0.72324   0.75147   0.55022   0.00000  Uiso   1.00
H1514  H     0.69250   0.74596   0.54033   0.00000  Uiso   1.00
O1515  O     0.72396   0.73417   0.58505   0.00000  Uiso   1.00
C1516  C     0.97418   0.86082   0.93028   0.00000  Uiso   1.00
H1517  H     0.98471   0.85207   0.89369   0.00000  Uiso   1.00
O1518  O     0.66785   0.88286   0.94217   0.00000  Uiso   1.00
C1519  C     0.79956   0.86806   0.61095   0.00000  Uiso   1.00
H1520  H     0.78554   0.87843   0.64705   0.00000  Uiso   1.00
O1521  O     0.77562   0.87791   0.58798   0.00000  Uiso   1.00
C1522  C     0.82198   0.88741   0.90534   0.00000  Uiso   1.00
H1523  H     0.82204   0.90210   0.87385   0.00000  Uiso   1.00
O1524  O     0.83157   0.90917   0.93372   0.00000  Uiso   1.00
N1525  N     0.96625   0.85595   0.60479   0.00000  Uiso   1.00
O1526  O     0.95976   0.88705   0.63453   0.00000  Uiso   1.00
O1527  O     0.67549   0.83867   0.58657   0.00000  Uiso   1.00
N1528  N     0.73032   0.76607   0.87881   0.00000  Uiso   1.00
O1529  O     0.70167   0.78478   0.86205   0.00000  Uiso   1.00
O1530  O     0.73095   0.72522   0.87904   0.00000  Uiso   1.00
C1531  C     0.82611   0.95704   0.66990   0.00000  Uiso   1.00
H1532  H     0.83750   0.92458   0.66283   0.00000  Uiso   1.00
O1533  O     0.81287   0.97524   0.64211   0.00000  Uiso   1.00
C1534  C     0.84610   0.71009   0.82912   0.00000  Uiso   1.00
H1535  H     0.84277   0.74394   0.83301   0.00000  Uiso   1.00
O1536  O     0.85462   0.69057   0.85901   0.00000  Uiso   1.00
N1537  N     0.96873   0.76711   0.70713   0.00000  Uiso   1.00
O1538  O     0.96458   0.77302   0.66714   0.00000  Uiso   1.00
O1539  O     0.96532   0.72929   0.72330   0.00000  Uiso   1.00
N1540  N     0.69949   0.90134   0.78912   0.00000  Uiso   1.00
O1541  O     0.70932   0.93669   0.76709   0.00000  Uiso   1.00
O1542  O     0.70571   0.89781   0.82847   0.00000  Uiso   1.00
C1543  C     0.73042   0.76563   0.70613   0.00000  Uiso   1.00
H1544  H     0.72242   0.73422   0.71984   0.00000  Uiso   1.00
O1545  O     0.76482   0.77098   0.66992   0.00000  Uiso   1.00
C1546  C     0.93461   0.89981   0.79566   0.00000  Uiso   1.00
H1547  H     0.89858   0.89223   0.81844   0.00000  Uiso   1.00
O1548  O     0.94631   0.93665   0.79109   0.00000  Uiso   1.00
loop_
_geom_bond_atom_site_label_1
_geom_bond_atom_site_label_2
_geom_bond_distance
_geom_bond_site_symmetry_2
_ccdc_geom_bond_type
O1     C5      1.289   .     A
O1     Zn13    1.983   .     S
O2     C6      1.287   .     A
O2     Zn14    1.983   .     S
O3     Zn14    1.982   .     S
O3     C5      1.286   .     A
O4     Zn13    1.982   .     S
O4     C6      1.287   .     A
C5     C44     1.409   .     S
C6     C43     1.406   .     S
O7     C11     1.293   .     A
O7     Zn13    1.953   .     S
O8     Zn14    1.953   .     S
O8     C12     1.310   .     A
O9     Zn14    1.912   .     S
O9     C11     1.306   .     A
O10    C12     1.301   .     A
O10    Zn13    1.912   .     S
C11    C15     1.461   .     S
C12    C16     1.482   .     S
Zn13   N49     2.030   .     S
Zn14   N50     2.030   .     S
C15    C19     1.417   .     A
C15    C21     1.398   .     A
C16    C20     1.420   .     A
C16    C22     1.414   .     A
C17    H33     1.079   .     S
C17    C25     1.407   .     A
C17    C19     1.399   .     A
C18    C26     1.408   .     A
C18    H34     1.078   .     S
C18    C20     1.404   .     A
C19    N66     1.437   .     S
C20    N63     1.436   .     S
C21    C60     1.495   .     S
C21    C23     1.406   .     A
C22    C57     1.509   .     S
C22    C24     1.402   .     A
C23    C27     1.408   .     A
C23    C25     1.420   .     A
C24    C28     1.404   .     A
C24    C26     1.413   .     A
C25    C805    1.418   .     S
C26    C806    1.421   1_554 S
C27    C30     1.410   .     A
C27    C802    1.392   .     S
C28    C29     1.408   .     A
C28    C801    1.392   1_554 S
C29    H35     1.082   .     S
C29    C31     1.402   .     A
C30    C32     1.405   .     A
C30    H36     1.084   .     S
C31    C51     1.489   .     S
C31    C799    1.418   1_554 S
C32    C54     1.483   .     S
C32    C800    1.421   .     S
C37    C69     1.483   .     S
C37    C44     1.403   .     A
C37    C297    1.378   .     S
C38    C72     1.489   .     S
C38    C43     1.406   .     A
C38    C556    1.381   1_545 S
C39    C43     1.392   .     A
C39    H41     1.085   .     S
C39    C553    1.378   1_545 S
C40    H42     1.084   .     S
C40    C44     1.393   .     A
C40    C296    1.381   .     S
C45    N75     1.430   .     S
C45    N50     1.369   .     A
C45    C133    1.426   .     S
C46    N49     1.370   .     A
C46    N78     1.430   .     S
C46    C220    1.430   1_455 S
C47    N49     1.377   .     A
C47    C81     1.470   .     S
C47    C217    1.426   1_455 S
C48    C84     1.475   .     S
C48    N50     1.378   .     A
C48    C132    1.430   .     S
C51    H52     1.082   .     S
C51    O53     1.222   .     D
C54    H55     1.083   .     S
C54    O142    1.220   .     S
O56    C226    1.220   1_455 S
C57    O59     1.221   .     D
C57    H58     1.078   .     S
C60    O62     1.221   .     D
C60    H61     1.084   .     S
N63    O64     1.302   .     A
N63    O151    1.300   .     S
O65    N235    1.300   1_455 S
N66    O68     1.301   .     A
N66    O67     1.300   .     A
C69    O71     1.222   .     D
C69    H70     1.081   .     S
C72    O74     1.221   .     D
C72    H73     1.083   .     S
N75    O76     1.300   .     A
N75    O77     1.301   .     A
N78    O80     1.299   .     A
N78    O79     1.301   .     A
C81    H82     1.085   .     S
C81    O83     1.218   .     D
C84    O86     1.220   .     D
C84    H85     1.074   .     S
O87    C91     1.289   .     A
O87    Zn99    1.983   .     S
O88    C92     1.287   .     A
O88    Zn100   1.983   .     S
O89    Zn100   1.982   .     S
O89    C91     1.286   .     A
O90    Zn99    1.982   .     S
O90    C92     1.287   .     A
C91    C130    1.409   .     S
C92    C129    1.406   .     S
O93    C97     1.293   .     A
O93    Zn99    1.953   .     S
O94    Zn100   1.953   .     S
O94    C98     1.310   .     A
O95    Zn100   1.912   .     S
O95    C97     1.306   .     A
O96    C98     1.301   .     A
O96    Zn99    1.912   .     S
C97    C101    1.461   .     S
C98    C102    1.482   .     S
Zn99   N135    2.030   .     S
Zn100  N136    2.030   .     S
C101   C105    1.417   .     A
C101   C107    1.398   .     A
C102   C106    1.420   .     A
C102   C108    1.414   .     A
C103   H119    1.079   .     S
C103   C111    1.407   .     A
C103   C105    1.399   .     A
C104   C112    1.408   .     A
C104   H120    1.078   .     S
C104   C106    1.404   .     A
C105   N152    1.437   .     S
C106   N149    1.436   .     S
C107   C146    1.495   .     S
C107   C109    1.406   .     A
C108   C143    1.509   .     S
C108   C110    1.402   .     A
C109   C113    1.408   .     A
C109   C111    1.420   .     A
C110   C114    1.404   .     A
C110   C112    1.413   .     A
C111   C891    1.418   .     S
C112   C892    1.421   1_554 S
C113   C116    1.410   .     A
C113   C888    1.392   .     S
C114   C115    1.408   .     A
C114   C887    1.392   1_554 S
C115   H121    1.082   .     S
C115   C117    1.402   .     A
C116   C118    1.405   .     A
C116   H122    1.084   .     S
C117   C137    1.489   .     S
C117   C885    1.418   1_554 S
C118   C140    1.483   .     S
C118   C886    1.421   .     S
C123   C155    1.483   .     S
C123   C130    1.403   .     A
C123   C383    1.378   .     S
C124   C158    1.489   .     S
C124   C129    1.406   .     A
C124   C642    1.381   1_545 S
C125   C129    1.392   .     A
C125   H127    1.085   .     S
C125   C639    1.378   1_545 S
C126   H128    1.084   .     S
C126   C130    1.393   .     A
C126   C382    1.381   .     S
C131   N161    1.430   .     S
C131   N136    1.369   .     A
C131   C219    1.426   .     S
C132   N135    1.370   .     A
C132   N164    1.430   .     S
C133   N135    1.377   .     A
C133   C167    1.470   .     S
C134   C170    1.475   .     S
C134   N136    1.378   .     A
C134   C218    1.430   .     S
C137   H138    1.082   .     S
C137   O139    1.222   .     D
C140   H141    1.083   .     S
C140   O228    1.220   .     S
C143   O145    1.221   .     D
C143   H144    1.078   .     S
C146   O148    1.221   .     D
C146   H147    1.084   .     S
N149   O150    1.302   .     A
N149   O237    1.300   .     S
N152   O154    1.301   .     A
N152   O153    1.300   .     A
C155   O157    1.222   .     D
C155   H156    1.081   .     S
C158   O160    1.221   .     D
C158   H159    1.083   .     S
N161   O162    1.300   .     A
N161   O163    1.301   .     A
N164   O166    1.299   .     A
N164   O165    1.301   .     A
C167   H168    1.085   .     S
C167   O169    1.218   .     D
C170   O172    1.220   .     D
C170   H171    1.074   .     S
O173   C177    1.289   .     A
O173   Zn185   1.983   .     S
O174   C178    1.287   .     A
O174   Zn186   1.983   .     S
O175   Zn186   1.982   .     S
O175   C177    1.286   .     A
O176   Zn185   1.982   .     S
O176   C178    1.287   .     A
C177   C216    1.409   .     S
C178   C215    1.406   .     S
O179   C183    1.293   .     A
O179   Zn185   1.953   .     S
O180   Zn186   1.953   .     S
O180   C184    1.310   .     A
O181   Zn186   1.912   .     S
O181   C183    1.306   .     A
O182   C184    1.301   .     A
O182   Zn185   1.912   .     S
C183   C187    1.461   .     S
C184   C188    1.482   .     S
Zn185  N221    2.030   .     S
Zn186  N222    2.030   .     S
C187   C191    1.417   .     A
C187   C193    1.398   .     A
C188   C192    1.420   .     A
C188   C194    1.414   .     A
C189   H205    1.079   .     S
C189   C197    1.407   .     A
C189   C191    1.399   .     A
C190   C198    1.408   .     A
C190   H206    1.078   .     S
C190   C192    1.404   .     A
C191   N238    1.437   .     S
C192   N235    1.436   .     S
C193   C232    1.495   .     S
C193   C195    1.406   .     A
C194   C229    1.509   .     S
C194   C196    1.402   .     A
C195   C199    1.408   .     A
C195   C197    1.420   .     A
C196   C200    1.404   .     A
C196   C198    1.413   .     A
C197   C977    1.418   .     S
C198   C978    1.421   1_554 S
C199   C202    1.410   .     A
C199   C974    1.392   .     S
C200   C201    1.408   .     A
C200   C973    1.392   1_554 S
C201   H207    1.082   .     S
C201   C203    1.402   .     A
C202   C204    1.405   .     A
C202   H208    1.084   .     S
C203   C223    1.489   .     S
C203   C971    1.418   1_554 S
C204   C226    1.483   .     S
C204   C972    1.421   .     S
C209   C241    1.483   .     S
C209   C216    1.403   .     A
C209   C469    1.378   .     S
C210   C244    1.489   .     S
C210   C215    1.406   .     A
C210   C728    1.381   1_545 S
C211   C215    1.392   .     A
C211   H213    1.085   .     S
C211   C725    1.378   1_545 S
C212   H214    1.084   .     S
C212   C216    1.393   .     A
C212   C468    1.381   .     S
C217   N247    1.430   .     S
C217   N222    1.369   .     A
C217   C47     1.426   1_655 S
C218   N221    1.370   .     A
C218   N250    1.430   .     S
C219   N221    1.377   .     A
C219   C253    1.470   .     S
C220   C256    1.475   .     S
C220   N222    1.378   .     A
C220   C46     1.430   1_655 S
C223   H224    1.082   .     S
C223   O225    1.222   .     D
C226   H227    1.083   .     S
C226   O56     1.220   1_655 S
C229   O231    1.221   .     D
C229   H230    1.078   .     S
C232   O234    1.221   .     D
C232   H233    1.084   .     S
N235   O236    1.302   .     A
N235   O65     1.300   1_655 S
N238   O240    1.301   .     A
N238   O239    1.300   .     A
C241   O243    1.222   .     D
C241   H242    1.081   .     S
C244   O246    1.221   .     D
C244   H245    1.083   .     S
N247   O248    1.300   .     A
N247   O249    1.301   .     A
N250   O252    1.299   .     A
N250   O251    1.301   .     A
C253   H254    1.085   .     S
C253   O255    1.218   .     D
C256   O258    1.220   .     D
C256   H257    1.074   .     S
O259   C263    1.289   .     A
O259   Zn271   1.983   .     S
O260   C264    1.287   .     A
O260   Zn272   1.983   .     S
O261   Zn272   1.982   .     S
O261   C263    1.286   .     A
O262   Zn271   1.982   .     S
O262   C264    1.287   .     A
C263   C302    1.409   .     S
C264   C301    1.406   .     S
O265   C269    1.293   .     A
O265   Zn271   1.953   .     S
O266   Zn272   1.953   .     S
O266   C270    1.310   .     A
O267   Zn272   1.912   .     S
O267   C269    1.306   .     A
O268   C270    1.301   .     A
O268   Zn271   1.912   .     S
C269   C273    1.461   .     S
C270   C274    1.482   .     S
Zn271  N307    2.030   .     S
Zn272  N308    2.030   .     S
C273   C277    1.417   .     A
C273   C279    1.398   .     A
C274   C278    1.420   .     A
C274   C280    1.414   .     A
C275   H291    1.079   .     S
C275   C283    1.407   .     A
C275   C277    1.399   .     A
C276   C284    1.408   .     A
C276   H292    1.078   .     S
C276   C278    1.404   .     A
C277   N324    1.437   .     S
C278   N321    1.436   .     S
C279   C318    1.495   .     S
C279   C281    1.406   .     A
C280   C315    1.509   .     S
C280   C282    1.402   .     A
C281   C285    1.408   .     A
C281   C283    1.420   .     A
C282   C286    1.404   .     A
C282   C284    1.413   .     A
C283   C1063   1.418   .     S
C284   C1064   1.421   1_554 S
C285   C288    1.410   .     A
C285   C1060   1.392   .     S
C286   C287    1.408   .     A
C286   C1059   1.392   1_554 S
C287   H293    1.082   .     S
C287   C289    1.402   .     A
C288   C290    1.405   .     A
C288   H294    1.084   .     S
C289   C309    1.489   .     S
C289   C1057   1.418   1_554 S
C290   C312    1.483   .     S
C290   C1058   1.421   .     S
C295   C327    1.483   .     S
C295   C302    1.403   .     A
C295   C555    1.378   .     S
C296   C330    1.489   .     S
C296   C301    1.406   .     A
C297   C301    1.392   .     A
C297   H299    1.085   .     S
C298   H300    1.084   .     S
C298   C302    1.393   .     A
C298   C554    1.381   .     S
C303   N333    1.430   .     S
C303   N308    1.369   .     A
C303   C391    1.426   .     S
C304   N307    1.370   .     A
C304   N336    1.430   .     S
C304   C478    1.430   1_455 S
C305   N307    1.377   .     A
C305   C339    1.470   .     S
C305   C475    1.426   1_455 S
C306   C342    1.475   .     S
C306   N308    1.378   .     A
C306   C390    1.430   .     S
C309   H310    1.082   .     S
C309   O311    1.222   .     D
C312   H313    1.083   .     S
C312   O400    1.220   .     S
O314   C484    1.220   1_455 S
C315   O317    1.221   .     D
C315   H316    1.078   .     S
C318   O320    1.221   .     D
C318   H319    1.084   .     S
N321   O322    1.302   .     A
N321   O409    1.300   .     S
O323   N493    1.300   1_455 S
N324   O326    1.301   .     A
N324   O325    1.300   .     A
C327   O329    1.222   .     D
C327   H328    1.081   .     S
C330   O332    1.221   .     D
C330   H331    1.083   .     S
N333   O334    1.300   .     A
N333   O335    1.301   .     A
N336   O338    1.299   .     A
N336   O337    1.301   .     A
C339   H340    1.085   .     S
C339   O341    1.218   .     D
C342   O344    1.220   .     D
C342   H343    1.074   .     S
O345   C349    1.289   .     A
O345   Zn357   1.983   .     S
O346   C350    1.287   .     A
O346   Zn358   1.983   .     S
O347   Zn358   1.982   .     S
O347   C349    1.286   .     A
O348   Zn357   1.982   .     S
O348   C350    1.287   .     A
C349   C388    1.409   .     S
C350   C387    1.406   .     S
O351   C355    1.293   .     A
O351   Zn357   1.953   .     S
O352   Zn358   1.953   .     S
O352   C356    1.310   .     A
O353   Zn358   1.912   .     S
O353   C355    1.306   .     A
O354   C356    1.301   .     A
O354   Zn357   1.912   .     S
C355   C359    1.461   .     S
C356   C360    1.482   .     S
Zn357  N393    2.030   .     S
Zn358  N394    2.030   .     S
C359   C363    1.417   .     A
C359   C365    1.398   .     A
C360   C364    1.420   .     A
C360   C366    1.414   .     A
C361   H377    1.079   .     S
C361   C369    1.407   .     A
C361   C363    1.399   .     A
C362   C370    1.408   .     A
C362   H378    1.078   .     S
C362   C364    1.404   .     A
C363   N410    1.437   .     S
C364   N407    1.436   .     S
C365   C404    1.495   .     S
C365   C367    1.406   .     A
C366   C401    1.509   .     S
C366   C368    1.402   .     A
C367   C371    1.408   .     A
C367   C369    1.420   .     A
C368   C372    1.404   .     A
C368   C370    1.413   .     A
C369   C1149   1.418   .     S
C370   C1150   1.421   1_554 S
C371   C374    1.410   .     A
C371   C1146   1.392   .     S
C372   C373    1.408   .     A
C372   C1145   1.392   1_554 S
C373   H379    1.082   .     S
C373   C375    1.402   .     A
C374   C376    1.405   .     A
C374   H380    1.084   .     S
C375   C395    1.489   .     S
C375   C1143   1.418   1_554 S
C376   C398    1.483   .     S
C376   C1144   1.421   .     S
C381   C413    1.483   .     S
C381   C388    1.403   .     A
C381   C641    1.378   .     S
C382   C416    1.489   .     S
C382   C387    1.406   .     A
C383   C387    1.392   .     A
C383   H385    1.085   .     S
C384   H386    1.084   .     S
C384   C388    1.393   .     A
C384   C640    1.381   .     S
C389   N419    1.430   .     S
C389   N394    1.369   .     A
C389   C477    1.426   .     S
C390   N393    1.370   .     A
C390   N422    1.430   .     S
C391   N393    1.377   .     A
C391   C425    1.470   .     S
C392   C428    1.475   .     S
C392   N394    1.378   .     A
C392   C476    1.430   .     S
C395   H396    1.082   .     S
C395   O397    1.222   .     D
C398   H399    1.083   .     S
C398   O486    1.220   .     S
C401   O403    1.221   .     D
C401   H402    1.078   .     S
C404   O406    1.221   .     D
C404   H405    1.084   .     S
N407   O408    1.302   .     A
N407   O495    1.300   .     S
N410   O412    1.301   .     A
N410   O411    1.300   .     A
C413   O415    1.222   .     D
C413   H414    1.081   .     S
C416   O418    1.221   .     D
C416   H417    1.083   .     S
N419   O420    1.300   .     A
N419   O421    1.301   .     A
N422   O424    1.299   .     A
N422   O423    1.301   .     A
C425   H426    1.085   .     S
C425   O427    1.218   .     D
C428   O430    1.220   .     D
C428   H429    1.074   .     S
O431   C435    1.289   .     A
O431   Zn443   1.983   .     S
O432   C436    1.287   .     A
O432   Zn444   1.983   .     S
O433   Zn444   1.982   .     S
O433   C435    1.286   .     A
O434   Zn443   1.982   .     S
O434   C436    1.287   .     A
C435   C474    1.409   .     S
C436   C473    1.406   .     S
O437   C441    1.293   .     A
O437   Zn443   1.953   .     S
O438   Zn444   1.953   .     S
O438   C442    1.310   .     A
O439   Zn444   1.912   .     S
O439   C441    1.306   .     A
O440   C442    1.301   .     A
O440   Zn443   1.912   .     S
C441   C445    1.461   .     S
C442   C446    1.482   .     S
Zn443  N479    2.030   .     S
Zn444  N480    2.030   .     S
C445   C449    1.417   .     A
C445   C451    1.398   .     A
C446   C450    1.420   .     A
C446   C452    1.414   .     A
C447   H463    1.079   .     S
C447   C455    1.407   .     A
C447   C449    1.399   .     A
C448   C456    1.408   .     A
C448   H464    1.078   .     S
C448   C450    1.404   .     A
C449   N496    1.437   .     S
C450   N493    1.436   .     S
C451   C490    1.495   .     S
C451   C453    1.406   .     A
C452   C487    1.509   .     S
C452   C454    1.402   .     A
C453   C457    1.408   .     A
C453   C455    1.420   .     A
C454   C458    1.404   .     A
C454   C456    1.413   .     A
C455   C1235   1.418   .     S
C456   C1236   1.421   1_554 S
C457   C460    1.410   .     A
C457   C1232   1.392   .     S
C458   C459    1.408   .     A
C458   C1231   1.392   1_554 S
C459   H465    1.082   .     S
C459   C461    1.402   .     A
C460   C462    1.405   .     A
C460   H466    1.084   .     S
C461   C481    1.489   .     S
C461   C1229   1.418   1_554 S
C462   C484    1.483   .     S
C462   C1230   1.421   .     S
C467   C499    1.483   .     S
C467   C474    1.403   .     A
C467   C727    1.378   .     S
C468   C502    1.489   .     S
C468   C473    1.406   .     A
C469   C473    1.392   .     A
C469   H471    1.085   .     S
C470   H472    1.084   .     S
C470   C474    1.393   .     A
C470   C726    1.381   .     S
C475   N505    1.430   .     S
C475   N480    1.369   .     A
C475   C305    1.426   1_655 S
C476   N479    1.370   .     A
C476   N508    1.430   .     S
C477   N479    1.377   .     A
C477   C511    1.470   .     S
C478   C514    1.475   .     S
C478   N480    1.378   .     A
C478   C304    1.430   1_655 S
C481   H482    1.082   .     S
C481   O483    1.222   .     D
C484   H485    1.083   .     S
C484   O314    1.220   1_655 S
C487   O489    1.221   .     D
C487   H488    1.078   .     S
C490   O492    1.221   .     D
C490   H491    1.084   .     S
N493   O494    1.302   .     A
N493   O323    1.300   1_655 S
N496   O498    1.301   .     A
N496   O497    1.300   .     A
C499   O501    1.222   .     D
C499   H500    1.081   .     S
C502   O504    1.221   .     D
C502   H503    1.083   .     S
N505   O506    1.300   .     A
N505   O507    1.301   .     A
N508   O510    1.299   .     A
N508   O509    1.301   .     A
C511   H512    1.085   .     S
C511   O513    1.218   .     D
C514   O516    1.220   .     D
C514   H515    1.074   .     S
O517   C521    1.289   .     A
O517   Zn529   1.983   .     S
O518   C522    1.287   .     A
O518   Zn530   1.983   .     S
O519   Zn530   1.982   .     S
O519   C521    1.286   .     A
O520   Zn529   1.982   .     S
O520   C522    1.287   .     A
C521   C560    1.409   .     S
C522   C559    1.406   .     S
O523   C527    1.293   .     A
O523   Zn529   1.953   .     S
O524   Zn530   1.953   .     S
O524   C528    1.310   .     A
O525   Zn530   1.912   .     S
O525   C527    1.306   .     A
O526   C528    1.301   .     A
O526   Zn529   1.912   .     S
C527   C531    1.461   .     S
C528   C532    1.482   .     S
Zn529  N565    2.030   .     S
Zn530  N566    2.030   .     S
C531   C535    1.417   .     A
C531   C537    1.398   .     A
C532   C536    1.420   .     A
C532   C538    1.414   .     A
C533   H549    1.079   .     S
C533   C541    1.407   .     A
C533   C535    1.399   .     A
C534   C542    1.408   .     A
C534   H550    1.078   .     S
C534   C536    1.404   .     A
C535   N582    1.437   .     S
C536   N579    1.436   .     S
C537   C576    1.495   .     S
C537   C539    1.406   .     A
C538   C573    1.509   .     S
C538   C540    1.402   .     A
C539   C543    1.408   .     A
C539   C541    1.420   .     A
C540   C544    1.404   .     A
C540   C542    1.413   .     A
C541   C1321   1.418   .     S
C542   C1322   1.421   1_554 S
C543   C546    1.410   .     A
C543   C1318   1.392   .     S
C544   C545    1.408   .     A
C544   C1317   1.392   1_554 S
C545   H551    1.082   .     S
C545   C547    1.402   .     A
C546   C548    1.405   .     A
C546   H552    1.084   .     S
C547   C567    1.489   .     S
C547   C1315   1.418   1_554 S
C548   C570    1.483   .     S
C548   C1316   1.421   .     S
C553   C585    1.483   .     S
C553   C560    1.403   .     A
C553   C39     1.378   1_565 S
C554   C588    1.489   .     S
C554   C559    1.406   .     A
C555   C559    1.392   .     A
C555   H557    1.085   .     S
C556   H558    1.084   .     S
C556   C560    1.393   .     A
C556   C38     1.381   1_565 S
C561   N591    1.430   .     S
C561   N566    1.369   .     A
C561   C649    1.426   .     S
C562   N565    1.370   .     A
C562   N594    1.430   .     S
C562   C736    1.430   1_455 S
C563   N565    1.377   .     A
C563   C597    1.470   .     S
C563   C733    1.426   1_455 S
C564   C600    1.475   .     S
C564   N566    1.378   .     A
C564   C648    1.430   .     S
C567   H568    1.082   .     S
C567   O569    1.222   .     D
C570   H571    1.083   .     S
C570   O658    1.220   .     S
O572   C742    1.220   1_455 S
C573   O575    1.221   .     D
C573   H574    1.078   .     S
C576   O578    1.221   .     D
C576   H577    1.084   .     S
N579   O580    1.302   .     A
N579   O667    1.300   .     S
O581   N751    1.300   1_455 S
N582   O584    1.301   .     A
N582   O583    1.300   .     A
C585   O587    1.222   .     D
C585   H586    1.081   .     S
C588   O590    1.221   .     D
C588   H589    1.083   .     S
N591   O592    1.300   .     A
N591   O593    1.301   .     A
N594   O596    1.299   .     A
N594   O595    1.301   .     A
C597   H598    1.085   .     S
C597   O599    1.218   .     D
C600   O602    1.220   .     D
C600   H601    1.074   .     S
O603   C607    1.289   .     A
O603   Zn615   1.983   .     S
O604   C608    1.287   .     A
O604   Zn616   1.983   .     S
O605   Zn616   1.982   .     S
O605   C607    1.286   .     A
O606   Zn615   1.982   .     S
O606   C608    1.287   .     A
C607   C646    1.409   .     S
C608   C645    1.406   .     S
O609   C613    1.293   .     A
O609   Zn615   1.953   .     S
O610   Zn616   1.953   .     S
O610   C614    1.310   .     A
O611   Zn616   1.912   .     S
O611   C613    1.306   .     A
O612   C614    1.301   .     A
O612   Zn615   1.912   .     S
C613   C617    1.461   .     S
C614   C618    1.482   .     S
Zn615  N651    2.030   .     S
Zn616  N652    2.030   .     S
C617   C621    1.417   .     A
C617   C623    1.398   .     A
C618   C622    1.420   .     A
C618   C624    1.414   .     A
C619   H635    1.079   .     S
C619   C627    1.407   .     A
C619   C621    1.399   .     A
C620   C628    1.408   .     A
C620   H636    1.078   .     S
C620   C622    1.404   .     A
C621   N668    1.437   .     S
C622   N665    1.436   .     S
C623   C662    1.495   .     S
C623   C625    1.406   .     A
C624   C659    1.509   .     S
C624   C626    1.402   .     A
C625   C629    1.408   .     A
C625   C627    1.420   .     A
C626   C630    1.404   .     A
C626   C628    1.413   .     A
C627   C1407   1.418   .     S
C628   C1408   1.421   1_554 S
C629   C632    1.410   .     A
C629   C1404   1.392   .     S
C630   C631    1.408   .     A
C630   C1403   1.392   1_554 S
C631   H637    1.082   .     S
C631   C633    1.402   .     A
C632   C634    1.405   .     A
C632   H638    1.084   .     S
C633   C653    1.489   .     S
C633   C1401   1.418   1_554 S
C634   C656    1.483   .     S
C634   C1402   1.421   .     S
C639   C671    1.483   .     S
C639   C646    1.403   .     A
C639   C125    1.378   1_565 S
C640   C674    1.489   .     S
C640   C645    1.406   .     A
C641   C645    1.392   .     A
C641   H643    1.085   .     S
C642   H644    1.084   .     S
C642   C646    1.393   .     A
C642   C124    1.381   1_565 S
C647   N677    1.430   .     S
C647   N652    1.369   .     A
C647   C735    1.426   .     S
C648   N651    1.370   .     A
C648   N680    1.430   .     S
C649   N651    1.377   .     A
C649   C683    1.470   .     S
C650   C686    1.475   .     S
C650   N652    1.378   .     A
C650   C734    1.430   .     S
C653   H654    1.082   .     S
C653   O655    1.222   .     D
C656   H657    1.083   .     S
C656   O744    1.220   .     S
C659   O661    1.221   .     D
C659   H660    1.078   .     S
C662   O664    1.221   .     D
C662   H663    1.084   .     S
N665   O666    1.302   .     A
N665   O753    1.300   .     S
N668   O670    1.301   .     A
N668   O669    1.300   .     A
C671   O673    1.222   .     D
C671   H672    1.081   .     S
C674   O676    1.221   .     D
C674   H675    1.083   .     S
N677   O678    1.300   .     A
N677   O679    1.301   .     A
N680   O682    1.299   .     A
N680   O681    1.301   .     A
C683   H684    1.085   .     S
C683   O685    1.218   .     D
C686   O688    1.220   .     D
C686   H687    1.074   .     S
O689   C693    1.289   .     A
O689   Zn701   1.983   .     S
O690   C694    1.287   .     A
O690   Zn702   1.983   .     S
O691   Zn702   1.982   .     S
O691   C693    1.286   .     A
O692   Zn701   1.982   .     S
O692   C694    1.287   .     A
C693   C732    1.409   .     S
C694   C731    1.406   .     S
O695   C699    1.293   .     A
O695   Zn701   1.953   .     S
O696   Zn702   1.953   .     S
O696   C700    1.310   .     A
O697   Zn702   1.912   .     S
O697   C699    1.306   .     A
O698   C700    1.301   .     A
O698   Zn701   1.912   .     S
C699   C703    1.461   .     S
C700   C704    1.482   .     S
Zn701  N737    2.030   .     S
Zn702  N738    2.030   .     S
C703   C707    1.417   .     A
C703   C709    1.398   .     A
C704   C708    1.420   .     A
C704   C710    1.414   .     A
C705   H721    1.079   .     S
C705   C713    1.407   .     A
C705   C707    1.399   .     A
C706   C714    1.408   .     A
C706   H722    1.078   .     S
C706   C708    1.404   .     A
C707   N754    1.437   .     S
C708   N751    1.436   .     S
C709   C748    1.495   .     S
C709   C711    1.406   .     A
C710   C745    1.509   .     S
C710   C712    1.402   .     A
C711   C715    1.408   .     A
C711   C713    1.420   .     A
C712   C716    1.404   .     A
C712   C714    1.413   .     A
C713   C1493   1.418   .     S
C714   C1494   1.421   1_554 S
C715   C718    1.410   .     A
C715   C1490   1.392   .     S
C716   C717    1.408   .     A
C716   C1489   1.392   1_554 S
C717   H723    1.082   .     S
C717   C719    1.402   .     A
C718   C720    1.405   .     A
C718   H724    1.084   .     S
C719   C739    1.489   .     S
C719   C1487   1.418   1_554 S
C720   C742    1.483   .     S
C720   C1488   1.421   .     S
C725   C757    1.483   .     S
C725   C732    1.403   .     A
C725   C211    1.378   1_565 S
C726   C760    1.489   .     S
C726   C731    1.406   .     A
C727   C731    1.392   .     A
C727   H729    1.085   .     S
C728   H730    1.084   .     S
C728   C732    1.393   .     A
C728   C210    1.381   1_565 S
C733   N763    1.430   .     S
C733   N738    1.369   .     A
C733   C563    1.426   1_655 S
C734   N737    1.370   .     A
C734   N766    1.430   .     S
C735   N737    1.377   .     A
C735   C769    1.470   .     S
C736   C772    1.475   .     S
C736   N738    1.378   .     A
C736   C562    1.430   1_655 S
C739   H740    1.082   .     S
C739   O741    1.222   .     D
C742   H743    1.083   .     S
C742   O572    1.220   1_655 S
C745   O747    1.221   .     D
C745   H746    1.078   .     S
C748   O750    1.221   .     D
C748   H749    1.084   .     S
N751   O752    1.302   .     A
N751   O581    1.300   1_655 S
N754   O756    1.301   .     A
N754   O755    1.300   .     A
C757   O759    1.222   .     D
C757   H758    1.081   .     S
C760   O762    1.221   .     D
C760   H761    1.083   .     S
N763   O764    1.300   .     A
N763   O765    1.301   .     A
N766   O768    1.299   .     A
N766   O767    1.301   .     A
C769   H770    1.085   .     S
C769   O771    1.218   .     D
C772   O774    1.220   .     D
C772   H773    1.074   .     S
O775   C779    1.289   .     A
O775   Zn787   1.983   .     S
O776   C780    1.287   .     A
O776   Zn788   1.983   .     S
O777   Zn788   1.982   .     S
O777   C779    1.286   .     A
O778   Zn787   1.982   .     S
O778   C780    1.287   .     A
C779   C818    1.409   .     S
C780   C817    1.406   .     S
O781   C785    1.293   .     A
O781   Zn787   1.953   .     S
O782   Zn788   1.953   .     S
O782   C786    1.310   .     A
O783   Zn788   1.912   .     S
O783   C785    1.306   .     A
O784   C786    1.301   .     A
O784   Zn787   1.912   .     S
C785   C789    1.461   .     S
C786   C790    1.482   .     S
Zn787  N823    2.030   .     S
Zn788  N824    2.030   .     S
C789   C793    1.417   .     A
C789   C795    1.398   .     A
C790   C794    1.420   .     A
C790   C796    1.414   .     A
C791   H807    1.079   .     S
C791   C799    1.407   .     A
C791   C793    1.399   .     A
C792   C800    1.408   .     A
C792   H808    1.078   .     S
C792   C794    1.404   .     A
C793   N840    1.437   .     S
C794   N837    1.436   .     S
C795   C834    1.495   .     S
C795   C797    1.406   .     A
C796   C831    1.509   .     S
C796   C798    1.402   .     A
C797   C801    1.408   .     A
C797   C799    1.420   .     A
C798   C802    1.404   .     A
C798   C800    1.413   .     A
C799   C31     1.418   1_556 S
C801   C804    1.410   .     A
C801   C28     1.392   1_556 S
C802   C803    1.408   .     A
C803   H809    1.082   .     S
C803   C805    1.402   .     A
C804   C806    1.405   .     A
C804   H810    1.084   .     S
C805   C825    1.489   .     S
C806   C828    1.483   .     S
C806   C26     1.421   1_556 S
C811   C843    1.483   .     S
C811   C818    1.403   .     A
C811   C1071   1.378   .     S
C812   C846    1.489   .     S
C812   C817    1.406   .     A
C812   C1330   1.381   1_545 S
C813   C817    1.392   .     A
C813   H815    1.085   .     S
C813   C1327   1.378   1_545 S
C814   H816    1.084   .     S
C814   C818    1.393   .     A
C814   C1070   1.381   .     S
C819   N849    1.430   .     S
C819   N824    1.369   .     A
C819   C907    1.426   .     S
C820   N823    1.370   .     A
C820   N852    1.430   .     S
C820   C994    1.430   1_455 S
C821   N823    1.377   .     A
C821   C855    1.470   .     S
C821   C991    1.426   1_455 S
C822   C858    1.475   .     S
C822   N824    1.378   .     A
C822   C906    1.430   .     S
C825   H826    1.082   .     S
C825   O827    1.222   .     D
C828   H829    1.083   .     S
C828   O916    1.220   .     S
O830   C1000   1.220   1_455 S
C831   O833    1.221   .     D
C831   H832    1.078   .     S
C834   O836    1.221   .     D
C834   H835    1.084   .     S
N837   O838    1.302   .     A
N837   O925    1.300   .     S
O839   N1009   1.300   1_455 S
N840   O842    1.301   .     A
N840   O841    1.300   .     A
C843   O845    1.222   .     D
C843   H844    1.081   .     S
C846   O848    1.221   .     D
C846   H847    1.083   .     S
N849   O850    1.300   .     A
N849   O851    1.301   .     A
N852   O854    1.299   .     A
N852   O853    1.301   .     A
C855   H856    1.085   .     S
C855   O857    1.218   .     D
C858   O860    1.220   .     D
C858   H859    1.074   .     S
O861   C865    1.289   .     A
O861   Zn873   1.983   .     S
O862   C866    1.287   .     A
O862   Zn874   1.983   .     S
O863   Zn874   1.982   .     S
O863   C865    1.286   .     A
O864   Zn873   1.982   .     S
O864   C866    1.287   .     A
C865   C904    1.409   .     S
C866   C903    1.406   .     S
O867   C871    1.293   .     A
O867   Zn873   1.953   .     S
O868   Zn874   1.953   .     S
O868   C872    1.310   .     A
O869   Zn874   1.912   .     S
O869   C871    1.306   .     A
O870   C872    1.301   .     A
O870   Zn873   1.912   .     S
C871   C875    1.461   .     S
C872   C876    1.482   .     S
Zn873  N909    2.030   .     S
Zn874  N910    2.030   .     S
C875   C879    1.417   .     A
C875   C881    1.398   .     A
C876   C880    1.420   .     A
C876   C882    1.414   .     A
C877   H893    1.079   .     S
C877   C885    1.407   .     A
C877   C879    1.399   .     A
C878   C886    1.408   .     A
C878   H894    1.078   .     S
C878   C880    1.404   .     A
C879   N926    1.437   .     S
C880   N923    1.436   .     S
C881   C920    1.495   .     S
C881   C883    1.406   .     A
C882   C917    1.509   .     S
C882   C884    1.402   .     A
C883   C887    1.408   .     A
C883   C885    1.420   .     A
C884   C888    1.404   .     A
C884   C886    1.413   .     A
C885   C117    1.418   1_556 S
C887   C890    1.410   .     A
C887   C114    1.392   1_556 S
C888   C889    1.408   .     A
C889   H895    1.082   .     S
C889   C891    1.402   .     A
C890   C892    1.405   .     A
C890   H896    1.084   .     S
C891   C911    1.489   .     S
C892   C914    1.483   .     S
C892   C112    1.421   1_556 S
C897   C929    1.483   .     S
C897   C904    1.403   .     A
C897   C1157   1.378   .     S
C898   C932    1.489   .     S
C898   C903    1.406   .     A
C898   C1416   1.381   1_545 S
C899   C903    1.392   .     A
C899   H901    1.085   .     S
C899   C1413   1.378   1_545 S
C900   H902    1.084   .     S
C900   C904    1.393   .     A
C900   C1156   1.381   .     S
C905   N935    1.430   .     S
C905   N910    1.369   .     A
C905   C993    1.426   .     S
C906   N909    1.370   .     A
C906   N938    1.430   .     S
C907   N909    1.377   .     A
C907   C941    1.470   .     S
C908   C944    1.475   .     S
C908   N910    1.378   .     A
C908   C992    1.430   .     S
C911   H912    1.082   .     S
C911   O913    1.222   .     D
C914   H915    1.083   .     S
C914   O1002   1.220   .     S
C917   O919    1.221   .     D
C917   H918    1.078   .     S
C920   O922    1.221   .     D
C920   H921    1.084   .     S
N923   O924    1.302   .     A
N923   O1011   1.300   .     S
N926   O928    1.301   .     A
N926   O927    1.300   .     A
C929   O931    1.222   .     D
C929   H930    1.081   .     S
C932   O934    1.221   .     D
C932   H933    1.083   .     S
N935   O936    1.300   .     A
N935   O937    1.301   .     A
N938   O940    1.299   .     A
N938   O939    1.301   .     A
C941   H942    1.085   .     S
C941   O943    1.218   .     D
C944   O946    1.220   .     D
C944   H945    1.074   .     S
O947   C951    1.289   .     A
O947   Zn959   1.983   .     S
O948   C952    1.287   .     A
O948   Zn960   1.983   .     S
O949   Zn960   1.982   .     S
O949   C951    1.286   .     A
O950   Zn959   1.982   .     S
O950   C952    1.287   .     A
C951   C990    1.409   .     S
C952   C989    1.406   .     S
O953   C957    1.293   .     A
O953   Zn959   1.953   .     S
O954   Zn960   1.953   .     S
O954   C958    1.310   .     A
O955   Zn960   1.912   .     S
O955   C957    1.306   .     A
O956   C958    1.301   .     A
O956   Zn959   1.912   .     S
C957   C961    1.461   .     S
C958   C962    1.482   .     S
Zn959  N995    2.030   .     S
Zn960  N996    2.030   .     S
C961   C965    1.417   .     A
C961   C967    1.398   .     A
C962   C966    1.420   .     A
C962   C968    1.414   .     A
C963   H979    1.079   .     S
C963   C971    1.407   .     A
C963   C965    1.399   .     A
C964   C972    1.408   .     A
C964   H980    1.078   .     S
C964   C966    1.404   .     A
C965   N1012   1.437   .     S
C966   N1009   1.436   .     S
C967   C1006   1.495   .     S
C967   C969    1.406   .     A
C968   C1003   1.509   .     S
C968   C970    1.402   .     A
C969   C973    1.408   .     A
C969   C971    1.420   .     A
C970   C974    1.404   .     A
C970   C972    1.413   .     A
C971   C203    1.418   1_556 S
C973   C976    1.410   .     A
C973   C200    1.392   1_556 S
C974   C975    1.408   .     A
C975   H981    1.082   .     S
C975   C977    1.402   .     A
C976   C978    1.405   .     A
C976   H982    1.084   .     S
C977   C997    1.489   .     S
C978   C1000   1.483   .     S
C978   C198    1.421   1_556 S
C983   C1015   1.483   .     S
C983   C990    1.403   .     A
C983   C1243   1.378   .     S
C984   C1018   1.489   .     S
C984   C989    1.406   .     A
C984   C1502   1.381   1_545 S
C985   C989    1.392   .     A
C985   H987    1.085   .     S
C985   C1499   1.378   1_545 S
C986   H988    1.084   .     S
C986   C990    1.393   .     A
C986   C1242   1.381   .     S
C991   N1021   1.430   .     S
C991   N996    1.369   .     A
C991   C821    1.426   1_655 S
C992   N995    1.370   .     A
C992   N1024   1.430   .     S
C993   N995    1.377   .     A
C993   C1027   1.470   .     S
C994   C1030   1.475   .     S
C994   N996    1.378   .     A
C994   C820    1.430   1_655 S
C997   H998    1.082   .     S
C997   O999    1.222   .     D
C1000  H1001   1.083   .     S
C1000  O830    1.220   1_655 S
C1003  O1005   1.221   .     D
C1003  H1004   1.078   .     S
C1006  O1008   1.221   .     D
C1006  H1007   1.084   .     S
N1009  O1010   1.302   .     A
N1009  O839    1.300   1_655 S
N1012  O1014   1.301   .     A
N1012  O1013   1.300   .     A
C1015  O1017   1.222   .     D
C1015  H1016   1.081   .     S
C1018  O1020   1.221   .     D
C1018  H1019   1.083   .     S
N1021  O1022   1.300   .     A
N1021  O1023   1.301   .     A
N1024  O1026   1.299   .     A
N1024  O1025   1.301   .     A
C1027  H1028   1.085   .     S
C1027  O1029   1.218   .     D
C1030  O1032   1.220   .     D
C1030  H1031   1.074   .     S
O1033  C1037   1.289   .     A
O1033  Zn1045  1.983   .     S
O1034  C1038   1.287   .     A
O1034  Zn1046  1.983   .     S
O1035  Zn1046  1.982   .     S
O1035  C1037   1.286   .     A
O1036  Zn1045  1.982   .     S
O1036  C1038   1.287   .     A
C1037  C1076   1.409   .     S
C1038  C1075   1.406   .     S
O1039  C1043   1.293   .     A
O1039  Zn1045  1.953   .     S
O1040  Zn1046  1.953   .     S
O1040  C1044   1.310   .     A
O1041  Zn1046  1.912   .     S
O1041  C1043   1.306   .     A
O1042  C1044   1.301   .     A
O1042  Zn1045  1.912   .     S
C1043  C1047   1.461   .     S
C1044  C1048   1.482   .     S
Zn1045 N1081   2.030   .     S
Zn1046 N1082   2.030   .     S
C1047  C1051   1.417   .     A
C1047  C1053   1.398   .     A
C1048  C1052   1.420   .     A
C1048  C1054   1.414   .     A
C1049  H1065   1.079   .     S
C1049  C1057   1.407   .     A
C1049  C1051   1.399   .     A
C1050  C1058   1.408   .     A
C1050  H1066   1.078   .     S
C1050  C1052   1.404   .     A
C1051  N1098   1.437   .     S
C1052  N1095   1.436   .     S
C1053  C1092   1.495   .     S
C1053  C1055   1.406   .     A
C1054  C1089   1.509   .     S
C1054  C1056   1.402   .     A
C1055  C1059   1.408   .     A
C1055  C1057   1.420   .     A
C1056  C1060   1.404   .     A
C1056  C1058   1.413   .     A
C1057  C289    1.418   1_556 S
C1059  C1062   1.410   .     A
C1059  C286    1.392   1_556 S
C1060  C1061   1.408   .     A
C1061  H1067   1.082   .     S
C1061  C1063   1.402   .     A
C1062  C1064   1.405   .     A
C1062  H1068   1.084   .     S
C1063  C1083   1.489   .     S
C1064  C1086   1.483   .     S
C1064  C284    1.421   1_556 S
C1069  C1101   1.483   .     S
C1069  C1076   1.403   .     A
C1069  C1329   1.378   .     S
C1070  C1104   1.489   .     S
C1070  C1075   1.406   .     A
C1071  C1075   1.392   .     A
C1071  H1073   1.085   .     S
C1072  H1074   1.084   .     S
C1072  C1076   1.393   .     A
C1072  C1328   1.381   .     S
C1077  N1107   1.430   .     S
C1077  N1082   1.369   .     A
C1077  C1165   1.426   .     S
C1078  N1081   1.370   .     A
C1078  N1110   1.430   .     S
C1078  C1252   1.430   1_455 S
C1079  N1081   1.377   .     A
C1079  C1113   1.470   .     S
C1079  C1249   1.426   1_455 S
C1080  C1116   1.475   .     S
C1080  N1082   1.378   .     A
C1080  C1164   1.430   .     S
C1083  H1084   1.082   .     S
C1083  O1085   1.222   .     D
C1086  H1087   1.083   .     S
C1086  O1174   1.220   .     S
O1088  C1258   1.220   1_455 S
C1089  O1091   1.221   .     D
C1089  H1090   1.078   .     S
C1092  O1094   1.221   .     D
C1092  H1093   1.084   .     S
N1095  O1096   1.302   .     A
N1095  O1183   1.300   .     S
O1097  N1267   1.300   1_455 S
N1098  O1100   1.301   .     A
N1098  O1099   1.300   .     A
C1101  O1103   1.222   .     D
C1101  H1102   1.081   .     S
C1104  O1106   1.221   .     D
C1104  H1105   1.083   .     S
N1107  O1108   1.300   .     A
N1107  O1109   1.301   .     A
N1110  O1112   1.299   .     A
N1110  O1111   1.301   .     A
C1113  H1114   1.085   .     S
C1113  O1115   1.218   .     D
C1116  O1118   1.220   .     D
C1116  H1117   1.074   .     S
O1119  C1123   1.289   .     A
O1119  Zn1131  1.983   .     S
O1120  C1124   1.287   .     A
O1120  Zn1132  1.983   .     S
O1121  Zn1132  1.982   .     S
O1121  C1123   1.286   .     A
O1122  Zn1131  1.982   .     S
O1122  C1124   1.287   .     A
C1123  C1162   1.409   .     S
C1124  C1161   1.406   .     S
O1125  C1129   1.293   .     A
O1125  Zn1131  1.953   .     S
O1126  Zn1132  1.953   .     S
O1126  C1130   1.310   .     A
O1127  Zn1132  1.912   .     S
O1127  C1129   1.306   .     A
O1128  C1130   1.301   .     A
O1128  Zn1131  1.912   .     S
C1129  C1133   1.461   .     S
C1130  C1134   1.482   .     S
Zn1131 N1167   2.030   .     S
Zn1132 N1168   2.030   .     S
C1133  C1137   1.417   .     A
C1133  C1139   1.398   .     A
C1134  C1138   1.420   .     A
C1134  C1140   1.414   .     A
C1135  H1151   1.079   .     S
C1135  C1143   1.407   .     A
C1135  C1137   1.399   .     A
C1136  C1144   1.408   .     A
C1136  H1152   1.078   .     S
C1136  C1138   1.404   .     A
C1137  N1184   1.437   .     S
C1138  N1181   1.436   .     S
C1139  C1178   1.495   .     S
C1139  C1141   1.406   .     A
C1140  C1175   1.509   .     S
C1140  C1142   1.402   .     A
C1141  C1145   1.408   .     A
C1141  C1143   1.420   .     A
C1142  C1146   1.404   .     A
C1142  C1144   1.413   .     A
C1143  C375    1.418   1_556 S
C1145  C1148   1.410   .     A
C1145  C372    1.392   1_556 S
C1146  C1147   1.408   .     A
C1147  H1153   1.082   .     S
C1147  C1149   1.402   .     A
C1148  C1150   1.405   .     A
C1148  H1154   1.084   .     S
C1149  C1169   1.489   .     S
C1150  C1172   1.483   .     S
C1150  C370    1.421   1_556 S
C1155  C1187   1.483   .     S
C1155  C1162   1.403   .     A
C1155  C1415   1.378   .     S
C1156  C1190   1.489   .     S
C1156  C1161   1.406   .     A
C1157  C1161   1.392   .     A
C1157  H1159   1.085   .     S
C1158  H1160   1.084   .     S
C1158  C1162   1.393   .     A
C1158  C1414   1.381   .     S
C1163  N1193   1.430   .     S
C1163  N1168   1.369   .     A
C1163  C1251   1.426   .     S
C1164  N1167   1.370   .     A
C1164  N1196   1.430   .     S
C1165  N1167   1.377   .     A
C1165  C1199   1.470   .     S
C1166  C1202   1.475   .     S
C1166  N1168   1.378   .     A
C1166  C1250   1.430   .     S
C1169  H1170   1.082   .     S
C1169  O1171   1.222   .     D
C1172  H1173   1.083   .     S
C1172  O1260   1.220   .     S
C1175  O1177   1.221   .     D
C1175  H1176   1.078   .     S
C1178  O1180   1.221   .     D
C1178  H1179   1.084   .     S
N1181  O1182   1.302   .     A
N1181  O1269   1.300   .     S
N1184  O1186   1.301   .     A
N1184  O1185   1.300   .     A
C1187  O1189   1.222   .     D
C1187  H1188   1.081   .     S
C1190  O1192   1.221   .     D
C1190  H1191   1.083   .     S
N1193  O1194   1.300   .     A
N1193  O1195   1.301   .     A
N1196  O1198   1.299   .     A
N1196  O1197   1.301   .     A
C1199  H1200   1.085   .     S
C1199  O1201   1.218   .     D
C1202  O1204   1.220   .     D
C1202  H1203   1.074   .     S
O1205  C1209   1.289   .     A
O1205  Zn1217  1.983   .     S
O1206  C1210   1.287   .     A
O1206  Zn1218  1.983   .     S
O1207  Zn1218  1.982   .     S
O1207  C1209   1.286   .     A
O1208  Zn1217  1.982   .     S
O1208  C1210   1.287   .     A
C1209  C1248   1.409   .     S
C1210  C1247   1.406   .     S
O1211  C1215   1.293   .     A
O1211  Zn1217  1.953   .     S
O1212  Zn1218  1.953   .     S
O1212  C1216   1.310   .     A
O1213  Zn1218  1.912   .     S
O1213  C1215   1.306   .     A
O1214  C1216   1.301   .     A
O1214  Zn1217  1.912   .     S
C1215  C1219   1.461   .     S
C1216  C1220   1.482   .     S
Zn1217 N1253   2.030   .     S
Zn1218 N1254   2.030   .     S
C1219  C1223   1.417   .     A
C1219  C1225   1.398   .     A
C1220  C1224   1.420   .     A
C1220  C1226   1.414   .     A
C1221  H1237   1.079   .     S
C1221  C1229   1.407   .     A
C1221  C1223   1.399   .     A
C1222  C1230   1.408   .     A
C1222  H1238   1.078   .     S
C1222  C1224   1.404   .     A
C1223  N1270   1.437   .     S
C1224  N1267   1.436   .     S
C1225  C1264   1.495   .     S
C1225  C1227   1.406   .     A
C1226  C1261   1.509   .     S
C1226  C1228   1.402   .     A
C1227  C1231   1.408   .     A
C1227  C1229   1.420   .     A
C1228  C1232   1.404   .     A
C1228  C1230   1.413   .     A
C1229  C461    1.418   1_556 S
C1231  C1234   1.410   .     A
C1231  C458    1.392   1_556 S
C1232  C1233   1.408   .     A
C1233  H1239   1.082   .     S
C1233  C1235   1.402   .     A
C1234  C1236   1.405   .     A
C1234  H1240   1.084   .     S
C1235  C1255   1.489   .     S
C1236  C1258   1.483   .     S
C1236  C456    1.421   1_556 S
C1241  C1273   1.483   .     S
C1241  C1248   1.403   .     A
C1241  C1501   1.378   .     S
C1242  C1276   1.489   .     S
C1242  C1247   1.406   .     A
C1243  C1247   1.392   .     A
C1243  H1245   1.085   .     S
C1244  H1246   1.084   .     S
C1244  C1248   1.393   .     A
C1244  C1500   1.381   .     S
C1249  N1279   1.430   .     S
C1249  N1254   1.369   .     A
C1249  C1079   1.426   1_655 S
C1250  N1253   1.370   .     A
C1250  N1282   1.430   .     S
C1251  N1253   1.377   .     A
C1251  C1285   1.470   .     S
C1252  C1288   1.475   .     S
C1252  N1254   1.378   .     A
C1252  C1078   1.430   1_655 S
C1255  H1256   1.082   .     S
C1255  O1257   1.222   .     D
C1258  H1259   1.083   .     S
C1258  O1088   1.220   1_655 S
C1261  O1263   1.221   .     D
C1261  H1262   1.078   .     S
C1264  O1266   1.221   .     D
C1264  H1265   1.084   .     S
N1267  O1268   1.302   .     A
N1267  O1097   1.300   1_655 S
N1270  O1272   1.301   .     A
N1270  O1271   1.300   .     A
C1273  O1275   1.222   .     D
C1273  H1274   1.081   .     S
C1276  O1278   1.221   .     D
C1276  H1277   1.083   .     S
N1279  O1280   1.300   .     A
N1279  O1281   1.301   .     A
N1282  O1284   1.299   .     A
N1282  O1283   1.301   .     A
C1285  H1286   1.085   .     S
C1285  O1287   1.218   .     D
C1288  O1290   1.220   .     D
C1288  H1289   1.074   .     S
O1291  C1295   1.289   .     A
O1291  Zn1303  1.983   .     S
O1292  C1296   1.287   .     A
O1292  Zn1304  1.983   .     S
O1293  Zn1304  1.982   .     S
O1293  C1295   1.286   .     A
O1294  Zn1303  1.982   .     S
O1294  C1296   1.287   .     A
C1295  C1334   1.409   .     S
C1296  C1333   1.406   .     S
O1297  C1301   1.293   .     A
O1297  Zn1303  1.953   .     S
O1298  Zn1304  1.953   .     S
O1298  C1302   1.310   .     A
O1299  Zn1304  1.912   .     S
O1299  C1301   1.306   .     A
O1300  C1302   1.301   .     A
O1300  Zn1303  1.912   .     S
C1301  C1305   1.461   .     S
C1302  C1306   1.482   .     S
Zn1303 N1339   2.030   .     S
Zn1304 N1340   2.030   .     S
C1305  C1309   1.417   .     A
C1305  C1311   1.398   .     A
C1306  C1310   1.420   .     A
C1306  C1312   1.414   .     A
C1307  H1323   1.079   .     S
C1307  C1315   1.407   .     A
C1307  C1309   1.399   .     A
C1308  C1316   1.408   .     A
C1308  H1324   1.078   .     S
C1308  C1310   1.404   .     A
C1309  N1356   1.437   .     S
C1310  N1353   1.436   .     S
C1311  C1350   1.495   .     S
C1311  C1313   1.406   .     A
C1312  C1347   1.509   .     S
C1312  C1314   1.402   .     A
C1313  C1317   1.408   .     A
C1313  C1315   1.420   .     A
C1314  C1318   1.404   .     A
C1314  C1316   1.413   .     A
C1315  C547    1.418   1_556 S
C1317  C1320   1.410   .     A
C1317  C544    1.392   1_556 S
C1318  C1319   1.408   .     A
C1319  H1325   1.082   .     S
C1319  C1321   1.402   .     A
C1320  C1322   1.405   .     A
C1320  H1326   1.084   .     S
C1321  C1341   1.489   .     S
C1322  C1344   1.483   .     S
C1322  C542    1.421   1_556 S
C1327  C1359   1.483   .     S
C1327  C1334   1.403   .     A
C1327  C813    1.378   1_565 S
C1328  C1362   1.489   .     S
C1328  C1333   1.406   .     A
C1329  C1333   1.392   .     A
C1329  H1331   1.085   .     S
C1330  H1332   1.084   .     S
C1330  C1334   1.393   .     A
C1330  C812    1.381   1_565 S
C1335  N1365   1.430   .     S
C1335  N1340   1.369   .     A
C1335  C1423   1.426   .     S
C1336  N1339   1.370   .     A
C1336  N1368   1.430   .     S
C1336  C1510   1.430   1_455 S
C1337  N1339   1.377   .     A
C1337  C1371   1.470   .     S
C1337  C1507   1.426   1_455 S
C1338  C1374   1.475   .     S
C1338  N1340   1.378   .     A
C1338  C1422   1.430   .     S
C1341  H1342   1.082   .     S
C1341  O1343   1.222   .     D
C1344  H1345   1.083   .     S
C1344  O1432   1.220   .     S
O1346  C1516   1.220   1_455 S
C1347  O1349   1.221   .     D
C1347  H1348   1.078   .     S
C1350  O1352   1.221   .     D
C1350  H1351   1.084   .     S
N1353  O1354   1.302   .     A
N1353  O1441   1.300   .     S
O1355  N1525   1.300   1_455 S
N1356  O1358   1.301   .     A
N1356  O1357   1.300   .     A
C1359  O1361   1.222   .     D
C1359  H1360   1.081   .     S
C1362  O1364   1.221   .     D
C1362  H1363   1.083   .     S
N1365  O1366   1.300   .     A
N1365  O1367   1.301   .     A
N1368  O1370   1.299   .     A
N1368  O1369   1.301   .     A
C1371  H1372   1.085   .     S
C1371  O1373   1.218   .     D
C1374  O1376   1.220   .     D
C1374  H1375   1.074   .     S
O1377  C1381   1.289   .     A
O1377  Zn1389  1.983   .     S
O1378  C1382   1.287   .     A
O1378  Zn1390  1.983   .     S
O1379  Zn1390  1.982   .     S
O1379  C1381   1.286   .     A
O1380  Zn1389  1.982   .     S
O1380  C1382   1.287   .     A
C1381  C1420   1.409   .     S
C1382  C1419   1.406   .     S
O1383  C1387   1.293   .     A
O1383  Zn1389  1.953   .     S
O1384  Zn1390  1.953   .     S
O1384  C1388   1.310   .     A
O1385  Zn1390  1.912   .     S
O1385  C1387   1.306   .     A
O1386  C1388   1.301   .     A
O1386  Zn1389  1.912   .     S
C1387  C1391   1.461   .     S
C1388  C1392   1.482   .     S
Zn1389 N1425   2.030   .     S
Zn1390 N1426   2.030   .     S
C1391  C1395   1.417   .     A
C1391  C1397   1.398   .     A
C1392  C1396   1.420   .     A
C1392  C1398   1.414   .     A
C1393  H1409   1.079   .     S
C1393  C1401   1.407   .     A
C1393  C1395   1.399   .     A
C1394  C1402   1.408   .     A
C1394  H1410   1.078   .     S
C1394  C1396   1.404   .     A
C1395  N1442   1.437   .     S
C1396  N1439   1.436   .     S
C1397  C1436   1.495   .     S
C1397  C1399   1.406   .     A
C1398  C1433   1.509   .     S
C1398  C1400   1.402   .     A
C1399  C1403   1.408   .     A
C1399  C1401   1.420   .     A
C1400  C1404   1.404   .     A
C1400  C1402   1.413   .     A
C1401  C633    1.418   1_556 S
C1403  C1406   1.410   .     A
C1403  C630    1.392   1_556 S
C1404  C1405   1.408   .     A
C1405  H1411   1.082   .     S
C1405  C1407   1.402   .     A
C1406  C1408   1.405   .     A
C1406  H1412   1.084   .     S
C1407  C1427   1.489   .     S
C1408  C1430   1.483   .     S
C1408  C628    1.421   1_556 S
C1413  C1445   1.483   .     S
C1413  C1420   1.403   .     A
C1413  C899    1.378   1_565 S
C1414  C1448   1.489   .     S
C1414  C1419   1.406   .     A
C1415  C1419   1.392   .     A
C1415  H1417   1.085   .     S
C1416  H1418   1.084   .     S
C1416  C1420   1.393   .     A
C1416  C898    1.381   1_565 S
C1421  N1451   1.430   .     S
C1421  N1426   1.369   .     A
C1421  C1509   1.426   .     S
C1422  N1425   1.370   .     A
C1422  N1454   1.430   .     S
C1423  N1425   1.377   .     A
C1423  C1457   1.470   .     S
C1424  C1460   1.475   .     S
C1424  N1426   1.378   .     A
C1424  C1508   1.430   .     S
C1427  H1428   1.082   .     S
C1427  O1429   1.222   .     D
C1430  H1431   1.083   .     S
C1430  O1518   1.220   .     S
C1433  O1435   1.221   .     D
C1433  H1434   1.078   .     S
C1436  O1438   1.221   .     D
C1436  H1437   1.084   .     S
N1439  O1440   1.302   .     A
N1439  O1527   1.300   .     S
N1442  O1444   1.301   .     A
N1442  O1443   1.300   .     A
C1445  O1447   1.222   .     D
C1445  H1446   1.081   .     S
C1448  O1450   1.221   .     D
C1448  H1449   1.083   .     S
N1451  O1452   1.300   .     A
N1451  O1453   1.301   .     A
N1454  O1456   1.299   .     A
N1454  O1455   1.301   .     A
C1457  H1458   1.085   .     S
C1457  O1459   1.218   .     D
C1460  O1462   1.220   .     D
C1460  H1461   1.074   .     S
O1463  C1467   1.289   .     A
O1463  Zn1475  1.983   .     S
O1464  C1468   1.287   .     A
O1464  Zn1476  1.983   .     S
O1465  Zn1476  1.982   .     S
O1465  C1467   1.286   .     A
O1466  Zn1475  1.982   .     S
O1466  C1468   1.287   .     A
C1467  C1506   1.409   .     S
C1468  C1505   1.406   .     S
O1469  C1473   1.293   .     A
O1469  Zn1475  1.953   .     S
O1470  Zn1476  1.953   .     S
O1470  C1474   1.310   .     A
O1471  Zn1476  1.912   .     S
O1471  C1473   1.306   .     A
O1472  C1474   1.301   .     A
O1472  Zn1475  1.912   .     S
C1473  C1477   1.461   .     S
C1474  C1478   1.482   .     S
Zn1475 N1511   2.030   .     S
Zn1476 N1512   2.030   .     S
C1477  C1481   1.417   .     A
C1477  C1483   1.398   .     A
C1478  C1482   1.420   .     A
C1478  C1484   1.414   .     A
C1479  H1495   1.079   .     S
C1479  C1487   1.407   .     A
C1479  C1481   1.399   .     A
C1480  C1488   1.408   .     A
C1480  H1496   1.078   .     S
C1480  C1482   1.404   .     A
C1481  N1528   1.437   .     S
C1482  N1525   1.436   .     S
C1483  C1522   1.495   .     S
C1483  C1485   1.406   .     A
C1484  C1519   1.509   .     S
C1484  C1486   1.402   .     A
C1485  C1489   1.408   .     A
C1485  C1487   1.420   .     A
C1486  C1490   1.404   .     A
C1486  C1488   1.413   .     A
C1487  C719    1.418   1_556 S
C1489  C1492   1.410   .     A
C1489  C716    1.392   1_556 S
C1490  C1491   1.408   .     A
C1491  H1497   1.082   .     S
C1491  C1493   1.402   .     A
C1492  C1494   1.405   .     A
C1492  H1498   1.084   .     S
C1493  C1513   1.489   .     S
C1494  C1516   1.483   .     S
C1494  C714    1.421   1_556 S
C1499  C1531   1.483   .     S
C1499  C1506   1.403   .     A
C1499  C985    1.378   1_565 S
C1500  C1534   1.489   .     S
C1500  C1505   1.406   .     A
C1501  C1505   1.392   .     A
C1501  H1503   1.085   .     S
C1502  H1504   1.084   .     S
C1502  C1506   1.393   .     A
C1502  C984    1.381   1_565 S
C1507  N1537   1.430   .     S
C1507  N1512   1.369   .     A
C1507  C1337   1.426   1_655 S
C1508  N1511   1.370   .     A
C1508  N1540   1.430   .     S
C1509  N1511   1.377   .     A
C1509  C1543   1.470   .     S
C1510  C1546   1.475   .     S
C1510  N1512   1.378   .     A
C1510  C1336   1.430   1_655 S
C1513  H1514   1.082   .     S
C1513  O1515   1.222   .     D
C1516  H1517   1.083   .     S
C1516  O1346   1.220   1_655 S
C1519  O1521   1.221   .     D
C1519  H1520   1.078   .     S
C1522  O1524   1.221   .     D
C1522  H1523   1.084   .     S
N1525  O1526   1.302   .     A
N1525  O1355   1.300   1_655 S
N1528  O1530   1.301   .     A
N1528  O1529   1.300   .     A
C1531  O1533   1.222   .     D
C1531  H1532   1.081   .     S
C1534  O1536   1.221   .     D
C1534  H1535   1.083   .     S
N1537  O1538   1.300   .     A
N1537  O1539   1.301   .     A
N1540  O1542   1.299   .     A
N1540  O1541   1.301   .     A
C1543  H1544   1.085   .     S
C1543  O1545   1.218   .     D
C1546  O1548   1.220   .     D
C1546  H1547   1.074   .     S
