data_str_m2_o10_o18_pcu_sym.112
_audit_creation_date              2020-01-03
_audit_creation_method            'Materials Studio'
_symmetry_space_group_name_H-M    'P1'
_symmetry_Int_Tables_number       1
_symmetry_cell_setting            triclinic
loop_
_symmetry_equiv_pos_as_xyz
  x,y,z
_cell_length_a                    22.3296
_cell_length_b                    26.0797
_cell_length_c                    31.4173
_cell_angle_alpha                 94.2277
_cell_angle_beta                  75.1488
_cell_angle_gamma                 103.1609
loop_
_atom_site_label
_atom_site_type_symbol
_atom_site_fract_x
_atom_site_fract_y
_atom_site_fract_z
_atom_site_U_iso_or_equiv
_atom_site_adp_type
_atom_site_occupancy
C1     C     0.18170   0.26671   0.25129   0.00000  Uiso   1.00
C2     C     0.15165   0.06662   0.24868   0.00000  Uiso   1.00
C3     C     0.08484   0.15697   0.04492   0.00000  Uiso   1.00
C4     C     0.22803   0.23285   0.46728   0.00000  Uiso   1.00
C5     C     0.04196   0.14642   0.01836   0.00000  Uiso   1.00
C6     C     0.27002   0.24701   0.49426   0.00000  Uiso   1.00
C7     C     0.19017   0.32268   0.25189   0.00000  Uiso   1.00
C8     C     0.14320   0.01065   0.24803   0.00000  Uiso   1.00
C9     C     0.12802   0.16307   0.33334   0.00000  Uiso   1.00
C10    C     0.20538   0.17144   0.16679   0.00000  Uiso   1.00
C11    C     0.10420   0.16158   0.38157   0.00000  Uiso   1.00
C12    C     0.22902   0.18390   0.11984   0.00000  Uiso   1.00
C13    C     0.01862   0.14132   0.44705   0.00000  Uiso   1.00
C14    C     0.29915   0.24116   0.06231   0.00000  Uiso   1.00
C15    C     0.03930   0.14583   0.40143   0.00000  Uiso   1.00
C16    C     0.28445   0.22206   0.10484   0.00000  Uiso   1.00
C17    C     0.14742   0.17567   0.40807   0.00000  Uiso   1.00
C18    C     0.18913   0.16493   0.09178   0.00000  Uiso   1.00
C19    C     0.12685   0.17672   0.45425   0.00000  Uiso   1.00
C20    C     0.19771   0.18941   0.05155   0.00000  Uiso   1.00
C21    C     0.06230   0.15494   0.47335   0.00000  Uiso   1.00
C22    C     0.25606   0.22540   0.03570   0.00000  Uiso   1.00
C23    C     0.16940   0.19564   0.48178   0.00000  Uiso   1.00
C24    C     0.15068   0.17920   0.02659   0.00000  Uiso   1.00
Cu25   Cu    0.10737   0.16108   0.24517   0.00000  Uiso   1.00
Cu26   Cu    0.22596   0.17225   0.25484   0.00000  Uiso   1.00
H27    H     0.32535   0.13059   0.03293   0.00000  Uiso   1.00
H28    H     0.31384   0.27604   0.48306   0.00000  Uiso   1.00
H29    H     0.15149   0.13105   0.10237   0.00000  Uiso   1.00
H30    H     0.19749   0.18350   0.39229   0.00000  Uiso   1.00
H31    H     0.31554   0.23792   0.12625   0.00000  Uiso   1.00
H32    H     0.00491   0.13493   0.38171   0.00000  Uiso   1.00
H33    H     0.30193   0.12653   0.46173   0.00000  Uiso   1.00
H34    H     0.00970   0.26985   0.05085   0.00000  Uiso   1.00
H35    H     0.23544   0.01314   0.25553   0.00000  Uiso   1.00
H36    H     0.09793   0.32019   0.24439   0.00000  Uiso   1.00
H37    H     0.00179   0.20611   0.28380   0.00000  Uiso   1.00
H38    H     0.33120   0.12673   0.21667   0.00000  Uiso   1.00
N39    N     0.31506   0.18068   0.26212   0.00000  Uiso   1.00
N40    N     0.01827   0.15265   0.23788   0.00000  Uiso   1.00
O41    O     0.12815   0.23809   0.24686   0.00000  Uiso   1.00
O42    O     0.20518   0.09524   0.25314   0.00000  Uiso   1.00
O43    O     0.22829   0.24753   0.25503   0.00000  Uiso   1.00
O44    O     0.10504   0.08580   0.24498   0.00000  Uiso   1.00
O45    O     0.08851   0.15930   0.30855   0.00000  Uiso   1.00
O46    O     0.24482   0.17403   0.19146   0.00000  Uiso   1.00
O47    O     0.18866   0.16874   0.31671   0.00000  Uiso   1.00
O48    O     0.14468   0.16460   0.18329   0.00000  Uiso   1.00
C49    C     0.05637   0.15047   0.09148   0.00000  Uiso   1.00
N50    N     0.03317   0.14505   0.12874   0.00000  Uiso   1.00
C51    C     0.24280   0.26434   0.42839   0.00000  Uiso   1.00
N52    N     0.25480   0.28976   0.39739   0.00000  Uiso   1.00
C53    C     0.51503   0.26671   0.25129   0.00000  Uiso   1.00
C54    C     0.48498   0.06662   0.24868   0.00000  Uiso   1.00
C55    C     0.41817   0.15697   0.04492   0.00000  Uiso   1.00
C56    C     0.56136   0.23285   0.46728   0.00000  Uiso   1.00
C57    C     0.37530   0.14642   0.01836   0.00000  Uiso   1.00
C58    C     0.60336   0.24701   0.49426   0.00000  Uiso   1.00
C59    C     0.52351   0.32268   0.25189   0.00000  Uiso   1.00
C60    C     0.47654   0.01065   0.24803   0.00000  Uiso   1.00
C61    C     0.46136   0.16307   0.33334   0.00000  Uiso   1.00
C62    C     0.53871   0.17144   0.16679   0.00000  Uiso   1.00
C63    C     0.43753   0.16158   0.38157   0.00000  Uiso   1.00
C64    C     0.56236   0.18390   0.11984   0.00000  Uiso   1.00
C65    C     0.35195   0.14132   0.44705   0.00000  Uiso   1.00
C66    C     0.63248   0.24116   0.06231   0.00000  Uiso   1.00
C67    C     0.37263   0.14583   0.40143   0.00000  Uiso   1.00
C68    C     0.61778   0.22206   0.10484   0.00000  Uiso   1.00
C69    C     0.48076   0.17567   0.40807   0.00000  Uiso   1.00
C70    C     0.52247   0.16493   0.09178   0.00000  Uiso   1.00
C71    C     0.46019   0.17672   0.45425   0.00000  Uiso   1.00
C72    C     0.53104   0.18941   0.05155   0.00000  Uiso   1.00
C73    C     0.39563   0.15494   0.47335   0.00000  Uiso   1.00
C74    C     0.58939   0.22540   0.03570   0.00000  Uiso   1.00
C75    C     0.50273   0.19564   0.48178   0.00000  Uiso   1.00
C76    C     0.48401   0.17920   0.02659   0.00000  Uiso   1.00
Cu77   Cu    0.44071   0.16108   0.24517   0.00000  Uiso   1.00
Cu78   Cu    0.55929   0.17225   0.25484   0.00000  Uiso   1.00
H79    H     0.65868   0.13059   0.03293   0.00000  Uiso   1.00
H80    H     0.64718   0.27604   0.48306   0.00000  Uiso   1.00
H81    H     0.48482   0.13105   0.10237   0.00000  Uiso   1.00
H82    H     0.53082   0.18350   0.39229   0.00000  Uiso   1.00
H83    H     0.64887   0.23792   0.12625   0.00000  Uiso   1.00
H84    H     0.33824   0.13493   0.38171   0.00000  Uiso   1.00
H85    H     0.63526   0.12653   0.46173   0.00000  Uiso   1.00
H86    H     0.34303   0.26985   0.05085   0.00000  Uiso   1.00
H87    H     0.56878   0.01314   0.25553   0.00000  Uiso   1.00
H88    H     0.43127   0.32019   0.24439   0.00000  Uiso   1.00
H89    H     0.33513   0.20611   0.28380   0.00000  Uiso   1.00
H90    H     0.66454   0.12673   0.21667   0.00000  Uiso   1.00
N91    N     0.64839   0.18068   0.26212   0.00000  Uiso   1.00
N92    N     0.35161   0.15265   0.23788   0.00000  Uiso   1.00
O93    O     0.46148   0.23809   0.24686   0.00000  Uiso   1.00
O94    O     0.53852   0.09524   0.25314   0.00000  Uiso   1.00
O95    O     0.56163   0.24753   0.25503   0.00000  Uiso   1.00
O96    O     0.43837   0.08580   0.24498   0.00000  Uiso   1.00
O97    O     0.42185   0.15930   0.30855   0.00000  Uiso   1.00
O98    O     0.57815   0.17403   0.19146   0.00000  Uiso   1.00
O99    O     0.52199   0.16874   0.31671   0.00000  Uiso   1.00
O100   O     0.47801   0.16460   0.18329   0.00000  Uiso   1.00
C101   C     0.38970   0.15047   0.09148   0.00000  Uiso   1.00
N102   N     0.36651   0.14505   0.12874   0.00000  Uiso   1.00
C103   C     0.57613   0.26434   0.42839   0.00000  Uiso   1.00
N104   N     0.58813   0.28976   0.39739   0.00000  Uiso   1.00
C105   C     0.84837   0.26671   0.25129   0.00000  Uiso   1.00
C106   C     0.81832   0.06662   0.24868   0.00000  Uiso   1.00
C107   C     0.75150   0.15697   0.04492   0.00000  Uiso   1.00
C108   C     0.89469   0.23285   0.46728   0.00000  Uiso   1.00
C109   C     0.70863   0.14642   0.01836   0.00000  Uiso   1.00
C110   C     0.93669   0.24701   0.49426   0.00000  Uiso   1.00
C111   C     0.85684   0.32268   0.25189   0.00000  Uiso   1.00
C112   C     0.80987   0.01065   0.24803   0.00000  Uiso   1.00
C113   C     0.79469   0.16307   0.33334   0.00000  Uiso   1.00
C114   C     0.87204   0.17144   0.16679   0.00000  Uiso   1.00
C115   C     0.77087   0.16158   0.38157   0.00000  Uiso   1.00
C116   C     0.89569   0.18390   0.11984   0.00000  Uiso   1.00
C117   C     0.68529   0.14132   0.44705   0.00000  Uiso   1.00
C118   C     0.96581   0.24116   0.06231   0.00000  Uiso   1.00
C119   C     0.70597   0.14583   0.40143   0.00000  Uiso   1.00
C120   C     0.95111   0.22206   0.10484   0.00000  Uiso   1.00
C121   C     0.81409   0.17567   0.40807   0.00000  Uiso   1.00
C122   C     0.85580   0.16493   0.09178   0.00000  Uiso   1.00
C123   C     0.79352   0.17672   0.45425   0.00000  Uiso   1.00
C124   C     0.86438   0.18941   0.05155   0.00000  Uiso   1.00
C125   C     0.72896   0.15494   0.47335   0.00000  Uiso   1.00
C126   C     0.92272   0.22540   0.03570   0.00000  Uiso   1.00
C127   C     0.83606   0.19564   0.48178   0.00000  Uiso   1.00
C128   C     0.81735   0.17920   0.02659   0.00000  Uiso   1.00
Cu129  Cu    0.77404   0.16108   0.24517   0.00000  Uiso   1.00
Cu130  Cu    0.89263   0.17225   0.25484   0.00000  Uiso   1.00
H131   H     0.99202   0.13059   0.03293   0.00000  Uiso   1.00
H132   H     0.98051   0.27604   0.48306   0.00000  Uiso   1.00
H133   H     0.81816   0.13105   0.10237   0.00000  Uiso   1.00
H134   H     0.86416   0.18350   0.39229   0.00000  Uiso   1.00
H135   H     0.98220   0.23792   0.12625   0.00000  Uiso   1.00
H136   H     0.67158   0.13493   0.38171   0.00000  Uiso   1.00
H137   H     0.96859   0.12653   0.46173   0.00000  Uiso   1.00
H138   H     0.67637   0.26985   0.05085   0.00000  Uiso   1.00
H139   H     0.90211   0.01314   0.25553   0.00000  Uiso   1.00
H140   H     0.76460   0.32019   0.24439   0.00000  Uiso   1.00
H141   H     0.66846   0.20611   0.28380   0.00000  Uiso   1.00
H142   H     0.99787   0.12673   0.21667   0.00000  Uiso   1.00
N143   N     0.98173   0.18068   0.26212   0.00000  Uiso   1.00
N144   N     0.68494   0.15265   0.23788   0.00000  Uiso   1.00
O145   O     0.79482   0.23809   0.24686   0.00000  Uiso   1.00
O146   O     0.87185   0.09524   0.25314   0.00000  Uiso   1.00
O147   O     0.89496   0.24753   0.25503   0.00000  Uiso   1.00
O148   O     0.77171   0.08580   0.24498   0.00000  Uiso   1.00
O149   O     0.75518   0.15930   0.30855   0.00000  Uiso   1.00
O150   O     0.91149   0.17403   0.19146   0.00000  Uiso   1.00
O151   O     0.85532   0.16874   0.31671   0.00000  Uiso   1.00
O152   O     0.81134   0.16460   0.18329   0.00000  Uiso   1.00
C153   C     0.72303   0.15047   0.09148   0.00000  Uiso   1.00
N154   N     0.69984   0.14505   0.12874   0.00000  Uiso   1.00
C155   C     0.90947   0.26434   0.42839   0.00000  Uiso   1.00
N156   N     0.92147   0.28976   0.39739   0.00000  Uiso   1.00
C157   C     0.18170   0.60005   0.25129   0.00000  Uiso   1.00
C158   C     0.15165   0.39995   0.24868   0.00000  Uiso   1.00
C159   C     0.08484   0.49030   0.04492   0.00000  Uiso   1.00
C160   C     0.22803   0.56618   0.46728   0.00000  Uiso   1.00
C161   C     0.04196   0.47976   0.01836   0.00000  Uiso   1.00
C162   C     0.27002   0.58034   0.49426   0.00000  Uiso   1.00
C163   C     0.19017   0.65601   0.25189   0.00000  Uiso   1.00
C164   C     0.14320   0.34398   0.24803   0.00000  Uiso   1.00
C165   C     0.12802   0.49640   0.33334   0.00000  Uiso   1.00
C166   C     0.20538   0.50477   0.16679   0.00000  Uiso   1.00
C167   C     0.10420   0.49492   0.38157   0.00000  Uiso   1.00
C168   C     0.22902   0.51723   0.11984   0.00000  Uiso   1.00
C169   C     0.01862   0.47465   0.44705   0.00000  Uiso   1.00
C170   C     0.29915   0.57449   0.06231   0.00000  Uiso   1.00
C171   C     0.03930   0.47916   0.40143   0.00000  Uiso   1.00
C172   C     0.28445   0.55539   0.10484   0.00000  Uiso   1.00
C173   C     0.14742   0.50900   0.40807   0.00000  Uiso   1.00
C174   C     0.18913   0.49826   0.09178   0.00000  Uiso   1.00
C175   C     0.12685   0.51006   0.45425   0.00000  Uiso   1.00
C176   C     0.19771   0.52274   0.05155   0.00000  Uiso   1.00
C177   C     0.06230   0.48827   0.47335   0.00000  Uiso   1.00
C178   C     0.25606   0.55874   0.03570   0.00000  Uiso   1.00
C179   C     0.16940   0.52898   0.48178   0.00000  Uiso   1.00
C180   C     0.15068   0.51253   0.02659   0.00000  Uiso   1.00
Cu181  Cu    0.10737   0.49441   0.24517   0.00000  Uiso   1.00
Cu182  Cu    0.22596   0.50559   0.25484   0.00000  Uiso   1.00
H183   H     0.32535   0.46393   0.03293   0.00000  Uiso   1.00
H184   H     0.31384   0.60937   0.48306   0.00000  Uiso   1.00
H185   H     0.15149   0.46438   0.10237   0.00000  Uiso   1.00
H186   H     0.19749   0.51684   0.39229   0.00000  Uiso   1.00
H187   H     0.31554   0.57125   0.12625   0.00000  Uiso   1.00
H188   H     0.00491   0.46826   0.38171   0.00000  Uiso   1.00
H189   H     0.30193   0.45986   0.46173   0.00000  Uiso   1.00
H190   H     0.00970   0.60319   0.05085   0.00000  Uiso   1.00
H191   H     0.23544   0.34647   0.25553   0.00000  Uiso   1.00
H192   H     0.09793   0.65353   0.24439   0.00000  Uiso   1.00
H193   H     0.00179   0.53944   0.28380   0.00000  Uiso   1.00
H194   H     0.33120   0.46006   0.21667   0.00000  Uiso   1.00
N195   N     0.31506   0.51401   0.26212   0.00000  Uiso   1.00
N196   N     0.01827   0.48599   0.23788   0.00000  Uiso   1.00
O197   O     0.12815   0.57142   0.24686   0.00000  Uiso   1.00
O198   O     0.20518   0.42858   0.25314   0.00000  Uiso   1.00
O199   O     0.22829   0.58086   0.25503   0.00000  Uiso   1.00
O200   O     0.10504   0.41914   0.24498   0.00000  Uiso   1.00
O201   O     0.08851   0.49263   0.30855   0.00000  Uiso   1.00
O202   O     0.24482   0.50737   0.19146   0.00000  Uiso   1.00
O203   O     0.18866   0.50207   0.31671   0.00000  Uiso   1.00
O204   O     0.14468   0.49793   0.18329   0.00000  Uiso   1.00
C205   C     0.05637   0.48381   0.09148   0.00000  Uiso   1.00
N206   N     0.03317   0.47838   0.12874   0.00000  Uiso   1.00
C207   C     0.24280   0.59767   0.42839   0.00000  Uiso   1.00
N208   N     0.25480   0.62309   0.39739   0.00000  Uiso   1.00
C209   C     0.51503   0.60005   0.25129   0.00000  Uiso   1.00
C210   C     0.48498   0.39995   0.24868   0.00000  Uiso   1.00
C211   C     0.41817   0.49030   0.04492   0.00000  Uiso   1.00
C212   C     0.56136   0.56618   0.46728   0.00000  Uiso   1.00
C213   C     0.37530   0.47976   0.01836   0.00000  Uiso   1.00
C214   C     0.60336   0.58034   0.49426   0.00000  Uiso   1.00
C215   C     0.52351   0.65601   0.25189   0.00000  Uiso   1.00
C216   C     0.47654   0.34398   0.24803   0.00000  Uiso   1.00
C217   C     0.46136   0.49640   0.33334   0.00000  Uiso   1.00
C218   C     0.53871   0.50477   0.16679   0.00000  Uiso   1.00
C219   C     0.43753   0.49492   0.38157   0.00000  Uiso   1.00
C220   C     0.56236   0.51723   0.11984   0.00000  Uiso   1.00
C221   C     0.35195   0.47465   0.44705   0.00000  Uiso   1.00
C222   C     0.63248   0.57449   0.06231   0.00000  Uiso   1.00
C223   C     0.37263   0.47916   0.40143   0.00000  Uiso   1.00
C224   C     0.61778   0.55539   0.10484   0.00000  Uiso   1.00
C225   C     0.48076   0.50900   0.40807   0.00000  Uiso   1.00
C226   C     0.52247   0.49826   0.09178   0.00000  Uiso   1.00
C227   C     0.46019   0.51006   0.45425   0.00000  Uiso   1.00
C228   C     0.53104   0.52274   0.05155   0.00000  Uiso   1.00
C229   C     0.39563   0.48827   0.47335   0.00000  Uiso   1.00
C230   C     0.58939   0.55874   0.03570   0.00000  Uiso   1.00
C231   C     0.50273   0.52898   0.48178   0.00000  Uiso   1.00
C232   C     0.48401   0.51253   0.02659   0.00000  Uiso   1.00
Cu233  Cu    0.44071   0.49441   0.24517   0.00000  Uiso   1.00
Cu234  Cu    0.55929   0.50559   0.25484   0.00000  Uiso   1.00
H235   H     0.65868   0.46393   0.03293   0.00000  Uiso   1.00
H236   H     0.64718   0.60937   0.48306   0.00000  Uiso   1.00
H237   H     0.48482   0.46438   0.10237   0.00000  Uiso   1.00
H238   H     0.53082   0.51684   0.39229   0.00000  Uiso   1.00
H239   H     0.64887   0.57125   0.12625   0.00000  Uiso   1.00
H240   H     0.33824   0.46826   0.38171   0.00000  Uiso   1.00
H241   H     0.63526   0.45986   0.46173   0.00000  Uiso   1.00
H242   H     0.34303   0.60319   0.05085   0.00000  Uiso   1.00
H243   H     0.56878   0.34647   0.25553   0.00000  Uiso   1.00
H244   H     0.43127   0.65353   0.24439   0.00000  Uiso   1.00
H245   H     0.33513   0.53944   0.28380   0.00000  Uiso   1.00
H246   H     0.66454   0.46006   0.21667   0.00000  Uiso   1.00
N247   N     0.64839   0.51401   0.26212   0.00000  Uiso   1.00
N248   N     0.35161   0.48599   0.23788   0.00000  Uiso   1.00
O249   O     0.46148   0.57142   0.24686   0.00000  Uiso   1.00
O250   O     0.53852   0.42858   0.25314   0.00000  Uiso   1.00
O251   O     0.56163   0.58086   0.25503   0.00000  Uiso   1.00
O252   O     0.43837   0.41914   0.24498   0.00000  Uiso   1.00
O253   O     0.42185   0.49263   0.30855   0.00000  Uiso   1.00
O254   O     0.57815   0.50737   0.19146   0.00000  Uiso   1.00
O255   O     0.52199   0.50207   0.31671   0.00000  Uiso   1.00
O256   O     0.47801   0.49793   0.18329   0.00000  Uiso   1.00
C257   C     0.38970   0.48381   0.09148   0.00000  Uiso   1.00
N258   N     0.36651   0.47838   0.12874   0.00000  Uiso   1.00
C259   C     0.57613   0.59767   0.42839   0.00000  Uiso   1.00
N260   N     0.58813   0.62309   0.39739   0.00000  Uiso   1.00
C261   C     0.84837   0.60005   0.25129   0.00000  Uiso   1.00
C262   C     0.81832   0.39995   0.24868   0.00000  Uiso   1.00
C263   C     0.75150   0.49030   0.04492   0.00000  Uiso   1.00
C264   C     0.89469   0.56618   0.46728   0.00000  Uiso   1.00
C265   C     0.70863   0.47976   0.01836   0.00000  Uiso   1.00
C266   C     0.93669   0.58034   0.49426   0.00000  Uiso   1.00
C267   C     0.85684   0.65601   0.25189   0.00000  Uiso   1.00
C268   C     0.80987   0.34398   0.24803   0.00000  Uiso   1.00
C269   C     0.79469   0.49640   0.33334   0.00000  Uiso   1.00
C270   C     0.87204   0.50477   0.16679   0.00000  Uiso   1.00
C271   C     0.77087   0.49492   0.38157   0.00000  Uiso   1.00
C272   C     0.89569   0.51723   0.11984   0.00000  Uiso   1.00
C273   C     0.68529   0.47465   0.44705   0.00000  Uiso   1.00
C274   C     0.96581   0.57449   0.06231   0.00000  Uiso   1.00
C275   C     0.70597   0.47916   0.40143   0.00000  Uiso   1.00
C276   C     0.95111   0.55539   0.10484   0.00000  Uiso   1.00
C277   C     0.81409   0.50900   0.40807   0.00000  Uiso   1.00
C278   C     0.85580   0.49826   0.09178   0.00000  Uiso   1.00
C279   C     0.79352   0.51006   0.45425   0.00000  Uiso   1.00
C280   C     0.86438   0.52274   0.05155   0.00000  Uiso   1.00
C281   C     0.72896   0.48827   0.47335   0.00000  Uiso   1.00
C282   C     0.92272   0.55874   0.03570   0.00000  Uiso   1.00
C283   C     0.83606   0.52898   0.48178   0.00000  Uiso   1.00
C284   C     0.81735   0.51253   0.02659   0.00000  Uiso   1.00
Cu285  Cu    0.77404   0.49441   0.24517   0.00000  Uiso   1.00
Cu286  Cu    0.89263   0.50559   0.25484   0.00000  Uiso   1.00
H287   H     0.99202   0.46393   0.03293   0.00000  Uiso   1.00
H288   H     0.98051   0.60937   0.48306   0.00000  Uiso   1.00
H289   H     0.81816   0.46438   0.10237   0.00000  Uiso   1.00
H290   H     0.86416   0.51684   0.39229   0.00000  Uiso   1.00
H291   H     0.98220   0.57125   0.12625   0.00000  Uiso   1.00
H292   H     0.67158   0.46826   0.38171   0.00000  Uiso   1.00
H293   H     0.96859   0.45986   0.46173   0.00000  Uiso   1.00
H294   H     0.67637   0.60319   0.05085   0.00000  Uiso   1.00
H295   H     0.90211   0.34647   0.25553   0.00000  Uiso   1.00
H296   H     0.76460   0.65353   0.24439   0.00000  Uiso   1.00
H297   H     0.66846   0.53944   0.28380   0.00000  Uiso   1.00
H298   H     0.99787   0.46006   0.21667   0.00000  Uiso   1.00
N299   N     0.98173   0.51401   0.26212   0.00000  Uiso   1.00
N300   N     0.68494   0.48599   0.23788   0.00000  Uiso   1.00
O301   O     0.79482   0.57142   0.24686   0.00000  Uiso   1.00
O302   O     0.87185   0.42858   0.25314   0.00000  Uiso   1.00
O303   O     0.89496   0.58086   0.25503   0.00000  Uiso   1.00
O304   O     0.77171   0.41914   0.24498   0.00000  Uiso   1.00
O305   O     0.75518   0.49263   0.30855   0.00000  Uiso   1.00
O306   O     0.91149   0.50737   0.19146   0.00000  Uiso   1.00
O307   O     0.85532   0.50207   0.31671   0.00000  Uiso   1.00
O308   O     0.81134   0.49793   0.18329   0.00000  Uiso   1.00
C309   C     0.72303   0.48381   0.09148   0.00000  Uiso   1.00
N310   N     0.69984   0.47838   0.12874   0.00000  Uiso   1.00
C311   C     0.90947   0.59767   0.42839   0.00000  Uiso   1.00
N312   N     0.92147   0.62309   0.39739   0.00000  Uiso   1.00
C313   C     0.18170   0.93338   0.25129   0.00000  Uiso   1.00
C314   C     0.15165   0.73329   0.24868   0.00000  Uiso   1.00
C315   C     0.08484   0.82363   0.04492   0.00000  Uiso   1.00
C316   C     0.22803   0.89952   0.46728   0.00000  Uiso   1.00
C317   C     0.04196   0.81309   0.01836   0.00000  Uiso   1.00
C318   C     0.27002   0.91368   0.49426   0.00000  Uiso   1.00
C319   C     0.19017   0.98935   0.25189   0.00000  Uiso   1.00
C320   C     0.14320   0.67732   0.24803   0.00000  Uiso   1.00
C321   C     0.12802   0.82974   0.33334   0.00000  Uiso   1.00
C322   C     0.20538   0.83810   0.16679   0.00000  Uiso   1.00
C323   C     0.10420   0.82825   0.38157   0.00000  Uiso   1.00
C324   C     0.22902   0.85057   0.11984   0.00000  Uiso   1.00
C325   C     0.01862   0.80798   0.44705   0.00000  Uiso   1.00
C326   C     0.29915   0.90783   0.06231   0.00000  Uiso   1.00
C327   C     0.03930   0.81249   0.40143   0.00000  Uiso   1.00
C328   C     0.28445   0.88872   0.10484   0.00000  Uiso   1.00
C329   C     0.14742   0.84233   0.40807   0.00000  Uiso   1.00
C330   C     0.18913   0.83159   0.09178   0.00000  Uiso   1.00
C331   C     0.12685   0.84339   0.45425   0.00000  Uiso   1.00
C332   C     0.19771   0.85607   0.05155   0.00000  Uiso   1.00
C333   C     0.06230   0.82160   0.47335   0.00000  Uiso   1.00
C334   C     0.25606   0.89207   0.03570   0.00000  Uiso   1.00
C335   C     0.16940   0.86231   0.48178   0.00000  Uiso   1.00
C336   C     0.15068   0.84586   0.02659   0.00000  Uiso   1.00
Cu337  Cu    0.10737   0.82775   0.24517   0.00000  Uiso   1.00
Cu338  Cu    0.22596   0.83892   0.25484   0.00000  Uiso   1.00
H339   H     0.32535   0.79726   0.03293   0.00000  Uiso   1.00
H340   H     0.31384   0.94271   0.48306   0.00000  Uiso   1.00
H341   H     0.15149   0.79771   0.10237   0.00000  Uiso   1.00
H342   H     0.19749   0.85017   0.39229   0.00000  Uiso   1.00
H343   H     0.31554   0.90458   0.12625   0.00000  Uiso   1.00
H344   H     0.00491   0.80159   0.38171   0.00000  Uiso   1.00
H345   H     0.30193   0.79319   0.46173   0.00000  Uiso   1.00
H346   H     0.00970   0.93652   0.05085   0.00000  Uiso   1.00
H347   H     0.23544   0.67980   0.25553   0.00000  Uiso   1.00
H348   H     0.09793   0.98686   0.24439   0.00000  Uiso   1.00
H349   H     0.00179   0.87277   0.28380   0.00000  Uiso   1.00
H350   H     0.33120   0.79340   0.21667   0.00000  Uiso   1.00
N351   N     0.31506   0.84735   0.26212   0.00000  Uiso   1.00
N352   N     0.01827   0.81932   0.23788   0.00000  Uiso   1.00
O353   O     0.12815   0.90476   0.24686   0.00000  Uiso   1.00
O354   O     0.20518   0.76191   0.25314   0.00000  Uiso   1.00
O355   O     0.22829   0.91420   0.25503   0.00000  Uiso   1.00
O356   O     0.10504   0.75247   0.24498   0.00000  Uiso   1.00
O357   O     0.08851   0.82597   0.30855   0.00000  Uiso   1.00
O358   O     0.24482   0.84070   0.19146   0.00000  Uiso   1.00
O359   O     0.18866   0.83540   0.31671   0.00000  Uiso   1.00
O360   O     0.14468   0.83126   0.18329   0.00000  Uiso   1.00
C361   C     0.05637   0.81714   0.09148   0.00000  Uiso   1.00
N362   N     0.03317   0.81171   0.12874   0.00000  Uiso   1.00
C363   C     0.24280   0.93101   0.42839   0.00000  Uiso   1.00
N364   N     0.25480   0.95642   0.39739   0.00000  Uiso   1.00
C365   C     0.51503   0.93338   0.25129   0.00000  Uiso   1.00
C366   C     0.48498   0.73329   0.24868   0.00000  Uiso   1.00
C367   C     0.41817   0.82363   0.04492   0.00000  Uiso   1.00
C368   C     0.56136   0.89952   0.46728   0.00000  Uiso   1.00
C369   C     0.37530   0.81309   0.01836   0.00000  Uiso   1.00
C370   C     0.60336   0.91368   0.49426   0.00000  Uiso   1.00
C371   C     0.52351   0.98935   0.25189   0.00000  Uiso   1.00
C372   C     0.47654   0.67732   0.24803   0.00000  Uiso   1.00
C373   C     0.46136   0.82974   0.33334   0.00000  Uiso   1.00
C374   C     0.53871   0.83810   0.16679   0.00000  Uiso   1.00
C375   C     0.43753   0.82825   0.38157   0.00000  Uiso   1.00
C376   C     0.56236   0.85057   0.11984   0.00000  Uiso   1.00
C377   C     0.35195   0.80798   0.44705   0.00000  Uiso   1.00
C378   C     0.63248   0.90783   0.06231   0.00000  Uiso   1.00
C379   C     0.37263   0.81249   0.40143   0.00000  Uiso   1.00
C380   C     0.61778   0.88872   0.10484   0.00000  Uiso   1.00
C381   C     0.48076   0.84233   0.40807   0.00000  Uiso   1.00
C382   C     0.52247   0.83159   0.09178   0.00000  Uiso   1.00
C383   C     0.46019   0.84339   0.45425   0.00000  Uiso   1.00
C384   C     0.53104   0.85607   0.05155   0.00000  Uiso   1.00
C385   C     0.39563   0.82160   0.47335   0.00000  Uiso   1.00
C386   C     0.58939   0.89207   0.03570   0.00000  Uiso   1.00
C387   C     0.50273   0.86231   0.48178   0.00000  Uiso   1.00
C388   C     0.48401   0.84586   0.02659   0.00000  Uiso   1.00
Cu389  Cu    0.44071   0.82775   0.24517   0.00000  Uiso   1.00
Cu390  Cu    0.55929   0.83892   0.25484   0.00000  Uiso   1.00
H391   H     0.65868   0.79726   0.03293   0.00000  Uiso   1.00
H392   H     0.64718   0.94271   0.48306   0.00000  Uiso   1.00
H393   H     0.48482   0.79771   0.10237   0.00000  Uiso   1.00
H394   H     0.53082   0.85017   0.39229   0.00000  Uiso   1.00
H395   H     0.64887   0.90458   0.12625   0.00000  Uiso   1.00
H396   H     0.33824   0.80159   0.38171   0.00000  Uiso   1.00
H397   H     0.63526   0.79319   0.46173   0.00000  Uiso   1.00
H398   H     0.34303   0.93652   0.05085   0.00000  Uiso   1.00
H399   H     0.56878   0.67980   0.25553   0.00000  Uiso   1.00
H400   H     0.43127   0.98686   0.24439   0.00000  Uiso   1.00
H401   H     0.33513   0.87277   0.28380   0.00000  Uiso   1.00
H402   H     0.66454   0.79340   0.21667   0.00000  Uiso   1.00
N403   N     0.64839   0.84735   0.26212   0.00000  Uiso   1.00
N404   N     0.35161   0.81932   0.23788   0.00000  Uiso   1.00
O405   O     0.46148   0.90476   0.24686   0.00000  Uiso   1.00
O406   O     0.53852   0.76191   0.25314   0.00000  Uiso   1.00
O407   O     0.56163   0.91420   0.25503   0.00000  Uiso   1.00
O408   O     0.43837   0.75247   0.24498   0.00000  Uiso   1.00
O409   O     0.42185   0.82597   0.30855   0.00000  Uiso   1.00
O410   O     0.57815   0.84070   0.19146   0.00000  Uiso   1.00
O411   O     0.52199   0.83540   0.31671   0.00000  Uiso   1.00
O412   O     0.47801   0.83126   0.18329   0.00000  Uiso   1.00
C413   C     0.38970   0.81714   0.09148   0.00000  Uiso   1.00
N414   N     0.36651   0.81171   0.12874   0.00000  Uiso   1.00
C415   C     0.57613   0.93101   0.42839   0.00000  Uiso   1.00
N416   N     0.58813   0.95642   0.39739   0.00000  Uiso   1.00
C417   C     0.84837   0.93338   0.25129   0.00000  Uiso   1.00
C418   C     0.81832   0.73329   0.24868   0.00000  Uiso   1.00
C419   C     0.75150   0.82363   0.04492   0.00000  Uiso   1.00
C420   C     0.89469   0.89952   0.46728   0.00000  Uiso   1.00
C421   C     0.70863   0.81309   0.01836   0.00000  Uiso   1.00
C422   C     0.93669   0.91368   0.49426   0.00000  Uiso   1.00
C423   C     0.85684   0.98935   0.25189   0.00000  Uiso   1.00
C424   C     0.80987   0.67732   0.24803   0.00000  Uiso   1.00
C425   C     0.79469   0.82974   0.33334   0.00000  Uiso   1.00
C426   C     0.87204   0.83810   0.16679   0.00000  Uiso   1.00
C427   C     0.77087   0.82825   0.38157   0.00000  Uiso   1.00
C428   C     0.89569   0.85057   0.11984   0.00000  Uiso   1.00
C429   C     0.68529   0.80798   0.44705   0.00000  Uiso   1.00
C430   C     0.96581   0.90783   0.06231   0.00000  Uiso   1.00
C431   C     0.70597   0.81249   0.40143   0.00000  Uiso   1.00
C432   C     0.95111   0.88872   0.10484   0.00000  Uiso   1.00
C433   C     0.81409   0.84233   0.40807   0.00000  Uiso   1.00
C434   C     0.85580   0.83159   0.09178   0.00000  Uiso   1.00
C435   C     0.79352   0.84339   0.45425   0.00000  Uiso   1.00
C436   C     0.86438   0.85607   0.05155   0.00000  Uiso   1.00
C437   C     0.72896   0.82160   0.47335   0.00000  Uiso   1.00
C438   C     0.92272   0.89207   0.03570   0.00000  Uiso   1.00
C439   C     0.83606   0.86231   0.48178   0.00000  Uiso   1.00
C440   C     0.81735   0.84586   0.02659   0.00000  Uiso   1.00
Cu441  Cu    0.77404   0.82775   0.24517   0.00000  Uiso   1.00
Cu442  Cu    0.89263   0.83892   0.25484   0.00000  Uiso   1.00
H443   H     0.99202   0.79726   0.03293   0.00000  Uiso   1.00
H444   H     0.98051   0.94271   0.48306   0.00000  Uiso   1.00
H445   H     0.81816   0.79771   0.10237   0.00000  Uiso   1.00
H446   H     0.86416   0.85017   0.39229   0.00000  Uiso   1.00
H447   H     0.98220   0.90458   0.12625   0.00000  Uiso   1.00
H448   H     0.67158   0.80159   0.38171   0.00000  Uiso   1.00
H449   H     0.96859   0.79319   0.46173   0.00000  Uiso   1.00
H450   H     0.67637   0.93652   0.05085   0.00000  Uiso   1.00
H451   H     0.90211   0.67980   0.25553   0.00000  Uiso   1.00
H452   H     0.76460   0.98686   0.24439   0.00000  Uiso   1.00
H453   H     0.66846   0.87277   0.28380   0.00000  Uiso   1.00
H454   H     0.99787   0.79340   0.21667   0.00000  Uiso   1.00
N455   N     0.98173   0.84735   0.26212   0.00000  Uiso   1.00
N456   N     0.68494   0.81932   0.23788   0.00000  Uiso   1.00
O457   O     0.79482   0.90476   0.24686   0.00000  Uiso   1.00
O458   O     0.87185   0.76191   0.25314   0.00000  Uiso   1.00
O459   O     0.89496   0.91420   0.25503   0.00000  Uiso   1.00
O460   O     0.77171   0.75247   0.24498   0.00000  Uiso   1.00
O461   O     0.75518   0.82597   0.30855   0.00000  Uiso   1.00
O462   O     0.91149   0.84070   0.19146   0.00000  Uiso   1.00
O463   O     0.85532   0.83540   0.31671   0.00000  Uiso   1.00
O464   O     0.81134   0.83126   0.18329   0.00000  Uiso   1.00
C465   C     0.72303   0.81714   0.09148   0.00000  Uiso   1.00
N466   N     0.69984   0.81171   0.12874   0.00000  Uiso   1.00
C467   C     0.90947   0.93101   0.42839   0.00000  Uiso   1.00
N468   N     0.92147   0.95642   0.39739   0.00000  Uiso   1.00
C469   C     0.18170   0.26671   0.75129   0.00000  Uiso   1.00
C470   C     0.15165   0.06662   0.74868   0.00000  Uiso   1.00
C471   C     0.08484   0.15697   0.54492   0.00000  Uiso   1.00
C472   C     0.22803   0.23285   0.96728   0.00000  Uiso   1.00
C473   C     0.04196   0.14642   0.51836   0.00000  Uiso   1.00
C474   C     0.27002   0.24701   0.99426   0.00000  Uiso   1.00
C475   C     0.19017   0.32268   0.75189   0.00000  Uiso   1.00
C476   C     0.14320   0.01065   0.74803   0.00000  Uiso   1.00
C477   C     0.12802   0.16307   0.83334   0.00000  Uiso   1.00
C478   C     0.20538   0.17144   0.66679   0.00000  Uiso   1.00
C479   C     0.10420   0.16158   0.88157   0.00000  Uiso   1.00
C480   C     0.22902   0.18390   0.61984   0.00000  Uiso   1.00
C481   C     0.01862   0.14132   0.94705   0.00000  Uiso   1.00
C482   C     0.29915   0.24116   0.56231   0.00000  Uiso   1.00
C483   C     0.03930   0.14583   0.90143   0.00000  Uiso   1.00
C484   C     0.28445   0.22206   0.60484   0.00000  Uiso   1.00
C485   C     0.14742   0.17567   0.90807   0.00000  Uiso   1.00
C486   C     0.18913   0.16493   0.59178   0.00000  Uiso   1.00
C487   C     0.12685   0.17672   0.95425   0.00000  Uiso   1.00
C488   C     0.19771   0.18941   0.55155   0.00000  Uiso   1.00
C489   C     0.06230   0.15494   0.97335   0.00000  Uiso   1.00
C490   C     0.25606   0.22540   0.53570   0.00000  Uiso   1.00
C491   C     0.16940   0.19564   0.98178   0.00000  Uiso   1.00
C492   C     0.15068   0.17920   0.52659   0.00000  Uiso   1.00
Cu493  Cu    0.10737   0.16108   0.74517   0.00000  Uiso   1.00
Cu494  Cu    0.22596   0.17225   0.75484   0.00000  Uiso   1.00
H495   H     0.32535   0.13059   0.53293   0.00000  Uiso   1.00
H496   H     0.31384   0.27604   0.98306   0.00000  Uiso   1.00
H497   H     0.15149   0.13105   0.60237   0.00000  Uiso   1.00
H498   H     0.19749   0.18350   0.89229   0.00000  Uiso   1.00
H499   H     0.31554   0.23792   0.62625   0.00000  Uiso   1.00
H500   H     0.00491   0.13493   0.88171   0.00000  Uiso   1.00
H501   H     0.30193   0.12653   0.96173   0.00000  Uiso   1.00
H502   H     0.00970   0.26985   0.55085   0.00000  Uiso   1.00
H503   H     0.23544   0.01314   0.75553   0.00000  Uiso   1.00
H504   H     0.09793   0.32019   0.74439   0.00000  Uiso   1.00
H505   H     0.00179   0.20611   0.78380   0.00000  Uiso   1.00
H506   H     0.33120   0.12673   0.71667   0.00000  Uiso   1.00
N507   N     0.31506   0.18068   0.76212   0.00000  Uiso   1.00
N508   N     0.01827   0.15265   0.73788   0.00000  Uiso   1.00
O509   O     0.12815   0.23809   0.74686   0.00000  Uiso   1.00
O510   O     0.20518   0.09524   0.75314   0.00000  Uiso   1.00
O511   O     0.22829   0.24753   0.75503   0.00000  Uiso   1.00
O512   O     0.10504   0.08580   0.74498   0.00000  Uiso   1.00
O513   O     0.08851   0.15930   0.80855   0.00000  Uiso   1.00
O514   O     0.24482   0.17403   0.69146   0.00000  Uiso   1.00
O515   O     0.18866   0.16874   0.81671   0.00000  Uiso   1.00
O516   O     0.14468   0.16460   0.68329   0.00000  Uiso   1.00
C517   C     0.05637   0.15047   0.59148   0.00000  Uiso   1.00
N518   N     0.03317   0.14505   0.62874   0.00000  Uiso   1.00
C519   C     0.24280   0.26434   0.92839   0.00000  Uiso   1.00
N520   N     0.25480   0.28976   0.89739   0.00000  Uiso   1.00
C521   C     0.51503   0.26671   0.75129   0.00000  Uiso   1.00
C522   C     0.48498   0.06662   0.74868   0.00000  Uiso   1.00
C523   C     0.41817   0.15697   0.54492   0.00000  Uiso   1.00
C524   C     0.56136   0.23285   0.96728   0.00000  Uiso   1.00
C525   C     0.37530   0.14642   0.51836   0.00000  Uiso   1.00
C526   C     0.60336   0.24701   0.99426   0.00000  Uiso   1.00
C527   C     0.52351   0.32268   0.75189   0.00000  Uiso   1.00
C528   C     0.47654   0.01065   0.74803   0.00000  Uiso   1.00
C529   C     0.46136   0.16307   0.83334   0.00000  Uiso   1.00
C530   C     0.53871   0.17144   0.66679   0.00000  Uiso   1.00
C531   C     0.43753   0.16158   0.88157   0.00000  Uiso   1.00
C532   C     0.56236   0.18390   0.61984   0.00000  Uiso   1.00
C533   C     0.35195   0.14132   0.94705   0.00000  Uiso   1.00
C534   C     0.63248   0.24116   0.56231   0.00000  Uiso   1.00
C535   C     0.37263   0.14583   0.90143   0.00000  Uiso   1.00
C536   C     0.61778   0.22206   0.60484   0.00000  Uiso   1.00
C537   C     0.48076   0.17567   0.90807   0.00000  Uiso   1.00
C538   C     0.52247   0.16493   0.59178   0.00000  Uiso   1.00
C539   C     0.46019   0.17672   0.95425   0.00000  Uiso   1.00
C540   C     0.53104   0.18941   0.55155   0.00000  Uiso   1.00
C541   C     0.39563   0.15494   0.97335   0.00000  Uiso   1.00
C542   C     0.58939   0.22540   0.53570   0.00000  Uiso   1.00
C543   C     0.50273   0.19564   0.98178   0.00000  Uiso   1.00
C544   C     0.48401   0.17920   0.52659   0.00000  Uiso   1.00
Cu545  Cu    0.44071   0.16108   0.74517   0.00000  Uiso   1.00
Cu546  Cu    0.55929   0.17225   0.75484   0.00000  Uiso   1.00
H547   H     0.65868   0.13059   0.53293   0.00000  Uiso   1.00
H548   H     0.64718   0.27604   0.98306   0.00000  Uiso   1.00
H549   H     0.48482   0.13105   0.60237   0.00000  Uiso   1.00
H550   H     0.53082   0.18350   0.89229   0.00000  Uiso   1.00
H551   H     0.64887   0.23792   0.62625   0.00000  Uiso   1.00
H552   H     0.33824   0.13493   0.88171   0.00000  Uiso   1.00
H553   H     0.63526   0.12653   0.96173   0.00000  Uiso   1.00
H554   H     0.34303   0.26985   0.55085   0.00000  Uiso   1.00
H555   H     0.56878   0.01314   0.75553   0.00000  Uiso   1.00
H556   H     0.43127   0.32019   0.74439   0.00000  Uiso   1.00
H557   H     0.33513   0.20611   0.78380   0.00000  Uiso   1.00
H558   H     0.66454   0.12673   0.71667   0.00000  Uiso   1.00
N559   N     0.64839   0.18068   0.76212   0.00000  Uiso   1.00
N560   N     0.35161   0.15265   0.73788   0.00000  Uiso   1.00
O561   O     0.46148   0.23809   0.74686   0.00000  Uiso   1.00
O562   O     0.53852   0.09524   0.75314   0.00000  Uiso   1.00
O563   O     0.56163   0.24753   0.75503   0.00000  Uiso   1.00
O564   O     0.43837   0.08580   0.74498   0.00000  Uiso   1.00
O565   O     0.42185   0.15930   0.80855   0.00000  Uiso   1.00
O566   O     0.57815   0.17403   0.69146   0.00000  Uiso   1.00
O567   O     0.52199   0.16874   0.81671   0.00000  Uiso   1.00
O568   O     0.47801   0.16460   0.68329   0.00000  Uiso   1.00
C569   C     0.38970   0.15047   0.59148   0.00000  Uiso   1.00
N570   N     0.36651   0.14505   0.62874   0.00000  Uiso   1.00
C571   C     0.57613   0.26434   0.92839   0.00000  Uiso   1.00
N572   N     0.58813   0.28976   0.89739   0.00000  Uiso   1.00
C573   C     0.84837   0.26671   0.75129   0.00000  Uiso   1.00
C574   C     0.81832   0.06662   0.74868   0.00000  Uiso   1.00
C575   C     0.75150   0.15697   0.54492   0.00000  Uiso   1.00
C576   C     0.89469   0.23285   0.96728   0.00000  Uiso   1.00
C577   C     0.70863   0.14642   0.51836   0.00000  Uiso   1.00
C578   C     0.93669   0.24701   0.99426   0.00000  Uiso   1.00
C579   C     0.85684   0.32268   0.75189   0.00000  Uiso   1.00
C580   C     0.80987   0.01065   0.74803   0.00000  Uiso   1.00
C581   C     0.79469   0.16307   0.83334   0.00000  Uiso   1.00
C582   C     0.87204   0.17144   0.66679   0.00000  Uiso   1.00
C583   C     0.77087   0.16158   0.88157   0.00000  Uiso   1.00
C584   C     0.89569   0.18390   0.61984   0.00000  Uiso   1.00
C585   C     0.68529   0.14132   0.94705   0.00000  Uiso   1.00
C586   C     0.96581   0.24116   0.56231   0.00000  Uiso   1.00
C587   C     0.70597   0.14583   0.90143   0.00000  Uiso   1.00
C588   C     0.95111   0.22206   0.60484   0.00000  Uiso   1.00
C589   C     0.81409   0.17567   0.90807   0.00000  Uiso   1.00
C590   C     0.85580   0.16493   0.59178   0.00000  Uiso   1.00
C591   C     0.79352   0.17672   0.95425   0.00000  Uiso   1.00
C592   C     0.86438   0.18941   0.55155   0.00000  Uiso   1.00
C593   C     0.72896   0.15494   0.97335   0.00000  Uiso   1.00
C594   C     0.92272   0.22540   0.53570   0.00000  Uiso   1.00
C595   C     0.83606   0.19564   0.98178   0.00000  Uiso   1.00
C596   C     0.81735   0.17920   0.52659   0.00000  Uiso   1.00
Cu597  Cu    0.77404   0.16108   0.74517   0.00000  Uiso   1.00
Cu598  Cu    0.89263   0.17225   0.75484   0.00000  Uiso   1.00
H599   H     0.99202   0.13059   0.53293   0.00000  Uiso   1.00
H600   H     0.98051   0.27604   0.98306   0.00000  Uiso   1.00
H601   H     0.81816   0.13105   0.60237   0.00000  Uiso   1.00
H602   H     0.86416   0.18350   0.89229   0.00000  Uiso   1.00
H603   H     0.98220   0.23792   0.62625   0.00000  Uiso   1.00
H604   H     0.67158   0.13493   0.88171   0.00000  Uiso   1.00
H605   H     0.96859   0.12653   0.96173   0.00000  Uiso   1.00
H606   H     0.67637   0.26985   0.55085   0.00000  Uiso   1.00
H607   H     0.90211   0.01314   0.75553   0.00000  Uiso   1.00
H608   H     0.76460   0.32019   0.74439   0.00000  Uiso   1.00
H609   H     0.66846   0.20611   0.78380   0.00000  Uiso   1.00
H610   H     0.99787   0.12673   0.71667   0.00000  Uiso   1.00
N611   N     0.98173   0.18068   0.76212   0.00000  Uiso   1.00
N612   N     0.68494   0.15265   0.73788   0.00000  Uiso   1.00
O613   O     0.79482   0.23809   0.74686   0.00000  Uiso   1.00
O614   O     0.87185   0.09524   0.75314   0.00000  Uiso   1.00
O615   O     0.89496   0.24753   0.75503   0.00000  Uiso   1.00
O616   O     0.77171   0.08580   0.74498   0.00000  Uiso   1.00
O617   O     0.75518   0.15930   0.80855   0.00000  Uiso   1.00
O618   O     0.91149   0.17403   0.69146   0.00000  Uiso   1.00
O619   O     0.85532   0.16874   0.81671   0.00000  Uiso   1.00
O620   O     0.81134   0.16460   0.68329   0.00000  Uiso   1.00
C621   C     0.72303   0.15047   0.59148   0.00000  Uiso   1.00
N622   N     0.69984   0.14505   0.62874   0.00000  Uiso   1.00
C623   C     0.90947   0.26434   0.92839   0.00000  Uiso   1.00
N624   N     0.92147   0.28976   0.89739   0.00000  Uiso   1.00
C625   C     0.18170   0.60005   0.75129   0.00000  Uiso   1.00
C626   C     0.15165   0.39995   0.74868   0.00000  Uiso   1.00
C627   C     0.08484   0.49030   0.54492   0.00000  Uiso   1.00
C628   C     0.22803   0.56618   0.96728   0.00000  Uiso   1.00
C629   C     0.04196   0.47976   0.51836   0.00000  Uiso   1.00
C630   C     0.27002   0.58034   0.99426   0.00000  Uiso   1.00
C631   C     0.19017   0.65601   0.75189   0.00000  Uiso   1.00
C632   C     0.14320   0.34398   0.74803   0.00000  Uiso   1.00
C633   C     0.12802   0.49640   0.83334   0.00000  Uiso   1.00
C634   C     0.20538   0.50477   0.66679   0.00000  Uiso   1.00
C635   C     0.10420   0.49492   0.88157   0.00000  Uiso   1.00
C636   C     0.22902   0.51723   0.61984   0.00000  Uiso   1.00
C637   C     0.01862   0.47465   0.94705   0.00000  Uiso   1.00
C638   C     0.29915   0.57449   0.56231   0.00000  Uiso   1.00
C639   C     0.03930   0.47916   0.90143   0.00000  Uiso   1.00
C640   C     0.28445   0.55539   0.60484   0.00000  Uiso   1.00
C641   C     0.14742   0.50900   0.90807   0.00000  Uiso   1.00
C642   C     0.18913   0.49826   0.59178   0.00000  Uiso   1.00
C643   C     0.12685   0.51006   0.95425   0.00000  Uiso   1.00
C644   C     0.19771   0.52274   0.55155   0.00000  Uiso   1.00
C645   C     0.06230   0.48827   0.97335   0.00000  Uiso   1.00
C646   C     0.25606   0.55874   0.53570   0.00000  Uiso   1.00
C647   C     0.16940   0.52898   0.98178   0.00000  Uiso   1.00
C648   C     0.15068   0.51253   0.52659   0.00000  Uiso   1.00
Cu649  Cu    0.10737   0.49441   0.74517   0.00000  Uiso   1.00
Cu650  Cu    0.22596   0.50559   0.75484   0.00000  Uiso   1.00
H651   H     0.32535   0.46393   0.53293   0.00000  Uiso   1.00
H652   H     0.31384   0.60937   0.98306   0.00000  Uiso   1.00
H653   H     0.15149   0.46438   0.60237   0.00000  Uiso   1.00
H654   H     0.19749   0.51684   0.89229   0.00000  Uiso   1.00
H655   H     0.31554   0.57125   0.62625   0.00000  Uiso   1.00
H656   H     0.00491   0.46826   0.88171   0.00000  Uiso   1.00
H657   H     0.30193   0.45986   0.96173   0.00000  Uiso   1.00
H658   H     0.00970   0.60319   0.55085   0.00000  Uiso   1.00
H659   H     0.23544   0.34647   0.75553   0.00000  Uiso   1.00
H660   H     0.09793   0.65353   0.74439   0.00000  Uiso   1.00
H661   H     0.00179   0.53944   0.78380   0.00000  Uiso   1.00
H662   H     0.33120   0.46006   0.71667   0.00000  Uiso   1.00
N663   N     0.31506   0.51401   0.76212   0.00000  Uiso   1.00
N664   N     0.01827   0.48599   0.73788   0.00000  Uiso   1.00
O665   O     0.12815   0.57142   0.74686   0.00000  Uiso   1.00
O666   O     0.20518   0.42858   0.75314   0.00000  Uiso   1.00
O667   O     0.22829   0.58086   0.75503   0.00000  Uiso   1.00
O668   O     0.10504   0.41914   0.74498   0.00000  Uiso   1.00
O669   O     0.08851   0.49263   0.80855   0.00000  Uiso   1.00
O670   O     0.24482   0.50737   0.69146   0.00000  Uiso   1.00
O671   O     0.18866   0.50207   0.81671   0.00000  Uiso   1.00
O672   O     0.14468   0.49793   0.68329   0.00000  Uiso   1.00
C673   C     0.05637   0.48381   0.59148   0.00000  Uiso   1.00
N674   N     0.03317   0.47838   0.62874   0.00000  Uiso   1.00
C675   C     0.24280   0.59767   0.92839   0.00000  Uiso   1.00
N676   N     0.25480   0.62309   0.89739   0.00000  Uiso   1.00
C677   C     0.51503   0.60005   0.75129   0.00000  Uiso   1.00
C678   C     0.48498   0.39995   0.74868   0.00000  Uiso   1.00
C679   C     0.41817   0.49030   0.54492   0.00000  Uiso   1.00
C680   C     0.56136   0.56618   0.96728   0.00000  Uiso   1.00
C681   C     0.37530   0.47976   0.51836   0.00000  Uiso   1.00
C682   C     0.60336   0.58034   0.99426   0.00000  Uiso   1.00
C683   C     0.52351   0.65601   0.75189   0.00000  Uiso   1.00
C684   C     0.47654   0.34398   0.74803   0.00000  Uiso   1.00
C685   C     0.46136   0.49640   0.83334   0.00000  Uiso   1.00
C686   C     0.53871   0.50477   0.66679   0.00000  Uiso   1.00
C687   C     0.43753   0.49492   0.88157   0.00000  Uiso   1.00
C688   C     0.56236   0.51723   0.61984   0.00000  Uiso   1.00
C689   C     0.35195   0.47465   0.94705   0.00000  Uiso   1.00
C690   C     0.63248   0.57449   0.56231   0.00000  Uiso   1.00
C691   C     0.37263   0.47916   0.90143   0.00000  Uiso   1.00
C692   C     0.61778   0.55539   0.60484   0.00000  Uiso   1.00
C693   C     0.48076   0.50900   0.90807   0.00000  Uiso   1.00
C694   C     0.52247   0.49826   0.59178   0.00000  Uiso   1.00
C695   C     0.46019   0.51006   0.95425   0.00000  Uiso   1.00
C696   C     0.53104   0.52274   0.55155   0.00000  Uiso   1.00
C697   C     0.39563   0.48827   0.97335   0.00000  Uiso   1.00
C698   C     0.58939   0.55874   0.53570   0.00000  Uiso   1.00
C699   C     0.50273   0.52898   0.98178   0.00000  Uiso   1.00
C700   C     0.48401   0.51253   0.52659   0.00000  Uiso   1.00
Cu701  Cu    0.44071   0.49441   0.74517   0.00000  Uiso   1.00
Cu702  Cu    0.55929   0.50559   0.75484   0.00000  Uiso   1.00
H703   H     0.65868   0.46393   0.53293   0.00000  Uiso   1.00
H704   H     0.64718   0.60937   0.98306   0.00000  Uiso   1.00
H705   H     0.48482   0.46438   0.60237   0.00000  Uiso   1.00
H706   H     0.53082   0.51684   0.89229   0.00000  Uiso   1.00
H707   H     0.64887   0.57125   0.62625   0.00000  Uiso   1.00
H708   H     0.33824   0.46826   0.88171   0.00000  Uiso   1.00
H709   H     0.63526   0.45986   0.96173   0.00000  Uiso   1.00
H710   H     0.34303   0.60319   0.55085   0.00000  Uiso   1.00
H711   H     0.56878   0.34647   0.75553   0.00000  Uiso   1.00
H712   H     0.43127   0.65353   0.74439   0.00000  Uiso   1.00
H713   H     0.33513   0.53944   0.78380   0.00000  Uiso   1.00
H714   H     0.66454   0.46006   0.71667   0.00000  Uiso   1.00
N715   N     0.64839   0.51401   0.76212   0.00000  Uiso   1.00
N716   N     0.35161   0.48599   0.73788   0.00000  Uiso   1.00
O717   O     0.46148   0.57142   0.74686   0.00000  Uiso   1.00
O718   O     0.53852   0.42858   0.75314   0.00000  Uiso   1.00
O719   O     0.56163   0.58086   0.75503   0.00000  Uiso   1.00
O720   O     0.43837   0.41914   0.74498   0.00000  Uiso   1.00
O721   O     0.42185   0.49263   0.80855   0.00000  Uiso   1.00
O722   O     0.57815   0.50737   0.69146   0.00000  Uiso   1.00
O723   O     0.52199   0.50207   0.81671   0.00000  Uiso   1.00
O724   O     0.47801   0.49793   0.68329   0.00000  Uiso   1.00
C725   C     0.38970   0.48381   0.59148   0.00000  Uiso   1.00
N726   N     0.36651   0.47838   0.62874   0.00000  Uiso   1.00
C727   C     0.57613   0.59767   0.92839   0.00000  Uiso   1.00
N728   N     0.58813   0.62309   0.89739   0.00000  Uiso   1.00
C729   C     0.84837   0.60005   0.75129   0.00000  Uiso   1.00
C730   C     0.81832   0.39995   0.74868   0.00000  Uiso   1.00
C731   C     0.75150   0.49030   0.54492   0.00000  Uiso   1.00
C732   C     0.89469   0.56618   0.96728   0.00000  Uiso   1.00
C733   C     0.70863   0.47976   0.51836   0.00000  Uiso   1.00
C734   C     0.93669   0.58034   0.99426   0.00000  Uiso   1.00
C735   C     0.85684   0.65601   0.75189   0.00000  Uiso   1.00
C736   C     0.80987   0.34398   0.74803   0.00000  Uiso   1.00
C737   C     0.79469   0.49640   0.83334   0.00000  Uiso   1.00
C738   C     0.87204   0.50477   0.66679   0.00000  Uiso   1.00
C739   C     0.77087   0.49492   0.88157   0.00000  Uiso   1.00
C740   C     0.89569   0.51723   0.61984   0.00000  Uiso   1.00
C741   C     0.68529   0.47465   0.94705   0.00000  Uiso   1.00
C742   C     0.96581   0.57449   0.56231   0.00000  Uiso   1.00
C743   C     0.70597   0.47916   0.90143   0.00000  Uiso   1.00
C744   C     0.95111   0.55539   0.60484   0.00000  Uiso   1.00
C745   C     0.81409   0.50900   0.90807   0.00000  Uiso   1.00
C746   C     0.85580   0.49826   0.59178   0.00000  Uiso   1.00
C747   C     0.79352   0.51006   0.95425   0.00000  Uiso   1.00
C748   C     0.86438   0.52274   0.55155   0.00000  Uiso   1.00
C749   C     0.72896   0.48827   0.97335   0.00000  Uiso   1.00
C750   C     0.92272   0.55874   0.53570   0.00000  Uiso   1.00
C751   C     0.83606   0.52898   0.98178   0.00000  Uiso   1.00
C752   C     0.81735   0.51253   0.52659   0.00000  Uiso   1.00
Cu753  Cu    0.77404   0.49441   0.74517   0.00000  Uiso   1.00
Cu754  Cu    0.89263   0.50559   0.75484   0.00000  Uiso   1.00
H755   H     0.99202   0.46393   0.53293   0.00000  Uiso   1.00
H756   H     0.98051   0.60937   0.98306   0.00000  Uiso   1.00
H757   H     0.81816   0.46438   0.60237   0.00000  Uiso   1.00
H758   H     0.86416   0.51684   0.89229   0.00000  Uiso   1.00
H759   H     0.98220   0.57125   0.62625   0.00000  Uiso   1.00
H760   H     0.67158   0.46826   0.88171   0.00000  Uiso   1.00
H761   H     0.96859   0.45986   0.96173   0.00000  Uiso   1.00
H762   H     0.67637   0.60319   0.55085   0.00000  Uiso   1.00
H763   H     0.90211   0.34647   0.75553   0.00000  Uiso   1.00
H764   H     0.76460   0.65353   0.74439   0.00000  Uiso   1.00
H765   H     0.66846   0.53944   0.78380   0.00000  Uiso   1.00
H766   H     0.99787   0.46006   0.71667   0.00000  Uiso   1.00
N767   N     0.98173   0.51401   0.76212   0.00000  Uiso   1.00
N768   N     0.68494   0.48599   0.73788   0.00000  Uiso   1.00
O769   O     0.79482   0.57142   0.74686   0.00000  Uiso   1.00
O770   O     0.87185   0.42858   0.75314   0.00000  Uiso   1.00
O771   O     0.89496   0.58086   0.75503   0.00000  Uiso   1.00
O772   O     0.77171   0.41914   0.74498   0.00000  Uiso   1.00
O773   O     0.75518   0.49263   0.80855   0.00000  Uiso   1.00
O774   O     0.91149   0.50737   0.69146   0.00000  Uiso   1.00
O775   O     0.85532   0.50207   0.81671   0.00000  Uiso   1.00
O776   O     0.81134   0.49793   0.68329   0.00000  Uiso   1.00
C777   C     0.72303   0.48381   0.59148   0.00000  Uiso   1.00
N778   N     0.69984   0.47838   0.62874   0.00000  Uiso   1.00
C779   C     0.90947   0.59767   0.92839   0.00000  Uiso   1.00
N780   N     0.92147   0.62309   0.89739   0.00000  Uiso   1.00
C781   C     0.18170   0.93338   0.75129   0.00000  Uiso   1.00
C782   C     0.15165   0.73329   0.74868   0.00000  Uiso   1.00
C783   C     0.08484   0.82363   0.54492   0.00000  Uiso   1.00
C784   C     0.22803   0.89952   0.96728   0.00000  Uiso   1.00
C785   C     0.04196   0.81309   0.51836   0.00000  Uiso   1.00
C786   C     0.27002   0.91368   0.99426   0.00000  Uiso   1.00
C787   C     0.19017   0.98935   0.75189   0.00000  Uiso   1.00
C788   C     0.14320   0.67732   0.74803   0.00000  Uiso   1.00
C789   C     0.12802   0.82974   0.83334   0.00000  Uiso   1.00
C790   C     0.20538   0.83810   0.66679   0.00000  Uiso   1.00
C791   C     0.10420   0.82825   0.88157   0.00000  Uiso   1.00
C792   C     0.22902   0.85057   0.61984   0.00000  Uiso   1.00
C793   C     0.01862   0.80798   0.94705   0.00000  Uiso   1.00
C794   C     0.29915   0.90783   0.56231   0.00000  Uiso   1.00
C795   C     0.03930   0.81249   0.90143   0.00000  Uiso   1.00
C796   C     0.28445   0.88872   0.60484   0.00000  Uiso   1.00
C797   C     0.14742   0.84233   0.90807   0.00000  Uiso   1.00
C798   C     0.18913   0.83159   0.59178   0.00000  Uiso   1.00
C799   C     0.12685   0.84339   0.95425   0.00000  Uiso   1.00
C800   C     0.19771   0.85607   0.55155   0.00000  Uiso   1.00
C801   C     0.06230   0.82160   0.97335   0.00000  Uiso   1.00
C802   C     0.25606   0.89207   0.53570   0.00000  Uiso   1.00
C803   C     0.16940   0.86231   0.98178   0.00000  Uiso   1.00
C804   C     0.15068   0.84586   0.52659   0.00000  Uiso   1.00
Cu805  Cu    0.10737   0.82775   0.74517   0.00000  Uiso   1.00
Cu806  Cu    0.22596   0.83892   0.75484   0.00000  Uiso   1.00
H807   H     0.32535   0.79726   0.53293   0.00000  Uiso   1.00
H808   H     0.31384   0.94271   0.98306   0.00000  Uiso   1.00
H809   H     0.15149   0.79771   0.60237   0.00000  Uiso   1.00
H810   H     0.19749   0.85017   0.89229   0.00000  Uiso   1.00
H811   H     0.31554   0.90458   0.62625   0.00000  Uiso   1.00
H812   H     0.00491   0.80159   0.88171   0.00000  Uiso   1.00
H813   H     0.30193   0.79319   0.96173   0.00000  Uiso   1.00
H814   H     0.00970   0.93652   0.55085   0.00000  Uiso   1.00
H815   H     0.23544   0.67980   0.75553   0.00000  Uiso   1.00
H816   H     0.09793   0.98686   0.74439   0.00000  Uiso   1.00
H817   H     0.00179   0.87277   0.78380   0.00000  Uiso   1.00
H818   H     0.33120   0.79340   0.71667   0.00000  Uiso   1.00
N819   N     0.31506   0.84735   0.76212   0.00000  Uiso   1.00
N820   N     0.01827   0.81932   0.73788   0.00000  Uiso   1.00
O821   O     0.12815   0.90476   0.74686   0.00000  Uiso   1.00
O822   O     0.20518   0.76191   0.75314   0.00000  Uiso   1.00
O823   O     0.22829   0.91420   0.75503   0.00000  Uiso   1.00
O824   O     0.10504   0.75247   0.74498   0.00000  Uiso   1.00
O825   O     0.08851   0.82597   0.80855   0.00000  Uiso   1.00
O826   O     0.24482   0.84070   0.69146   0.00000  Uiso   1.00
O827   O     0.18866   0.83540   0.81671   0.00000  Uiso   1.00
O828   O     0.14468   0.83126   0.68329   0.00000  Uiso   1.00
C829   C     0.05637   0.81714   0.59148   0.00000  Uiso   1.00
N830   N     0.03317   0.81171   0.62874   0.00000  Uiso   1.00
C831   C     0.24280   0.93101   0.92839   0.00000  Uiso   1.00
N832   N     0.25480   0.95642   0.89739   0.00000  Uiso   1.00
C833   C     0.51503   0.93338   0.75129   0.00000  Uiso   1.00
C834   C     0.48498   0.73329   0.74868   0.00000  Uiso   1.00
C835   C     0.41817   0.82363   0.54492   0.00000  Uiso   1.00
C836   C     0.56136   0.89952   0.96728   0.00000  Uiso   1.00
C837   C     0.37530   0.81309   0.51836   0.00000  Uiso   1.00
C838   C     0.60336   0.91368   0.99426   0.00000  Uiso   1.00
C839   C     0.52351   0.98935   0.75189   0.00000  Uiso   1.00
C840   C     0.47654   0.67732   0.74803   0.00000  Uiso   1.00
C841   C     0.46136   0.82974   0.83334   0.00000  Uiso   1.00
C842   C     0.53871   0.83810   0.66679   0.00000  Uiso   1.00
C843   C     0.43753   0.82825   0.88157   0.00000  Uiso   1.00
C844   C     0.56236   0.85057   0.61984   0.00000  Uiso   1.00
C845   C     0.35195   0.80798   0.94705   0.00000  Uiso   1.00
C846   C     0.63248   0.90783   0.56231   0.00000  Uiso   1.00
C847   C     0.37263   0.81249   0.90143   0.00000  Uiso   1.00
C848   C     0.61778   0.88872   0.60484   0.00000  Uiso   1.00
C849   C     0.48076   0.84233   0.90807   0.00000  Uiso   1.00
C850   C     0.52247   0.83159   0.59178   0.00000  Uiso   1.00
C851   C     0.46019   0.84339   0.95425   0.00000  Uiso   1.00
C852   C     0.53104   0.85607   0.55155   0.00000  Uiso   1.00
C853   C     0.39563   0.82160   0.97335   0.00000  Uiso   1.00
C854   C     0.58939   0.89207   0.53570   0.00000  Uiso   1.00
C855   C     0.50273   0.86231   0.98178   0.00000  Uiso   1.00
C856   C     0.48401   0.84586   0.52659   0.00000  Uiso   1.00
Cu857  Cu    0.44071   0.82775   0.74517   0.00000  Uiso   1.00
Cu858  Cu    0.55929   0.83892   0.75484   0.00000  Uiso   1.00
H859   H     0.65868   0.79726   0.53293   0.00000  Uiso   1.00
H860   H     0.64718   0.94271   0.98306   0.00000  Uiso   1.00
H861   H     0.48482   0.79771   0.60237   0.00000  Uiso   1.00
H862   H     0.53082   0.85017   0.89229   0.00000  Uiso   1.00
H863   H     0.64887   0.90458   0.62625   0.00000  Uiso   1.00
H864   H     0.33824   0.80159   0.88171   0.00000  Uiso   1.00
H865   H     0.63526   0.79319   0.96173   0.00000  Uiso   1.00
H866   H     0.34303   0.93652   0.55085   0.00000  Uiso   1.00
H867   H     0.56878   0.67980   0.75553   0.00000  Uiso   1.00
H868   H     0.43127   0.98686   0.74439   0.00000  Uiso   1.00
H869   H     0.33513   0.87277   0.78380   0.00000  Uiso   1.00
H870   H     0.66454   0.79340   0.71667   0.00000  Uiso   1.00
N871   N     0.64839   0.84735   0.76212   0.00000  Uiso   1.00
N872   N     0.35161   0.81932   0.73788   0.00000  Uiso   1.00
O873   O     0.46148   0.90476   0.74686   0.00000  Uiso   1.00
O874   O     0.53852   0.76191   0.75314   0.00000  Uiso   1.00
O875   O     0.56163   0.91420   0.75503   0.00000  Uiso   1.00
O876   O     0.43837   0.75247   0.74498   0.00000  Uiso   1.00
O877   O     0.42185   0.82597   0.80855   0.00000  Uiso   1.00
O878   O     0.57815   0.84070   0.69146   0.00000  Uiso   1.00
O879   O     0.52199   0.83540   0.81671   0.00000  Uiso   1.00
O880   O     0.47801   0.83126   0.68329   0.00000  Uiso   1.00
C881   C     0.38970   0.81714   0.59148   0.00000  Uiso   1.00
N882   N     0.36651   0.81171   0.62874   0.00000  Uiso   1.00
C883   C     0.57613   0.93101   0.92839   0.00000  Uiso   1.00
N884   N     0.58813   0.95642   0.89739   0.00000  Uiso   1.00
C885   C     0.84837   0.93338   0.75129   0.00000  Uiso   1.00
C886   C     0.81832   0.73329   0.74868   0.00000  Uiso   1.00
C887   C     0.75150   0.82363   0.54492   0.00000  Uiso   1.00
C888   C     0.89469   0.89952   0.96728   0.00000  Uiso   1.00
C889   C     0.70863   0.81309   0.51836   0.00000  Uiso   1.00
C890   C     0.93669   0.91368   0.99426   0.00000  Uiso   1.00
C891   C     0.85684   0.98935   0.75189   0.00000  Uiso   1.00
C892   C     0.80987   0.67732   0.74803   0.00000  Uiso   1.00
C893   C     0.79469   0.82974   0.83334   0.00000  Uiso   1.00
C894   C     0.87204   0.83810   0.66679   0.00000  Uiso   1.00
C895   C     0.77087   0.82825   0.88157   0.00000  Uiso   1.00
C896   C     0.89569   0.85057   0.61984   0.00000  Uiso   1.00
C897   C     0.68529   0.80798   0.94705   0.00000  Uiso   1.00
C898   C     0.96581   0.90783   0.56231   0.00000  Uiso   1.00
C899   C     0.70597   0.81249   0.90143   0.00000  Uiso   1.00
C900   C     0.95111   0.88872   0.60484   0.00000  Uiso   1.00
C901   C     0.81409   0.84233   0.90807   0.00000  Uiso   1.00
C902   C     0.85580   0.83159   0.59178   0.00000  Uiso   1.00
C903   C     0.79352   0.84339   0.95425   0.00000  Uiso   1.00
C904   C     0.86438   0.85607   0.55155   0.00000  Uiso   1.00
C905   C     0.72896   0.82160   0.97335   0.00000  Uiso   1.00
C906   C     0.92272   0.89207   0.53570   0.00000  Uiso   1.00
C907   C     0.83606   0.86231   0.98178   0.00000  Uiso   1.00
C908   C     0.81735   0.84586   0.52659   0.00000  Uiso   1.00
Cu909  Cu    0.77404   0.82775   0.74517   0.00000  Uiso   1.00
Cu910  Cu    0.89263   0.83892   0.75484   0.00000  Uiso   1.00
H911   H     0.99202   0.79726   0.53293   0.00000  Uiso   1.00
H912   H     0.98051   0.94271   0.98306   0.00000  Uiso   1.00
H913   H     0.81816   0.79771   0.60237   0.00000  Uiso   1.00
H914   H     0.86416   0.85017   0.89229   0.00000  Uiso   1.00
H915   H     0.98220   0.90458   0.62625   0.00000  Uiso   1.00
H916   H     0.67158   0.80159   0.88171   0.00000  Uiso   1.00
H917   H     0.96859   0.79319   0.96173   0.00000  Uiso   1.00
H918   H     0.67637   0.93652   0.55085   0.00000  Uiso   1.00
H919   H     0.90211   0.67980   0.75553   0.00000  Uiso   1.00
H920   H     0.76460   0.98686   0.74439   0.00000  Uiso   1.00
H921   H     0.66846   0.87277   0.78380   0.00000  Uiso   1.00
H922   H     0.99787   0.79340   0.71667   0.00000  Uiso   1.00
N923   N     0.98173   0.84735   0.76212   0.00000  Uiso   1.00
N924   N     0.68494   0.81932   0.73788   0.00000  Uiso   1.00
O925   O     0.79482   0.90476   0.74686   0.00000  Uiso   1.00
O926   O     0.87185   0.76191   0.75314   0.00000  Uiso   1.00
O927   O     0.89496   0.91420   0.75503   0.00000  Uiso   1.00
O928   O     0.77171   0.75247   0.74498   0.00000  Uiso   1.00
O929   O     0.75518   0.82597   0.80855   0.00000  Uiso   1.00
O930   O     0.91149   0.84070   0.69146   0.00000  Uiso   1.00
O931   O     0.85532   0.83540   0.81671   0.00000  Uiso   1.00
O932   O     0.81134   0.83126   0.68329   0.00000  Uiso   1.00
C933   C     0.72303   0.81714   0.59148   0.00000  Uiso   1.00
N934   N     0.69984   0.81171   0.62874   0.00000  Uiso   1.00
C935   C     0.90947   0.93101   0.92839   0.00000  Uiso   1.00
N936   N     0.92147   0.95642   0.89739   0.00000  Uiso   1.00
loop_
_geom_bond_atom_site_label_1
_geom_bond_atom_site_label_2
_geom_bond_distance
_geom_bond_site_symmetry_2
_ccdc_geom_bond_type
C1     C7      1.428   .     S
C1     O41     1.292   .     A
C1     O43     1.286   .     A
C2     O42     1.292   .     A
C2     C8      1.428   .     S
C2     O44     1.286   .     A
C3     C49     1.444   .     S
C3     C24     1.434   .     A
C3     C5      1.394   .     A
C4     C51     1.447   .     S
C4     C6      1.392   .     A
C4     C23     1.430   .     A
C5     C489    1.388   1_554 S
C5     H131    1.086   1_455 S
C6     H28     1.086   .     S
C6     C490    1.389   .     S
C7     C164    1.328   .     S
C7     H191    1.088   .     S
C8     C319    1.328   1_545 S
C8     H348    1.088   1_545 S
C9     C11     1.472   .     S
C9     O45     1.302   .     A
C9     O47     1.298   .     A
C10    O46     1.302   .     A
C10    C12     1.468   .     S
C10    O48     1.297   .     A
C11    C17     1.402   .     A
C11    C15     1.401   .     A
C12    C18     1.397   .     A
C12    C16     1.398   .     A
C13    C21     1.404   .     A
C13    C15     1.393   .     A
C13    H137    1.084   1_455 S
C14    C22     1.405   .     A
C14    C16     1.393   .     A
C14    H86     1.084   .     S
C15    H32     1.083   .     S
C16    H31     1.083   .     S
C17    H30     1.079   .     S
C17    C19     1.405   .     A
C18    H29     1.077   .     S
C18    C20     1.407   .     A
C19    C23     1.428   .     A
C19    C21     1.412   .     A
C20    C22     1.416   .     A
C20    C24     1.433   .     A
C21    C473    1.388   .     S
C22    C474    1.389   1_554 S
C23    C492    1.430   .     S
C24    C491    1.430   1_554 S
Cu25   O48     1.909   .     S
Cu25   O44     1.952   .     S
Cu25   N40     2.021   .     S
Cu25   O41     1.956   .     S
Cu25   O45     1.929   .     S
Cu25   Cu26    2.690   .     S
Cu26   O47     1.909   .     S
Cu26   O43     1.952   .     S
Cu26   N39     2.021   .     S
Cu26   O46     1.929   .     S
Cu26   O42     1.956   .     S
H27    C57     1.086   .     S
H33    C65     1.084   .     S
H34    C118    1.084   1_455 S
H35    C319    1.088   1_545 S
H36    C164    1.088   .     S
H37    N143    1.029   1_455 S
H38    N92     1.028   .     S
N39    H89     1.029   .     S
N39    N92     1.285   .     S
N40    H142    1.028   1_455 S
N40    N143    1.285   1_455 S
C49    N50     1.157   .     T
C51    N52     1.158   .     T
C53    C59     1.428   .     S
C53    O93     1.292   .     A
C53    O95     1.286   .     A
C54    O94     1.292   .     A
C54    C60     1.428   .     S
C54    O96     1.286   .     A
C55    C101    1.444   .     S
C55    C76     1.434   .     A
C55    C57     1.394   .     A
C56    C103    1.447   .     S
C56    C58     1.392   .     A
C56    C75     1.430   .     A
C57    C541    1.388   1_554 S
C58    H80     1.086   .     S
C58    C542    1.389   .     S
C59    C216    1.328   .     S
C59    H243    1.088   .     S
C60    C371    1.328   1_545 S
C60    H400    1.088   1_545 S
C61    C63     1.472   .     S
C61    O97     1.302   .     A
C61    O99     1.298   .     A
C62    O98     1.302   .     A
C62    C64     1.468   .     S
C62    O100    1.297   .     A
C63    C69     1.402   .     A
C63    C67     1.401   .     A
C64    C70     1.397   .     A
C64    C68     1.398   .     A
C65    C73     1.404   .     A
C65    C67     1.393   .     A
C66    C74     1.405   .     A
C66    C68     1.393   .     A
C66    H138    1.084   .     S
C67    H84     1.083   .     S
C68    H83     1.083   .     S
C69    H82     1.079   .     S
C69    C71     1.405   .     A
C70    H81     1.077   .     S
C70    C72     1.407   .     A
C71    C75     1.428   .     A
C71    C73     1.412   .     A
C72    C74     1.416   .     A
C72    C76     1.433   .     A
C73    C525    1.388   .     S
C74    C526    1.389   1_554 S
C75    C544    1.430   .     S
C76    C543    1.430   1_554 S
Cu77   O100    1.909   .     S
Cu77   O96     1.952   .     S
Cu77   N92     2.021   .     S
Cu77   O93     1.956   .     S
Cu77   O97     1.929   .     S
Cu77   Cu78    2.690   .     S
Cu78   O99     1.909   .     S
Cu78   O95     1.952   .     S
Cu78   N91     2.021   .     S
Cu78   O98     1.929   .     S
Cu78   O94     1.956   .     S
H79    C109    1.086   .     S
H85    C117    1.084   .     S
H87    C371    1.088   1_545 S
H88    C216    1.088   .     S
H90    N144    1.028   .     S
N91    H141    1.029   .     S
N91    N144    1.285   .     S
C101   N102    1.157   .     T
C103   N104    1.158   .     T
C105   C111    1.428   .     S
C105   O145    1.292   .     A
C105   O147    1.286   .     A
C106   O146    1.292   .     A
C106   C112    1.428   .     S
C106   O148    1.286   .     A
C107   C153    1.444   .     S
C107   C128    1.434   .     A
C107   C109    1.394   .     A
C108   C155    1.447   .     S
C108   C110    1.392   .     A
C108   C127    1.430   .     A
C109   C593    1.388   1_554 S
C110   H132    1.086   .     S
C110   C594    1.389   .     S
C111   C268    1.328   .     S
C111   H295    1.088   .     S
C112   C423    1.328   1_545 S
C112   H452    1.088   1_545 S
C113   C115    1.472   .     S
C113   O149    1.302   .     A
C113   O151    1.298   .     A
C114   O150    1.302   .     A
C114   C116    1.468   .     S
C114   O152    1.297   .     A
C115   C121    1.402   .     A
C115   C119    1.401   .     A
C116   C122    1.397   .     A
C116   C120    1.398   .     A
C117   C125    1.404   .     A
C117   C119    1.393   .     A
C118   C126    1.405   .     A
C118   C120    1.393   .     A
C118   H34     1.084   1_655 S
C119   H136    1.083   .     S
C120   H135    1.083   .     S
C121   H134    1.079   .     S
C121   C123    1.405   .     A
C122   H133    1.077   .     S
C122   C124    1.407   .     A
C123   C127    1.428   .     A
C123   C125    1.412   .     A
C124   C126    1.416   .     A
C124   C128    1.433   .     A
C125   C577    1.388   .     S
C126   C578    1.389   1_554 S
C127   C596    1.430   .     S
C128   C595    1.430   1_554 S
Cu129  O152    1.909   .     S
Cu129  O148    1.952   .     S
Cu129  N144    2.021   .     S
Cu129  O145    1.956   .     S
Cu129  O149    1.929   .     S
Cu129  Cu130   2.690   .     S
Cu130  O151    1.909   .     S
Cu130  O147    1.952   .     S
Cu130  N143    2.021   .     S
Cu130  O150    1.929   .     S
Cu130  O146    1.956   .     S
H131   C5      1.086   1_655 S
H137   C13     1.084   1_655 S
H139   C423    1.088   1_545 S
H140   C268    1.088   .     S
H142   N40     1.028   1_655 S
N143   H37     1.029   1_655 S
N143   N40     1.285   1_655 S
C153   N154    1.157   .     T
C155   N156    1.158   .     T
C157   C163    1.428   .     S
C157   O197    1.292   .     A
C157   O199    1.286   .     A
C158   O198    1.292   .     A
C158   C164    1.428   .     S
C158   O200    1.286   .     A
C159   C205    1.444   .     S
C159   C180    1.434   .     A
C159   C161    1.394   .     A
C160   C207    1.447   .     S
C160   C162    1.392   .     A
C160   C179    1.430   .     A
C161   C645    1.388   1_554 S
C161   H287    1.086   1_455 S
C162   H184    1.086   .     S
C162   C646    1.389   .     S
C163   C320    1.328   .     S
C163   H347    1.088   .     S
C165   C167    1.472   .     S
C165   O201    1.302   .     A
C165   O203    1.298   .     A
C166   O202    1.302   .     A
C166   C168    1.468   .     S
C166   O204    1.297   .     A
C167   C173    1.402   .     A
C167   C171    1.401   .     A
C168   C174    1.397   .     A
C168   C172    1.398   .     A
C169   C177    1.404   .     A
C169   C171    1.393   .     A
C169   H293    1.084   1_455 S
C170   C178    1.405   .     A
C170   C172    1.393   .     A
C170   H242    1.084   .     S
C171   H188    1.083   .     S
C172   H187    1.083   .     S
C173   H186    1.079   .     S
C173   C175    1.405   .     A
C174   H185    1.077   .     S
C174   C176    1.407   .     A
C175   C179    1.428   .     A
C175   C177    1.412   .     A
C176   C178    1.416   .     A
C176   C180    1.433   .     A
C177   C629    1.388   .     S
C178   C630    1.389   1_554 S
C179   C648    1.430   .     S
C180   C647    1.430   1_554 S
Cu181  O204    1.909   .     S
Cu181  O200    1.952   .     S
Cu181  N196    2.021   .     S
Cu181  O197    1.956   .     S
Cu181  O201    1.929   .     S
Cu181  Cu182   2.690   .     S
Cu182  O203    1.909   .     S
Cu182  O199    1.952   .     S
Cu182  N195    2.021   .     S
Cu182  O202    1.929   .     S
Cu182  O198    1.956   .     S
H183   C213    1.086   .     S
H189   C221    1.084   .     S
H190   C274    1.084   1_455 S
H192   C320    1.088   .     S
H193   N299    1.029   1_455 S
H194   N248    1.028   .     S
N195   H245    1.029   .     S
N195   N248    1.285   .     S
N196   H298    1.028   1_455 S
N196   N299    1.285   1_455 S
C205   N206    1.157   .     T
C207   N208    1.158   .     T
C209   C215    1.428   .     S
C209   O249    1.292   .     A
C209   O251    1.286   .     A
C210   O250    1.292   .     A
C210   C216    1.428   .     S
C210   O252    1.286   .     A
C211   C257    1.444   .     S
C211   C232    1.434   .     A
C211   C213    1.394   .     A
C212   C259    1.447   .     S
C212   C214    1.392   .     A
C212   C231    1.430   .     A
C213   C697    1.388   1_554 S
C214   H236    1.086   .     S
C214   C698    1.389   .     S
C215   C372    1.328   .     S
C215   H399    1.088   .     S
C217   C219    1.472   .     S
C217   O253    1.302   .     A
C217   O255    1.298   .     A
C218   O254    1.302   .     A
C218   C220    1.468   .     S
C218   O256    1.297   .     A
C219   C225    1.402   .     A
C219   C223    1.401   .     A
C220   C226    1.397   .     A
C220   C224    1.398   .     A
C221   C229    1.404   .     A
C221   C223    1.393   .     A
C222   C230    1.405   .     A
C222   C224    1.393   .     A
C222   H294    1.084   .     S
C223   H240    1.083   .     S
C224   H239    1.083   .     S
C225   H238    1.079   .     S
C225   C227    1.405   .     A
C226   H237    1.077   .     S
C226   C228    1.407   .     A
C227   C231    1.428   .     A
C227   C229    1.412   .     A
C228   C230    1.416   .     A
C228   C232    1.433   .     A
C229   C681    1.388   .     S
C230   C682    1.389   1_554 S
C231   C700    1.430   .     S
C232   C699    1.430   1_554 S
Cu233  O256    1.909   .     S
Cu233  O252    1.952   .     S
Cu233  N248    2.021   .     S
Cu233  O249    1.956   .     S
Cu233  O253    1.929   .     S
Cu233  Cu234   2.690   .     S
Cu234  O255    1.909   .     S
Cu234  O251    1.952   .     S
Cu234  N247    2.021   .     S
Cu234  O254    1.929   .     S
Cu234  O250    1.956   .     S
H235   C265    1.086   .     S
H241   C273    1.084   .     S
H244   C372    1.088   .     S
H246   N300    1.028   .     S
N247   H297    1.029   .     S
N247   N300    1.285   .     S
C257   N258    1.157   .     T
C259   N260    1.158   .     T
C261   C267    1.428   .     S
C261   O301    1.292   .     A
C261   O303    1.286   .     A
C262   O302    1.292   .     A
C262   C268    1.428   .     S
C262   O304    1.286   .     A
C263   C309    1.444   .     S
C263   C284    1.434   .     A
C263   C265    1.394   .     A
C264   C311    1.447   .     S
C264   C266    1.392   .     A
C264   C283    1.430   .     A
C265   C749    1.388   1_554 S
C266   H288    1.086   .     S
C266   C750    1.389   .     S
C267   C424    1.328   .     S
C267   H451    1.088   .     S
C269   C271    1.472   .     S
C269   O305    1.302   .     A
C269   O307    1.298   .     A
C270   O306    1.302   .     A
C270   C272    1.468   .     S
C270   O308    1.297   .     A
C271   C277    1.402   .     A
C271   C275    1.401   .     A
C272   C278    1.397   .     A
C272   C276    1.398   .     A
C273   C281    1.404   .     A
C273   C275    1.393   .     A
C274   C282    1.405   .     A
C274   C276    1.393   .     A
C274   H190    1.084   1_655 S
C275   H292    1.083   .     S
C276   H291    1.083   .     S
C277   H290    1.079   .     S
C277   C279    1.405   .     A
C278   H289    1.077   .     S
C278   C280    1.407   .     A
C279   C283    1.428   .     A
C279   C281    1.412   .     A
C280   C282    1.416   .     A
C280   C284    1.433   .     A
C281   C733    1.388   .     S
C282   C734    1.389   1_554 S
C283   C752    1.430   .     S
C284   C751    1.430   1_554 S
Cu285  O308    1.909   .     S
Cu285  O304    1.952   .     S
Cu285  N300    2.021   .     S
Cu285  O301    1.956   .     S
Cu285  O305    1.929   .     S
Cu285  Cu286   2.690   .     S
Cu286  O307    1.909   .     S
Cu286  O303    1.952   .     S
Cu286  N299    2.021   .     S
Cu286  O306    1.929   .     S
Cu286  O302    1.956   .     S
H287   C161    1.086   1_655 S
H293   C169    1.084   1_655 S
H296   C424    1.088   .     S
H298   N196    1.028   1_655 S
N299   H193    1.029   1_655 S
N299   N196    1.285   1_655 S
C309   N310    1.157   .     T
C311   N312    1.158   .     T
C313   C319    1.428   .     S
C313   O353    1.292   .     A
C313   O355    1.286   .     A
C314   O354    1.292   .     A
C314   C320    1.428   .     S
C314   O356    1.286   .     A
C315   C361    1.444   .     S
C315   C336    1.434   .     A
C315   C317    1.394   .     A
C316   C363    1.447   .     S
C316   C318    1.392   .     A
C316   C335    1.430   .     A
C317   C801    1.388   1_554 S
C317   H443    1.086   1_455 S
C318   H340    1.086   .     S
C318   C802    1.389   .     S
C319   C8      1.328   1_565 S
C319   H35     1.088   1_565 S
C321   C323    1.472   .     S
C321   O357    1.302   .     A
C321   O359    1.298   .     A
C322   O358    1.302   .     A
C322   C324    1.468   .     S
C322   O360    1.297   .     A
C323   C329    1.402   .     A
C323   C327    1.401   .     A
C324   C330    1.397   .     A
C324   C328    1.398   .     A
C325   C333    1.404   .     A
C325   C327    1.393   .     A
C325   H449    1.084   1_455 S
C326   C334    1.405   .     A
C326   C328    1.393   .     A
C326   H398    1.084   .     S
C327   H344    1.083   .     S
C328   H343    1.083   .     S
C329   H342    1.079   .     S
C329   C331    1.405   .     A
C330   H341    1.077   .     S
C330   C332    1.407   .     A
C331   C335    1.428   .     A
C331   C333    1.412   .     A
C332   C334    1.416   .     A
C332   C336    1.433   .     A
C333   C785    1.388   .     S
C334   C786    1.389   1_554 S
C335   C804    1.430   .     S
C336   C803    1.430   1_554 S
Cu337  O360    1.909   .     S
Cu337  O356    1.952   .     S
Cu337  N352    2.021   .     S
Cu337  O353    1.956   .     S
Cu337  O357    1.929   .     S
Cu337  Cu338   2.690   .     S
Cu338  O359    1.909   .     S
Cu338  O355    1.952   .     S
Cu338  N351    2.021   .     S
Cu338  O358    1.929   .     S
Cu338  O354    1.956   .     S
H339   C369    1.086   .     S
H345   C377    1.084   .     S
H346   C430    1.084   1_455 S
H348   C8      1.088   1_565 S
H349   N455    1.029   1_455 S
H350   N404    1.028   .     S
N351   H401    1.029   .     S
N351   N404    1.285   .     S
N352   H454    1.028   1_455 S
N352   N455    1.285   1_455 S
C361   N362    1.157   .     T
C363   N364    1.158   .     T
C365   C371    1.428   .     S
C365   O405    1.292   .     A
C365   O407    1.286   .     A
C366   O406    1.292   .     A
C366   C372    1.428   .     S
C366   O408    1.286   .     A
C367   C413    1.444   .     S
C367   C388    1.434   .     A
C367   C369    1.394   .     A
C368   C415    1.447   .     S
C368   C370    1.392   .     A
C368   C387    1.430   .     A
C369   C853    1.388   1_554 S
C370   H392    1.086   .     S
C370   C854    1.389   .     S
C371   C60     1.328   1_565 S
C371   H87     1.088   1_565 S
C373   C375    1.472   .     S
C373   O409    1.302   .     A
C373   O411    1.298   .     A
C374   O410    1.302   .     A
C374   C376    1.468   .     S
C374   O412    1.297   .     A
C375   C381    1.402   .     A
C375   C379    1.401   .     A
C376   C382    1.397   .     A
C376   C380    1.398   .     A
C377   C385    1.404   .     A
C377   C379    1.393   .     A
C378   C386    1.405   .     A
C378   C380    1.393   .     A
C378   H450    1.084   .     S
C379   H396    1.083   .     S
C380   H395    1.083   .     S
C381   H394    1.079   .     S
C381   C383    1.405   .     A
C382   H393    1.077   .     S
C382   C384    1.407   .     A
C383   C387    1.428   .     A
C383   C385    1.412   .     A
C384   C386    1.416   .     A
C384   C388    1.433   .     A
C385   C837    1.388   .     S
C386   C838    1.389   1_554 S
C387   C856    1.430   .     S
C388   C855    1.430   1_554 S
Cu389  O412    1.909   .     S
Cu389  O408    1.952   .     S
Cu389  N404    2.021   .     S
Cu389  O405    1.956   .     S
Cu389  O409    1.929   .     S
Cu389  Cu390   2.690   .     S
Cu390  O411    1.909   .     S
Cu390  O407    1.952   .     S
Cu390  N403    2.021   .     S
Cu390  O410    1.929   .     S
Cu390  O406    1.956   .     S
H391   C421    1.086   .     S
H397   C429    1.084   .     S
H400   C60     1.088   1_565 S
H402   N456    1.028   .     S
N403   H453    1.029   .     S
N403   N456    1.285   .     S
C413   N414    1.157   .     T
C415   N416    1.158   .     T
C417   C423    1.428   .     S
C417   O457    1.292   .     A
C417   O459    1.286   .     A
C418   O458    1.292   .     A
C418   C424    1.428   .     S
C418   O460    1.286   .     A
C419   C465    1.444   .     S
C419   C440    1.434   .     A
C419   C421    1.394   .     A
C420   C467    1.447   .     S
C420   C422    1.392   .     A
C420   C439    1.430   .     A
C421   C905    1.388   1_554 S
C422   H444    1.086   .     S
C422   C906    1.389   .     S
C423   C112    1.328   1_565 S
C423   H139    1.088   1_565 S
C425   C427    1.472   .     S
C425   O461    1.302   .     A
C425   O463    1.298   .     A
C426   O462    1.302   .     A
C426   C428    1.468   .     S
C426   O464    1.297   .     A
C427   C433    1.402   .     A
C427   C431    1.401   .     A
C428   C434    1.397   .     A
C428   C432    1.398   .     A
C429   C437    1.404   .     A
C429   C431    1.393   .     A
C430   C438    1.405   .     A
C430   C432    1.393   .     A
C430   H346    1.084   1_655 S
C431   H448    1.083   .     S
C432   H447    1.083   .     S
C433   H446    1.079   .     S
C433   C435    1.405   .     A
C434   H445    1.077   .     S
C434   C436    1.407   .     A
C435   C439    1.428   .     A
C435   C437    1.412   .     A
C436   C438    1.416   .     A
C436   C440    1.433   .     A
C437   C889    1.388   .     S
C438   C890    1.389   1_554 S
C439   C908    1.430   .     S
C440   C907    1.430   1_554 S
Cu441  O464    1.909   .     S
Cu441  O460    1.952   .     S
Cu441  N456    2.021   .     S
Cu441  O457    1.956   .     S
Cu441  O461    1.929   .     S
Cu441  Cu442   2.690   .     S
Cu442  O463    1.909   .     S
Cu442  O459    1.952   .     S
Cu442  N455    2.021   .     S
Cu442  O462    1.929   .     S
Cu442  O458    1.956   .     S
H443   C317    1.086   1_655 S
H449   C325    1.084   1_655 S
H452   C112    1.088   1_565 S
H454   N352    1.028   1_655 S
N455   H349    1.029   1_655 S
N455   N352    1.285   1_655 S
C465   N466    1.157   .     T
C467   N468    1.158   .     T
C469   C475    1.428   .     S
C469   O509    1.292   .     A
C469   O511    1.286   .     A
C470   O510    1.292   .     A
C470   C476    1.428   .     S
C470   O512    1.286   .     A
C471   C517    1.444   .     S
C471   C492    1.434   .     A
C471   C473    1.394   .     A
C472   C519    1.447   .     S
C472   C474    1.392   .     A
C472   C491    1.430   .     A
C473   H599    1.086   1_455 S
C474   H496    1.086   .     S
C474   C22     1.389   1_556 S
C475   C632    1.328   .     S
C475   H659    1.088   .     S
C476   C787    1.328   1_545 S
C476   H816    1.088   1_545 S
C477   C479    1.472   .     S
C477   O513    1.302   .     A
C477   O515    1.298   .     A
C478   O514    1.302   .     A
C478   C480    1.468   .     S
C478   O516    1.297   .     A
C479   C485    1.402   .     A
C479   C483    1.401   .     A
C480   C486    1.397   .     A
C480   C484    1.398   .     A
C481   C489    1.404   .     A
C481   C483    1.393   .     A
C481   H605    1.084   1_455 S
C482   C490    1.405   .     A
C482   C484    1.393   .     A
C482   H554    1.084   .     S
C483   H500    1.083   .     S
C484   H499    1.083   .     S
C485   H498    1.079   .     S
C485   C487    1.405   .     A
C486   H497    1.077   .     S
C486   C488    1.407   .     A
C487   C491    1.428   .     A
C487   C489    1.412   .     A
C488   C490    1.416   .     A
C488   C492    1.433   .     A
C489   C5      1.388   1_556 S
C491   C24     1.430   1_556 S
Cu493  O516    1.909   .     S
Cu493  O512    1.952   .     S
Cu493  N508    2.021   .     S
Cu493  O509    1.956   .     S
Cu493  O513    1.929   .     S
Cu493  Cu494   2.690   .     S
Cu494  O515    1.909   .     S
Cu494  O511    1.952   .     S
Cu494  N507    2.021   .     S
Cu494  O514    1.929   .     S
Cu494  O510    1.956   .     S
H495   C525    1.086   .     S
H501   C533    1.084   .     S
H502   C586    1.084   1_455 S
H503   C787    1.088   1_545 S
H504   C632    1.088   .     S
H505   N611    1.029   1_455 S
H506   N560    1.028   .     S
N507   H557    1.029   .     S
N507   N560    1.285   .     S
N508   H610    1.028   1_455 S
N508   N611    1.285   1_455 S
C517   N518    1.157   .     T
C519   N520    1.158   .     T
C521   C527    1.428   .     S
C521   O561    1.292   .     A
C521   O563    1.286   .     A
C522   O562    1.292   .     A
C522   C528    1.428   .     S
C522   O564    1.286   .     A
C523   C569    1.444   .     S
C523   C544    1.434   .     A
C523   C525    1.394   .     A
C524   C571    1.447   .     S
C524   C526    1.392   .     A
C524   C543    1.430   .     A
C526   H548    1.086   .     S
C526   C74     1.389   1_556 S
C527   C684    1.328   .     S
C527   H711    1.088   .     S
C528   C839    1.328   1_545 S
C528   H868    1.088   1_545 S
C529   C531    1.472   .     S
C529   O565    1.302   .     A
C529   O567    1.298   .     A
C530   O566    1.302   .     A
C530   C532    1.468   .     S
C530   O568    1.297   .     A
C531   C537    1.402   .     A
C531   C535    1.401   .     A
C532   C538    1.397   .     A
C532   C536    1.398   .     A
C533   C541    1.404   .     A
C533   C535    1.393   .     A
C534   C542    1.405   .     A
C534   C536    1.393   .     A
C534   H606    1.084   .     S
C535   H552    1.083   .     S
C536   H551    1.083   .     S
C537   H550    1.079   .     S
C537   C539    1.405   .     A
C538   H549    1.077   .     S
C538   C540    1.407   .     A
C539   C543    1.428   .     A
C539   C541    1.412   .     A
C540   C542    1.416   .     A
C540   C544    1.433   .     A
C541   C57     1.388   1_556 S
C543   C76     1.430   1_556 S
Cu545  O568    1.909   .     S
Cu545  O564    1.952   .     S
Cu545  N560    2.021   .     S
Cu545  O561    1.956   .     S
Cu545  O565    1.929   .     S
Cu545  Cu546   2.690   .     S
Cu546  O567    1.909   .     S
Cu546  O563    1.952   .     S
Cu546  N559    2.021   .     S
Cu546  O566    1.929   .     S
Cu546  O562    1.956   .     S
H547   C577    1.086   .     S
H553   C585    1.084   .     S
H555   C839    1.088   1_545 S
H556   C684    1.088   .     S
H558   N612    1.028   .     S
N559   H609    1.029   .     S
N559   N612    1.285   .     S
C569   N570    1.157   .     T
C571   N572    1.158   .     T
C573   C579    1.428   .     S
C573   O613    1.292   .     A
C573   O615    1.286   .     A
C574   O614    1.292   .     A
C574   C580    1.428   .     S
C574   O616    1.286   .     A
C575   C621    1.444   .     S
C575   C596    1.434   .     A
C575   C577    1.394   .     A
C576   C623    1.447   .     S
C576   C578    1.392   .     A
C576   C595    1.430   .     A
C578   H600    1.086   .     S
C578   C126    1.389   1_556 S
C579   C736    1.328   .     S
C579   H763    1.088   .     S
C580   C891    1.328   1_545 S
C580   H920    1.088   1_545 S
C581   C583    1.472   .     S
C581   O617    1.302   .     A
C581   O619    1.298   .     A
C582   O618    1.302   .     A
C582   C584    1.468   .     S
C582   O620    1.297   .     A
C583   C589    1.402   .     A
C583   C587    1.401   .     A
C584   C590    1.397   .     A
C584   C588    1.398   .     A
C585   C593    1.404   .     A
C585   C587    1.393   .     A
C586   C594    1.405   .     A
C586   C588    1.393   .     A
C586   H502    1.084   1_655 S
C587   H604    1.083   .     S
C588   H603    1.083   .     S
C589   H602    1.079   .     S
C589   C591    1.405   .     A
C590   H601    1.077   .     S
C590   C592    1.407   .     A
C591   C595    1.428   .     A
C591   C593    1.412   .     A
C592   C594    1.416   .     A
C592   C596    1.433   .     A
C593   C109    1.388   1_556 S
C595   C128    1.430   1_556 S
Cu597  O620    1.909   .     S
Cu597  O616    1.952   .     S
Cu597  N612    2.021   .     S
Cu597  O613    1.956   .     S
Cu597  O617    1.929   .     S
Cu597  Cu598   2.690   .     S
Cu598  O619    1.909   .     S
Cu598  O615    1.952   .     S
Cu598  N611    2.021   .     S
Cu598  O618    1.929   .     S
Cu598  O614    1.956   .     S
H599   C473    1.086   1_655 S
H605   C481    1.084   1_655 S
H607   C891    1.088   1_545 S
H608   C736    1.088   .     S
H610   N508    1.028   1_655 S
N611   H505    1.029   1_655 S
N611   N508    1.285   1_655 S
C621   N622    1.157   .     T
C623   N624    1.158   .     T
C625   C631    1.428   .     S
C625   O665    1.292   .     A
C625   O667    1.286   .     A
C626   O666    1.292   .     A
C626   C632    1.428   .     S
C626   O668    1.286   .     A
C627   C673    1.444   .     S
C627   C648    1.434   .     A
C627   C629    1.394   .     A
C628   C675    1.447   .     S
C628   C630    1.392   .     A
C628   C647    1.430   .     A
C629   H755    1.086   1_455 S
C630   H652    1.086   .     S
C630   C178    1.389   1_556 S
C631   C788    1.328   .     S
C631   H815    1.088   .     S
C633   C635    1.472   .     S
C633   O669    1.302   .     A
C633   O671    1.298   .     A
C634   O670    1.302   .     A
C634   C636    1.468   .     S
C634   O672    1.297   .     A
C635   C641    1.402   .     A
C635   C639    1.401   .     A
C636   C642    1.397   .     A
C636   C640    1.398   .     A
C637   C645    1.404   .     A
C637   C639    1.393   .     A
C637   H761    1.084   1_455 S
C638   C646    1.405   .     A
C638   C640    1.393   .     A
C638   H710    1.084   .     S
C639   H656    1.083   .     S
C640   H655    1.083   .     S
C641   H654    1.079   .     S
C641   C643    1.405   .     A
C642   H653    1.077   .     S
C642   C644    1.407   .     A
C643   C647    1.428   .     A
C643   C645    1.412   .     A
C644   C646    1.416   .     A
C644   C648    1.433   .     A
C645   C161    1.388   1_556 S
C647   C180    1.430   1_556 S
Cu649  O672    1.909   .     S
Cu649  O668    1.952   .     S
Cu649  N664    2.021   .     S
Cu649  O665    1.956   .     S
Cu649  O669    1.929   .     S
Cu649  Cu650   2.690   .     S
Cu650  O671    1.909   .     S
Cu650  O667    1.952   .     S
Cu650  N663    2.021   .     S
Cu650  O670    1.929   .     S
Cu650  O666    1.956   .     S
H651   C681    1.086   .     S
H657   C689    1.084   .     S
H658   C742    1.084   1_455 S
H660   C788    1.088   .     S
H661   N767    1.029   1_455 S
H662   N716    1.028   .     S
N663   H713    1.029   .     S
N663   N716    1.285   .     S
N664   H766    1.028   1_455 S
N664   N767    1.285   1_455 S
C673   N674    1.157   .     T
C675   N676    1.158   .     T
C677   C683    1.428   .     S
C677   O717    1.292   .     A
C677   O719    1.286   .     A
C678   O718    1.292   .     A
C678   C684    1.428   .     S
C678   O720    1.286   .     A
C679   C725    1.444   .     S
C679   C700    1.434   .     A
C679   C681    1.394   .     A
C680   C727    1.447   .     S
C680   C682    1.392   .     A
C680   C699    1.430   .     A
C682   H704    1.086   .     S
C682   C230    1.389   1_556 S
C683   C840    1.328   .     S
C683   H867    1.088   .     S
C685   C687    1.472   .     S
C685   O721    1.302   .     A
C685   O723    1.298   .     A
C686   O722    1.302   .     A
C686   C688    1.468   .     S
C686   O724    1.297   .     A
C687   C693    1.402   .     A
C687   C691    1.401   .     A
C688   C694    1.397   .     A
C688   C692    1.398   .     A
C689   C697    1.404   .     A
C689   C691    1.393   .     A
C690   C698    1.405   .     A
C690   C692    1.393   .     A
C690   H762    1.084   .     S
C691   H708    1.083   .     S
C692   H707    1.083   .     S
C693   H706    1.079   .     S
C693   C695    1.405   .     A
C694   H705    1.077   .     S
C694   C696    1.407   .     A
C695   C699    1.428   .     A
C695   C697    1.412   .     A
C696   C698    1.416   .     A
C696   C700    1.433   .     A
C697   C213    1.388   1_556 S
C699   C232    1.430   1_556 S
Cu701  O724    1.909   .     S
Cu701  O720    1.952   .     S
Cu701  N716    2.021   .     S
Cu701  O717    1.956   .     S
Cu701  O721    1.929   .     S
Cu701  Cu702   2.690   .     S
Cu702  O723    1.909   .     S
Cu702  O719    1.952   .     S
Cu702  N715    2.021   .     S
Cu702  O722    1.929   .     S
Cu702  O718    1.956   .     S
H703   C733    1.086   .     S
H709   C741    1.084   .     S
H712   C840    1.088   .     S
H714   N768    1.028   .     S
N715   H765    1.029   .     S
N715   N768    1.285   .     S
C725   N726    1.157   .     T
C727   N728    1.158   .     T
C729   C735    1.428   .     S
C729   O769    1.292   .     A
C729   O771    1.286   .     A
C730   O770    1.292   .     A
C730   C736    1.428   .     S
C730   O772    1.286   .     A
C731   C777    1.444   .     S
C731   C752    1.434   .     A
C731   C733    1.394   .     A
C732   C779    1.447   .     S
C732   C734    1.392   .     A
C732   C751    1.430   .     A
C734   H756    1.086   .     S
C734   C282    1.389   1_556 S
C735   C892    1.328   .     S
C735   H919    1.088   .     S
C737   C739    1.472   .     S
C737   O773    1.302   .     A
C737   O775    1.298   .     A
C738   O774    1.302   .     A
C738   C740    1.468   .     S
C738   O776    1.297   .     A
C739   C745    1.402   .     A
C739   C743    1.401   .     A
C740   C746    1.397   .     A
C740   C744    1.398   .     A
C741   C749    1.404   .     A
C741   C743    1.393   .     A
C742   C750    1.405   .     A
C742   C744    1.393   .     A
C742   H658    1.084   1_655 S
C743   H760    1.083   .     S
C744   H759    1.083   .     S
C745   H758    1.079   .     S
C745   C747    1.405   .     A
C746   H757    1.077   .     S
C746   C748    1.407   .     A
C747   C751    1.428   .     A
C747   C749    1.412   .     A
C748   C750    1.416   .     A
C748   C752    1.433   .     A
C749   C265    1.388   1_556 S
C751   C284    1.430   1_556 S
Cu753  O776    1.909   .     S
Cu753  O772    1.952   .     S
Cu753  N768    2.021   .     S
Cu753  O769    1.956   .     S
Cu753  O773    1.929   .     S
Cu753  Cu754   2.690   .     S
Cu754  O775    1.909   .     S
Cu754  O771    1.952   .     S
Cu754  N767    2.021   .     S
Cu754  O774    1.929   .     S
Cu754  O770    1.956   .     S
H755   C629    1.086   1_655 S
H761   C637    1.084   1_655 S
H764   C892    1.088   .     S
H766   N664    1.028   1_655 S
N767   H661    1.029   1_655 S
N767   N664    1.285   1_655 S
C777   N778    1.157   .     T
C779   N780    1.158   .     T
C781   C787    1.428   .     S
C781   O821    1.292   .     A
C781   O823    1.286   .     A
C782   O822    1.292   .     A
C782   C788    1.428   .     S
C782   O824    1.286   .     A
C783   C829    1.444   .     S
C783   C804    1.434   .     A
C783   C785    1.394   .     A
C784   C831    1.447   .     S
C784   C786    1.392   .     A
C784   C803    1.430   .     A
C785   H911    1.086   1_455 S
C786   H808    1.086   .     S
C786   C334    1.389   1_556 S
C787   C476    1.328   1_565 S
C787   H503    1.088   1_565 S
C789   C791    1.472   .     S
C789   O825    1.302   .     A
C789   O827    1.298   .     A
C790   O826    1.302   .     A
C790   C792    1.468   .     S
C790   O828    1.297   .     A
C791   C797    1.402   .     A
C791   C795    1.401   .     A
C792   C798    1.397   .     A
C792   C796    1.398   .     A
C793   C801    1.404   .     A
C793   C795    1.393   .     A
C793   H917    1.084   1_455 S
C794   C802    1.405   .     A
C794   C796    1.393   .     A
C794   H866    1.084   .     S
C795   H812    1.083   .     S
C796   H811    1.083   .     S
C797   H810    1.079   .     S
C797   C799    1.405   .     A
C798   H809    1.077   .     S
C798   C800    1.407   .     A
C799   C803    1.428   .     A
C799   C801    1.412   .     A
C800   C802    1.416   .     A
C800   C804    1.433   .     A
C801   C317    1.388   1_556 S
C803   C336    1.430   1_556 S
Cu805  O828    1.909   .     S
Cu805  O824    1.952   .     S
Cu805  N820    2.021   .     S
Cu805  O821    1.956   .     S
Cu805  O825    1.929   .     S
Cu805  Cu806   2.690   .     S
Cu806  O827    1.909   .     S
Cu806  O823    1.952   .     S
Cu806  N819    2.021   .     S
Cu806  O826    1.929   .     S
Cu806  O822    1.956   .     S
H807   C837    1.086   .     S
H813   C845    1.084   .     S
H814   C898    1.084   1_455 S
H816   C476    1.088   1_565 S
H817   N923    1.029   1_455 S
H818   N872    1.028   .     S
N819   H869    1.029   .     S
N819   N872    1.285   .     S
N820   H922    1.028   1_455 S
N820   N923    1.285   1_455 S
C829   N830    1.157   .     T
C831   N832    1.158   .     T
C833   C839    1.428   .     S
C833   O873    1.292   .     A
C833   O875    1.286   .     A
C834   O874    1.292   .     A
C834   C840    1.428   .     S
C834   O876    1.286   .     A
C835   C881    1.444   .     S
C835   C856    1.434   .     A
C835   C837    1.394   .     A
C836   C883    1.447   .     S
C836   C838    1.392   .     A
C836   C855    1.430   .     A
C838   H860    1.086   .     S
C838   C386    1.389   1_556 S
C839   C528    1.328   1_565 S
C839   H555    1.088   1_565 S
C841   C843    1.472   .     S
C841   O877    1.302   .     A
C841   O879    1.298   .     A
C842   O878    1.302   .     A
C842   C844    1.468   .     S
C842   O880    1.297   .     A
C843   C849    1.402   .     A
C843   C847    1.401   .     A
C844   C850    1.397   .     A
C844   C848    1.398   .     A
C845   C853    1.404   .     A
C845   C847    1.393   .     A
C846   C854    1.405   .     A
C846   C848    1.393   .     A
C846   H918    1.084   .     S
C847   H864    1.083   .     S
C848   H863    1.083   .     S
C849   H862    1.079   .     S
C849   C851    1.405   .     A
C850   H861    1.077   .     S
C850   C852    1.407   .     A
C851   C855    1.428   .     A
C851   C853    1.412   .     A
C852   C854    1.416   .     A
C852   C856    1.433   .     A
C853   C369    1.388   1_556 S
C855   C388    1.430   1_556 S
Cu857  O880    1.909   .     S
Cu857  O876    1.952   .     S
Cu857  N872    2.021   .     S
Cu857  O873    1.956   .     S
Cu857  O877    1.929   .     S
Cu857  Cu858   2.690   .     S
Cu858  O879    1.909   .     S
Cu858  O875    1.952   .     S
Cu858  N871    2.021   .     S
Cu858  O878    1.929   .     S
Cu858  O874    1.956   .     S
H859   C889    1.086   .     S
H865   C897    1.084   .     S
H868   C528    1.088   1_565 S
H870   N924    1.028   .     S
N871   H921    1.029   .     S
N871   N924    1.285   .     S
C881   N882    1.157   .     T
C883   N884    1.158   .     T
C885   C891    1.428   .     S
C885   O925    1.292   .     A
C885   O927    1.286   .     A
C886   O926    1.292   .     A
C886   C892    1.428   .     S
C886   O928    1.286   .     A
C887   C933    1.444   .     S
C887   C908    1.434   .     A
C887   C889    1.394   .     A
C888   C935    1.447   .     S
C888   C890    1.392   .     A
C888   C907    1.430   .     A
C890   H912    1.086   .     S
C890   C438    1.389   1_556 S
C891   C580    1.328   1_565 S
C891   H607    1.088   1_565 S
C893   C895    1.472   .     S
C893   O929    1.302   .     A
C893   O931    1.298   .     A
C894   O930    1.302   .     A
C894   C896    1.468   .     S
C894   O932    1.297   .     A
C895   C901    1.402   .     A
C895   C899    1.401   .     A
C896   C902    1.397   .     A
C896   C900    1.398   .     A
C897   C905    1.404   .     A
C897   C899    1.393   .     A
C898   C906    1.405   .     A
C898   C900    1.393   .     A
C898   H814    1.084   1_655 S
C899   H916    1.083   .     S
C900   H915    1.083   .     S
C901   H914    1.079   .     S
C901   C903    1.405   .     A
C902   H913    1.077   .     S
C902   C904    1.407   .     A
C903   C907    1.428   .     A
C903   C905    1.412   .     A
C904   C906    1.416   .     A
C904   C908    1.433   .     A
C905   C421    1.388   1_556 S
C907   C440    1.430   1_556 S
Cu909  O932    1.909   .     S
Cu909  O928    1.952   .     S
Cu909  N924    2.021   .     S
Cu909  O925    1.956   .     S
Cu909  O929    1.929   .     S
Cu909  Cu910   2.690   .     S
Cu910  O931    1.909   .     S
Cu910  O927    1.952   .     S
Cu910  N923    2.021   .     S
Cu910  O930    1.929   .     S
Cu910  O926    1.956   .     S
H911   C785    1.086   1_655 S
H917   C793    1.084   1_655 S
H920   C580    1.088   1_565 S
H922   N820    1.028   1_655 S
N923   H817    1.029   1_655 S
N923   N820    1.285   1_655 S
C933   N934    1.157   .     T
C935   N936    1.158   .     T
