data_str_m3_o10_o17_pcu_sym.141
_audit_creation_date              2020-01-03
_audit_creation_method            'Materials Studio'
_symmetry_space_group_name_H-M    'P1'
_symmetry_Int_Tables_number       1
_symmetry_cell_setting            triclinic
loop_
_symmetry_equiv_pos_as_xyz
  x,y,z
_cell_length_a                    23.5245
_cell_length_b                    25.7508
_cell_length_c                    29.9415
_cell_angle_alpha                 91.8375
_cell_angle_beta                  86.0452
_cell_angle_gamma                 93.3266
loop_
_atom_site_label
_atom_site_type_symbol
_atom_site_fract_x
_atom_site_fract_y
_atom_site_fract_z
_atom_site_U_iso_or_equiv
_atom_site_adp_type
_atom_site_occupancy
C1     C     0.18147   0.26460   0.24965   0.00000  Uiso   1.00
C2     C     0.19639   0.20464   0.40548   0.00000  Uiso   1.00
C3     C     0.16592   0.16952   0.11612   0.00000  Uiso   1.00
C4     C     0.16741   0.16382   0.38388   0.00000  Uiso   1.00
C5     C     0.19857   0.20825   0.09252   0.00000  Uiso   1.00
C6     C     0.13476   0.12508   0.40748   0.00000  Uiso   1.00
C7     C     0.19619   0.20908   0.04579   0.00000  Uiso   1.00
C8     C     0.13715   0.12425   0.45421   0.00000  Uiso   1.00
C9     C     0.16730   0.16686   0.02341   0.00000  Uiso   1.00
C10    C     0.16604   0.16647   0.47659   0.00000  Uiso   1.00
C11    C     0.13982   0.12500   0.04787   0.00000  Uiso   1.00
C12    C     0.15186   0.06873   0.25035   0.00000  Uiso   1.00
C13    C     0.19352   0.20833   0.45213   0.00000  Uiso   1.00
C14    C     0.21990   0.25183   0.02120   0.00000  Uiso   1.00
C15    C     0.11344   0.08150   0.47880   0.00000  Uiso   1.00
C16    C     0.23582   0.24638   0.11697   0.00000  Uiso   1.00
C17    C     0.09752   0.08695   0.38303   0.00000  Uiso   1.00
C18    C     0.23906   0.30064   0.45229   0.00000  Uiso   1.00
C19    C     0.09432   0.03267   0.04771   0.00000  Uiso   1.00
C20    C     0.23318   0.00408   0.28614   0.00000  Uiso   1.00
C21    C     0.10016   0.32925   0.21386   0.00000  Uiso   1.00
C22    C     0.00651   0.13686   0.19525   0.00000  Uiso   1.00
C23    C     0.21823   0.25205   0.47491   0.00000  Uiso   1.00
C24    C     0.32682   0.19647   0.30475   0.00000  Uiso   1.00
C25    C     0.11512   0.08127   0.02509   0.00000  Uiso   1.00
C26    C     0.18773   0.31872   0.25630   0.00000  Uiso   1.00
C27    C     0.14561   0.01461   0.24370   0.00000  Uiso   1.00
C28    C     0.16704   0.16550   0.33620   0.00000  Uiso   1.00
C29    C     0.16629   0.16783   0.16380   0.00000  Uiso   1.00
C30    C     0.13694   0.12869   0.09452   0.00000  Uiso   1.00
F31    F     0.10690   0.09237   0.11985   0.00000  Uiso   1.00
F32    F     0.22643   0.24096   0.38015   0.00000  Uiso   1.00
F33    F     0.24107   0.29579   0.04203   0.00000  Uiso   1.00
F34    F     0.09227   0.03754   0.45797   0.00000  Uiso   1.00
H35    H     0.24149   0.30457   0.16324   0.00000  Uiso   1.00
H36    H     0.09186   0.02875   0.33677   0.00000  Uiso   1.00
H37    H     0.22037   0.02748   0.41546   0.00000  Uiso   1.00
H38    H     0.11304   0.30586   0.08454   0.00000  Uiso   1.00
H39    H     0.31241   0.03689   0.29150   0.00000  Uiso   1.00
H40    H     0.02092   0.29646   0.20850   0.00000  Uiso   1.00
H41    H     0.02096   0.15396   0.13002   0.00000  Uiso   1.00
H42    H     0.31237   0.17936   0.36998   0.00000  Uiso   1.00
N43    N     0.31678   0.15265   0.23783   0.00000  Uiso   1.00
N44    N     0.01656   0.18068   0.26217   0.00000  Uiso   1.00
O45    O     0.12975   0.24619   0.25299   0.00000  Uiso   1.00
O46    O     0.21184   0.27981   0.14970   0.00000  Uiso   1.00
O47    O     0.04593   0.08474   0.39195   0.00000  Uiso   1.00
O48    O     0.12151   0.05351   0.35031   0.00000  Uiso   1.00
O49    O     0.28775   0.31849   0.45663   0.00000  Uiso   1.00
O50    O     0.20209   0.32706   0.42763   0.00000  Uiso   1.00
O51    O     0.04563   0.01480   0.04335   0.00000  Uiso   1.00
O52    O     0.13129   0.00628   0.07238   0.00000  Uiso   1.00
O53    O     0.22500  -0.00000   0.32663   0.00000  Uiso   1.00
O54    O     0.28528   0.02524   0.26778   0.00000  Uiso   1.00
O55    O     0.10834   0.33332   0.17337   0.00000  Uiso   1.00
O56    O     0.20358   0.08714   0.24702   0.00000  Uiso   1.00
O57    O     0.04805   0.30811   0.23223   0.00000  Uiso   1.00
O58    O     0.02204   0.09261   0.18916   0.00000  Uiso   1.00
O59    O     0.00693   0.17055   0.15957   0.00000  Uiso   1.00
O60    O     0.31130   0.24072   0.31085   0.00000  Uiso   1.00
O61    O     0.32641   0.16277   0.34043   0.00000  Uiso   1.00
O62    O     0.22613   0.23721   0.24519   0.00000  Uiso   1.00
O63    O     0.10720   0.09613   0.25482   0.00000  Uiso   1.00
O64    O     0.11847   0.17117   0.31998   0.00000  Uiso   1.00
O65    O     0.21486   0.16216   0.18003   0.00000  Uiso   1.00
O66    O     0.21485   0.16219   0.31218   0.00000  Uiso   1.00
O67    O     0.11848   0.17115   0.18783   0.00000  Uiso   1.00
O68    O     0.28741   0.24859   0.10805   0.00000  Uiso   1.00
Zn69   Zn    0.10231   0.17266   0.25521   0.00000  Uiso   1.00
Zn70   Zn    0.23102   0.16067   0.24479   0.00000  Uiso   1.00
C71    C     0.51480   0.26460   0.24965   0.00000  Uiso   1.00
C72    C     0.52973   0.20464   0.40548   0.00000  Uiso   1.00
C73    C     0.49925   0.16952   0.11612   0.00000  Uiso   1.00
C74    C     0.50075   0.16382   0.38388   0.00000  Uiso   1.00
C75    C     0.53191   0.20825   0.09252   0.00000  Uiso   1.00
C76    C     0.46809   0.12508   0.40748   0.00000  Uiso   1.00
C77    C     0.52952   0.20908   0.04579   0.00000  Uiso   1.00
C78    C     0.47048   0.12425   0.45421   0.00000  Uiso   1.00
C79    C     0.50063   0.16686   0.02341   0.00000  Uiso   1.00
C80    C     0.49937   0.16647   0.47659   0.00000  Uiso   1.00
C81    C     0.47315   0.12500   0.04787   0.00000  Uiso   1.00
C82    C     0.48520   0.06873   0.25035   0.00000  Uiso   1.00
C83    C     0.52685   0.20833   0.45213   0.00000  Uiso   1.00
C84    C     0.55324   0.25183   0.02120   0.00000  Uiso   1.00
C85    C     0.44677   0.08150   0.47880   0.00000  Uiso   1.00
C86    C     0.56915   0.24638   0.11697   0.00000  Uiso   1.00
C87    C     0.43085   0.08695   0.38303   0.00000  Uiso   1.00
C88    C     0.57239   0.30064   0.45229   0.00000  Uiso   1.00
C89    C     0.42765   0.03267   0.04771   0.00000  Uiso   1.00
C90    C     0.56651   0.00408   0.28614   0.00000  Uiso   1.00
C91    C     0.43349   0.32925   0.21386   0.00000  Uiso   1.00
C92    C     0.33984   0.13686   0.19525   0.00000  Uiso   1.00
C93    C     0.55156   0.25205   0.47491   0.00000  Uiso   1.00
C94    C     0.66016   0.19647   0.30475   0.00000  Uiso   1.00
C95    C     0.44845   0.08127   0.02509   0.00000  Uiso   1.00
C96    C     0.52106   0.31872   0.25630   0.00000  Uiso   1.00
C97    C     0.47894   0.01461   0.24370   0.00000  Uiso   1.00
C98    C     0.50038   0.16550   0.33620   0.00000  Uiso   1.00
C99    C     0.49962   0.16783   0.16380   0.00000  Uiso   1.00
C100   C     0.47028   0.12869   0.09452   0.00000  Uiso   1.00
F101   F     0.44024   0.09237   0.11985   0.00000  Uiso   1.00
F102   F     0.55976   0.24096   0.38015   0.00000  Uiso   1.00
F103   F     0.57441   0.29579   0.04203   0.00000  Uiso   1.00
F104   F     0.42560   0.03754   0.45797   0.00000  Uiso   1.00
H105   H     0.57483   0.30457   0.16324   0.00000  Uiso   1.00
H106   H     0.42519   0.02875   0.33677   0.00000  Uiso   1.00
H107   H     0.55370   0.02748   0.41546   0.00000  Uiso   1.00
H108   H     0.44637   0.30586   0.08454   0.00000  Uiso   1.00
H109   H     0.64574   0.03689   0.29150   0.00000  Uiso   1.00
H110   H     0.35425   0.29646   0.20850   0.00000  Uiso   1.00
H111   H     0.35430   0.15396   0.13002   0.00000  Uiso   1.00
H112   H     0.64570   0.17936   0.36998   0.00000  Uiso   1.00
N113   N     0.65011   0.15265   0.23783   0.00000  Uiso   1.00
N114   N     0.34989   0.18068   0.26217   0.00000  Uiso   1.00
O115   O     0.46308   0.24619   0.25299   0.00000  Uiso   1.00
O116   O     0.54517   0.27981   0.14970   0.00000  Uiso   1.00
O117   O     0.37926   0.08474   0.39195   0.00000  Uiso   1.00
O118   O     0.45484   0.05351   0.35031   0.00000  Uiso   1.00
O119   O     0.62109   0.31849   0.45663   0.00000  Uiso   1.00
O120   O     0.53542   0.32706   0.42763   0.00000  Uiso   1.00
O121   O     0.37897   0.01480   0.04335   0.00000  Uiso   1.00
O122   O     0.46463   0.00628   0.07238   0.00000  Uiso   1.00
O123   O     0.55833  -0.00000   0.32663   0.00000  Uiso   1.00
O124   O     0.61861   0.02524   0.26778   0.00000  Uiso   1.00
O125   O     0.44167   0.33332   0.17337   0.00000  Uiso   1.00
O126   O     0.53692   0.08714   0.24702   0.00000  Uiso   1.00
O127   O     0.38138   0.30811   0.23223   0.00000  Uiso   1.00
O128   O     0.35537   0.09261   0.18916   0.00000  Uiso   1.00
O129   O     0.34026   0.17055   0.15957   0.00000  Uiso   1.00
O130   O     0.64463   0.24072   0.31085   0.00000  Uiso   1.00
O131   O     0.65974   0.16277   0.34043   0.00000  Uiso   1.00
O132   O     0.55946   0.23721   0.24519   0.00000  Uiso   1.00
O133   O     0.44054   0.09613   0.25482   0.00000  Uiso   1.00
O134   O     0.45181   0.17117   0.31998   0.00000  Uiso   1.00
O135   O     0.54819   0.16216   0.18003   0.00000  Uiso   1.00
O136   O     0.54819   0.16219   0.31218   0.00000  Uiso   1.00
O137   O     0.45181   0.17115   0.18783   0.00000  Uiso   1.00
O138   O     0.62075   0.24859   0.10805   0.00000  Uiso   1.00
Zn139  Zn    0.43565   0.17266   0.25521   0.00000  Uiso   1.00
Zn140  Zn    0.56435   0.16067   0.24479   0.00000  Uiso   1.00
C141   C     0.84814   0.26460   0.24965   0.00000  Uiso   1.00
C142   C     0.86306   0.20464   0.40548   0.00000  Uiso   1.00
C143   C     0.83259   0.16952   0.11612   0.00000  Uiso   1.00
C144   C     0.83408   0.16382   0.38388   0.00000  Uiso   1.00
C145   C     0.86524   0.20825   0.09252   0.00000  Uiso   1.00
C146   C     0.80143   0.12508   0.40748   0.00000  Uiso   1.00
C147   C     0.86286   0.20908   0.04579   0.00000  Uiso   1.00
C148   C     0.80381   0.12425   0.45421   0.00000  Uiso   1.00
C149   C     0.83397   0.16686   0.02341   0.00000  Uiso   1.00
C150   C     0.83270   0.16647   0.47659   0.00000  Uiso   1.00
C151   C     0.80649   0.12500   0.04787   0.00000  Uiso   1.00
C152   C     0.81853   0.06873   0.25035   0.00000  Uiso   1.00
C153   C     0.86018   0.20833   0.45213   0.00000  Uiso   1.00
C154   C     0.88657   0.25183   0.02120   0.00000  Uiso   1.00
C155   C     0.78010   0.08150   0.47880   0.00000  Uiso   1.00
C156   C     0.90249   0.24638   0.11697   0.00000  Uiso   1.00
C157   C     0.76419   0.08695   0.38303   0.00000  Uiso   1.00
C158   C     0.90572   0.30064   0.45229   0.00000  Uiso   1.00
C159   C     0.76098   0.03267   0.04771   0.00000  Uiso   1.00
C160   C     0.89984   0.00408   0.28614   0.00000  Uiso   1.00
C161   C     0.76683   0.32925   0.21386   0.00000  Uiso   1.00
C162   C     0.67318   0.13686   0.19525   0.00000  Uiso   1.00
C163   C     0.88490   0.25205   0.47491   0.00000  Uiso   1.00
C164   C     0.99349   0.19647   0.30475   0.00000  Uiso   1.00
C165   C     0.78178   0.08127   0.02509   0.00000  Uiso   1.00
C166   C     0.85439   0.31872   0.25630   0.00000  Uiso   1.00
C167   C     0.81227   0.01461   0.24370   0.00000  Uiso   1.00
C168   C     0.83371   0.16550   0.33620   0.00000  Uiso   1.00
C169   C     0.83296   0.16783   0.16380   0.00000  Uiso   1.00
C170   C     0.80361   0.12869   0.09452   0.00000  Uiso   1.00
F171   F     0.77357   0.09237   0.11985   0.00000  Uiso   1.00
F172   F     0.89310   0.24096   0.38015   0.00000  Uiso   1.00
F173   F     0.90774   0.29579   0.04203   0.00000  Uiso   1.00
F174   F     0.75893   0.03754   0.45797   0.00000  Uiso   1.00
H175   H     0.90816   0.30457   0.16324   0.00000  Uiso   1.00
H176   H     0.75852   0.02875   0.33677   0.00000  Uiso   1.00
H177   H     0.88703   0.02748   0.41546   0.00000  Uiso   1.00
H178   H     0.77970   0.30586   0.08454   0.00000  Uiso   1.00
H179   H     0.97908   0.03689   0.29150   0.00000  Uiso   1.00
H180   H     0.68759   0.29646   0.20850   0.00000  Uiso   1.00
H181   H     0.68763   0.15396   0.13002   0.00000  Uiso   1.00
H182   H     0.97904   0.17936   0.36998   0.00000  Uiso   1.00
N183   N     0.98344   0.15265   0.23783   0.00000  Uiso   1.00
N184   N     0.68322   0.18068   0.26217   0.00000  Uiso   1.00
O185   O     0.79642   0.24619   0.25299   0.00000  Uiso   1.00
O186   O     0.87851   0.27981   0.14970   0.00000  Uiso   1.00
O187   O     0.71259   0.08474   0.39195   0.00000  Uiso   1.00
O188   O     0.78817   0.05351   0.35031   0.00000  Uiso   1.00
O189   O     0.95442   0.31849   0.45663   0.00000  Uiso   1.00
O190   O     0.86876   0.32706   0.42763   0.00000  Uiso   1.00
O191   O     0.71230   0.01480   0.04335   0.00000  Uiso   1.00
O192   O     0.79796   0.00628   0.07238   0.00000  Uiso   1.00
O193   O     0.89167  -0.00000   0.32663   0.00000  Uiso   1.00
O194   O     0.95195   0.02524   0.26778   0.00000  Uiso   1.00
O195   O     0.77501   0.33332   0.17337   0.00000  Uiso   1.00
O196   O     0.87025   0.08714   0.24702   0.00000  Uiso   1.00
O197   O     0.71471   0.30811   0.23223   0.00000  Uiso   1.00
O198   O     0.68870   0.09261   0.18916   0.00000  Uiso   1.00
O199   O     0.67359   0.17055   0.15957   0.00000  Uiso   1.00
O200   O     0.97797   0.24072   0.31085   0.00000  Uiso   1.00
O201   O     0.99307   0.16277   0.34043   0.00000  Uiso   1.00
O202   O     0.89280   0.23721   0.24519   0.00000  Uiso   1.00
O203   O     0.77387   0.09613   0.25482   0.00000  Uiso   1.00
O204   O     0.78514   0.17117   0.31998   0.00000  Uiso   1.00
O205   O     0.88153   0.16216   0.18003   0.00000  Uiso   1.00
O206   O     0.88152   0.16219   0.31218   0.00000  Uiso   1.00
O207   O     0.78515   0.17115   0.18783   0.00000  Uiso   1.00
O208   O     0.95408   0.24859   0.10805   0.00000  Uiso   1.00
Zn209  Zn    0.76898   0.17266   0.25521   0.00000  Uiso   1.00
Zn210  Zn    0.89769   0.16067   0.24479   0.00000  Uiso   1.00
C211   C     0.18147   0.59794   0.24965   0.00000  Uiso   1.00
C212   C     0.19639   0.53797   0.40548   0.00000  Uiso   1.00
C213   C     0.16592   0.50285   0.11612   0.00000  Uiso   1.00
C214   C     0.16741   0.49715   0.38388   0.00000  Uiso   1.00
C215   C     0.19857   0.54158   0.09252   0.00000  Uiso   1.00
C216   C     0.13476   0.45841   0.40748   0.00000  Uiso   1.00
C217   C     0.19619   0.54242   0.04579   0.00000  Uiso   1.00
C218   C     0.13715   0.45758   0.45421   0.00000  Uiso   1.00
C219   C     0.16730   0.50020   0.02341   0.00000  Uiso   1.00
C220   C     0.16604   0.49980   0.47659   0.00000  Uiso   1.00
C221   C     0.13982   0.45833   0.04787   0.00000  Uiso   1.00
C222   C     0.15186   0.40207   0.25035   0.00000  Uiso   1.00
C223   C     0.19352   0.54167   0.45213   0.00000  Uiso   1.00
C224   C     0.21990   0.58516   0.02120   0.00000  Uiso   1.00
C225   C     0.11344   0.41483   0.47880   0.00000  Uiso   1.00
C226   C     0.23582   0.57971   0.11697   0.00000  Uiso   1.00
C227   C     0.09752   0.42029   0.38303   0.00000  Uiso   1.00
C228   C     0.23906   0.63398   0.45229   0.00000  Uiso   1.00
C229   C     0.09432   0.36601   0.04771   0.00000  Uiso   1.00
C230   C     0.23318   0.33741   0.28614   0.00000  Uiso   1.00
C231   C     0.10016   0.66259   0.21386   0.00000  Uiso   1.00
C232   C     0.00651   0.47019   0.19525   0.00000  Uiso   1.00
C233   C     0.21823   0.58539   0.47491   0.00000  Uiso   1.00
C234   C     0.32682   0.52980   0.30475   0.00000  Uiso   1.00
C235   C     0.11512   0.41461   0.02509   0.00000  Uiso   1.00
C236   C     0.18773   0.65206   0.25630   0.00000  Uiso   1.00
C237   C     0.14561   0.34794   0.24370   0.00000  Uiso   1.00
C238   C     0.16704   0.49883   0.33620   0.00000  Uiso   1.00
C239   C     0.16629   0.50117   0.16380   0.00000  Uiso   1.00
C240   C     0.13694   0.46203   0.09452   0.00000  Uiso   1.00
F241   F     0.10690   0.42570   0.11985   0.00000  Uiso   1.00
F242   F     0.22643   0.57429   0.38015   0.00000  Uiso   1.00
F243   F     0.24107   0.62913   0.04203   0.00000  Uiso   1.00
F244   F     0.09227   0.37087   0.45797   0.00000  Uiso   1.00
H245   H     0.24149   0.63790   0.16324   0.00000  Uiso   1.00
H246   H     0.09186   0.36208   0.33677   0.00000  Uiso   1.00
H247   H     0.22037   0.36081   0.41546   0.00000  Uiso   1.00
H248   H     0.11304   0.63919   0.08454   0.00000  Uiso   1.00
H249   H     0.31241   0.37022   0.29150   0.00000  Uiso   1.00
H250   H     0.02092   0.62979   0.20850   0.00000  Uiso   1.00
H251   H     0.02096   0.48730   0.13002   0.00000  Uiso   1.00
H252   H     0.31237   0.51269   0.36998   0.00000  Uiso   1.00
N253   N     0.31678   0.48598   0.23783   0.00000  Uiso   1.00
N254   N     0.01656   0.51402   0.26217   0.00000  Uiso   1.00
O255   O     0.12975   0.57952   0.25299   0.00000  Uiso   1.00
O256   O     0.21184   0.61315   0.14970   0.00000  Uiso   1.00
O257   O     0.04593   0.41807   0.39195   0.00000  Uiso   1.00
O258   O     0.12151   0.38684   0.35031   0.00000  Uiso   1.00
O259   O     0.28775   0.65182   0.45663   0.00000  Uiso   1.00
O260   O     0.20209   0.66040   0.42763   0.00000  Uiso   1.00
O261   O     0.04563   0.34813   0.04335   0.00000  Uiso   1.00
O262   O     0.13129   0.33962   0.07238   0.00000  Uiso   1.00
O263   O     0.22500   0.33333   0.32663   0.00000  Uiso   1.00
O264   O     0.28528   0.35858   0.26778   0.00000  Uiso   1.00
O265   O     0.10834   0.66665   0.17337   0.00000  Uiso   1.00
O266   O     0.20358   0.42048   0.24702   0.00000  Uiso   1.00
O267   O     0.04805   0.64144   0.23223   0.00000  Uiso   1.00
O268   O     0.02204   0.42594   0.18916   0.00000  Uiso   1.00
O269   O     0.00693   0.50389   0.15957   0.00000  Uiso   1.00
O270   O     0.31130   0.57406   0.31085   0.00000  Uiso   1.00
O271   O     0.32641   0.49610   0.34043   0.00000  Uiso   1.00
O272   O     0.22613   0.57054   0.24519   0.00000  Uiso   1.00
O273   O     0.10720   0.42946   0.25482   0.00000  Uiso   1.00
O274   O     0.11847   0.50450   0.31998   0.00000  Uiso   1.00
O275   O     0.21486   0.49550   0.18003   0.00000  Uiso   1.00
O276   O     0.21485   0.49552   0.31218   0.00000  Uiso   1.00
O277   O     0.11848   0.50448   0.18783   0.00000  Uiso   1.00
O278   O     0.28741   0.58193   0.10805   0.00000  Uiso   1.00
Zn279  Zn    0.10231   0.50600   0.25521   0.00000  Uiso   1.00
Zn280  Zn    0.23102   0.49400   0.24479   0.00000  Uiso   1.00
C281   C     0.51480   0.59794   0.24965   0.00000  Uiso   1.00
C282   C     0.52973   0.53797   0.40548   0.00000  Uiso   1.00
C283   C     0.49925   0.50285   0.11612   0.00000  Uiso   1.00
C284   C     0.50075   0.49715   0.38388   0.00000  Uiso   1.00
C285   C     0.53191   0.54158   0.09252   0.00000  Uiso   1.00
C286   C     0.46809   0.45841   0.40748   0.00000  Uiso   1.00
C287   C     0.52952   0.54242   0.04579   0.00000  Uiso   1.00
C288   C     0.47048   0.45758   0.45421   0.00000  Uiso   1.00
C289   C     0.50063   0.50020   0.02341   0.00000  Uiso   1.00
C290   C     0.49937   0.49980   0.47659   0.00000  Uiso   1.00
C291   C     0.47315   0.45833   0.04787   0.00000  Uiso   1.00
C292   C     0.48520   0.40207   0.25035   0.00000  Uiso   1.00
C293   C     0.52685   0.54167   0.45213   0.00000  Uiso   1.00
C294   C     0.55324   0.58516   0.02120   0.00000  Uiso   1.00
C295   C     0.44677   0.41483   0.47880   0.00000  Uiso   1.00
C296   C     0.56915   0.57971   0.11697   0.00000  Uiso   1.00
C297   C     0.43085   0.42029   0.38303   0.00000  Uiso   1.00
C298   C     0.57239   0.63398   0.45229   0.00000  Uiso   1.00
C299   C     0.42765   0.36601   0.04771   0.00000  Uiso   1.00
C300   C     0.56651   0.33741   0.28614   0.00000  Uiso   1.00
C301   C     0.43349   0.66259   0.21386   0.00000  Uiso   1.00
C302   C     0.33984   0.47019   0.19525   0.00000  Uiso   1.00
C303   C     0.55156   0.58539   0.47491   0.00000  Uiso   1.00
C304   C     0.66016   0.52980   0.30475   0.00000  Uiso   1.00
C305   C     0.44845   0.41461   0.02509   0.00000  Uiso   1.00
C306   C     0.52106   0.65206   0.25630   0.00000  Uiso   1.00
C307   C     0.47894   0.34794   0.24370   0.00000  Uiso   1.00
C308   C     0.50038   0.49883   0.33620   0.00000  Uiso   1.00
C309   C     0.49962   0.50117   0.16380   0.00000  Uiso   1.00
C310   C     0.47028   0.46203   0.09452   0.00000  Uiso   1.00
F311   F     0.44024   0.42570   0.11985   0.00000  Uiso   1.00
F312   F     0.55976   0.57429   0.38015   0.00000  Uiso   1.00
F313   F     0.57441   0.62913   0.04203   0.00000  Uiso   1.00
F314   F     0.42560   0.37087   0.45797   0.00000  Uiso   1.00
H315   H     0.57483   0.63790   0.16324   0.00000  Uiso   1.00
H316   H     0.42519   0.36208   0.33677   0.00000  Uiso   1.00
H317   H     0.55370   0.36081   0.41546   0.00000  Uiso   1.00
H318   H     0.44637   0.63919   0.08454   0.00000  Uiso   1.00
H319   H     0.64574   0.37022   0.29150   0.00000  Uiso   1.00
H320   H     0.35425   0.62979   0.20850   0.00000  Uiso   1.00
H321   H     0.35430   0.48730   0.13002   0.00000  Uiso   1.00
H322   H     0.64570   0.51269   0.36998   0.00000  Uiso   1.00
N323   N     0.65011   0.48598   0.23783   0.00000  Uiso   1.00
N324   N     0.34989   0.51402   0.26217   0.00000  Uiso   1.00
O325   O     0.46308   0.57952   0.25299   0.00000  Uiso   1.00
O326   O     0.54517   0.61315   0.14970   0.00000  Uiso   1.00
O327   O     0.37926   0.41807   0.39195   0.00000  Uiso   1.00
O328   O     0.45484   0.38684   0.35031   0.00000  Uiso   1.00
O329   O     0.62109   0.65182   0.45663   0.00000  Uiso   1.00
O330   O     0.53542   0.66040   0.42763   0.00000  Uiso   1.00
O331   O     0.37897   0.34813   0.04335   0.00000  Uiso   1.00
O332   O     0.46463   0.33962   0.07238   0.00000  Uiso   1.00
O333   O     0.55833   0.33333   0.32663   0.00000  Uiso   1.00
O334   O     0.61861   0.35858   0.26778   0.00000  Uiso   1.00
O335   O     0.44167   0.66665   0.17337   0.00000  Uiso   1.00
O336   O     0.53692   0.42048   0.24702   0.00000  Uiso   1.00
O337   O     0.38138   0.64144   0.23223   0.00000  Uiso   1.00
O338   O     0.35537   0.42594   0.18916   0.00000  Uiso   1.00
O339   O     0.34026   0.50389   0.15957   0.00000  Uiso   1.00
O340   O     0.64463   0.57406   0.31085   0.00000  Uiso   1.00
O341   O     0.65974   0.49610   0.34043   0.00000  Uiso   1.00
O342   O     0.55946   0.57054   0.24519   0.00000  Uiso   1.00
O343   O     0.44054   0.42946   0.25482   0.00000  Uiso   1.00
O344   O     0.45181   0.50450   0.31998   0.00000  Uiso   1.00
O345   O     0.54819   0.49550   0.18003   0.00000  Uiso   1.00
O346   O     0.54819   0.49552   0.31218   0.00000  Uiso   1.00
O347   O     0.45181   0.50448   0.18783   0.00000  Uiso   1.00
O348   O     0.62075   0.58193   0.10805   0.00000  Uiso   1.00
Zn349  Zn    0.43565   0.50600   0.25521   0.00000  Uiso   1.00
Zn350  Zn    0.56435   0.49400   0.24479   0.00000  Uiso   1.00
C351   C     0.84814   0.59794   0.24965   0.00000  Uiso   1.00
C352   C     0.86306   0.53797   0.40548   0.00000  Uiso   1.00
C353   C     0.83259   0.50285   0.11612   0.00000  Uiso   1.00
C354   C     0.83408   0.49715   0.38388   0.00000  Uiso   1.00
C355   C     0.86524   0.54158   0.09252   0.00000  Uiso   1.00
C356   C     0.80143   0.45841   0.40748   0.00000  Uiso   1.00
C357   C     0.86286   0.54242   0.04579   0.00000  Uiso   1.00
C358   C     0.80381   0.45758   0.45421   0.00000  Uiso   1.00
C359   C     0.83397   0.50020   0.02341   0.00000  Uiso   1.00
C360   C     0.83270   0.49980   0.47659   0.00000  Uiso   1.00
C361   C     0.80649   0.45833   0.04787   0.00000  Uiso   1.00
C362   C     0.81853   0.40207   0.25035   0.00000  Uiso   1.00
C363   C     0.86018   0.54167   0.45213   0.00000  Uiso   1.00
C364   C     0.88657   0.58516   0.02120   0.00000  Uiso   1.00
C365   C     0.78010   0.41483   0.47880   0.00000  Uiso   1.00
C366   C     0.90249   0.57971   0.11697   0.00000  Uiso   1.00
C367   C     0.76419   0.42029   0.38303   0.00000  Uiso   1.00
C368   C     0.90572   0.63398   0.45229   0.00000  Uiso   1.00
C369   C     0.76098   0.36601   0.04771   0.00000  Uiso   1.00
C370   C     0.89984   0.33741   0.28614   0.00000  Uiso   1.00
C371   C     0.76683   0.66259   0.21386   0.00000  Uiso   1.00
C372   C     0.67318   0.47019   0.19525   0.00000  Uiso   1.00
C373   C     0.88490   0.58539   0.47491   0.00000  Uiso   1.00
C374   C     0.99349   0.52980   0.30475   0.00000  Uiso   1.00
C375   C     0.78178   0.41461   0.02509   0.00000  Uiso   1.00
C376   C     0.85439   0.65206   0.25630   0.00000  Uiso   1.00
C377   C     0.81227   0.34794   0.24370   0.00000  Uiso   1.00
C378   C     0.83371   0.49883   0.33620   0.00000  Uiso   1.00
C379   C     0.83296   0.50117   0.16380   0.00000  Uiso   1.00
C380   C     0.80361   0.46203   0.09452   0.00000  Uiso   1.00
F381   F     0.77357   0.42570   0.11985   0.00000  Uiso   1.00
F382   F     0.89310   0.57429   0.38015   0.00000  Uiso   1.00
F383   F     0.90774   0.62913   0.04203   0.00000  Uiso   1.00
F384   F     0.75893   0.37087   0.45797   0.00000  Uiso   1.00
H385   H     0.90816   0.63790   0.16324   0.00000  Uiso   1.00
H386   H     0.75852   0.36208   0.33677   0.00000  Uiso   1.00
H387   H     0.88703   0.36081   0.41546   0.00000  Uiso   1.00
H388   H     0.77970   0.63919   0.08454   0.00000  Uiso   1.00
H389   H     0.97908   0.37022   0.29150   0.00000  Uiso   1.00
H390   H     0.68759   0.62979   0.20850   0.00000  Uiso   1.00
H391   H     0.68763   0.48730   0.13002   0.00000  Uiso   1.00
H392   H     0.97904   0.51269   0.36998   0.00000  Uiso   1.00
N393   N     0.98344   0.48598   0.23783   0.00000  Uiso   1.00
N394   N     0.68322   0.51402   0.26217   0.00000  Uiso   1.00
O395   O     0.79642   0.57952   0.25299   0.00000  Uiso   1.00
O396   O     0.87851   0.61315   0.14970   0.00000  Uiso   1.00
O397   O     0.71259   0.41807   0.39195   0.00000  Uiso   1.00
O398   O     0.78817   0.38684   0.35031   0.00000  Uiso   1.00
O399   O     0.95442   0.65182   0.45663   0.00000  Uiso   1.00
O400   O     0.86876   0.66040   0.42763   0.00000  Uiso   1.00
O401   O     0.71230   0.34813   0.04335   0.00000  Uiso   1.00
O402   O     0.79796   0.33962   0.07238   0.00000  Uiso   1.00
O403   O     0.89167   0.33333   0.32663   0.00000  Uiso   1.00
O404   O     0.95195   0.35858   0.26778   0.00000  Uiso   1.00
O405   O     0.77501   0.66665   0.17337   0.00000  Uiso   1.00
O406   O     0.87025   0.42048   0.24702   0.00000  Uiso   1.00
O407   O     0.71471   0.64144   0.23223   0.00000  Uiso   1.00
O408   O     0.68870   0.42594   0.18916   0.00000  Uiso   1.00
O409   O     0.67359   0.50389   0.15957   0.00000  Uiso   1.00
O410   O     0.97797   0.57406   0.31085   0.00000  Uiso   1.00
O411   O     0.99307   0.49610   0.34043   0.00000  Uiso   1.00
O412   O     0.89280   0.57054   0.24519   0.00000  Uiso   1.00
O413   O     0.77387   0.42946   0.25482   0.00000  Uiso   1.00
O414   O     0.78514   0.50450   0.31998   0.00000  Uiso   1.00
O415   O     0.88153   0.49550   0.18003   0.00000  Uiso   1.00
O416   O     0.88152   0.49552   0.31218   0.00000  Uiso   1.00
O417   O     0.78515   0.50448   0.18783   0.00000  Uiso   1.00
O418   O     0.95408   0.58193   0.10805   0.00000  Uiso   1.00
Zn419  Zn    0.76898   0.50600   0.25521   0.00000  Uiso   1.00
Zn420  Zn    0.89769   0.49400   0.24479   0.00000  Uiso   1.00
C421   C     0.18147   0.93127   0.24965   0.00000  Uiso   1.00
C422   C     0.19639   0.87131   0.40548   0.00000  Uiso   1.00
C423   C     0.16592   0.83618   0.11612   0.00000  Uiso   1.00
C424   C     0.16741   0.83048   0.38388   0.00000  Uiso   1.00
C425   C     0.19857   0.87492   0.09252   0.00000  Uiso   1.00
C426   C     0.13476   0.79175   0.40748   0.00000  Uiso   1.00
C427   C     0.19619   0.87575   0.04579   0.00000  Uiso   1.00
C428   C     0.13715   0.79092   0.45421   0.00000  Uiso   1.00
C429   C     0.16730   0.83353   0.02341   0.00000  Uiso   1.00
C430   C     0.16604   0.83313   0.47659   0.00000  Uiso   1.00
C431   C     0.13982   0.79166   0.04787   0.00000  Uiso   1.00
C432   C     0.15186   0.73540   0.25035   0.00000  Uiso   1.00
C433   C     0.19352   0.87500   0.45213   0.00000  Uiso   1.00
C434   C     0.21990   0.91850   0.02120   0.00000  Uiso   1.00
C435   C     0.11344   0.74817   0.47880   0.00000  Uiso   1.00
C436   C     0.23582   0.91304   0.11697   0.00000  Uiso   1.00
C437   C     0.09752   0.75362   0.38303   0.00000  Uiso   1.00
C438   C     0.23906   0.96731   0.45229   0.00000  Uiso   1.00
C439   C     0.09432   0.69934   0.04771   0.00000  Uiso   1.00
C440   C     0.23318   0.67075   0.28614   0.00000  Uiso   1.00
C441   C     0.10016   0.99592   0.21386   0.00000  Uiso   1.00
C442   C     0.00651   0.80352   0.19525   0.00000  Uiso   1.00
C443   C     0.21823   0.91872   0.47491   0.00000  Uiso   1.00
C444   C     0.32682   0.86314   0.30475   0.00000  Uiso   1.00
C445   C     0.11512   0.74794   0.02509   0.00000  Uiso   1.00
C446   C     0.18773   0.98539   0.25630   0.00000  Uiso   1.00
C447   C     0.14561   0.68128   0.24370   0.00000  Uiso   1.00
C448   C     0.16704   0.83217   0.33620   0.00000  Uiso   1.00
C449   C     0.16629   0.83450   0.16380   0.00000  Uiso   1.00
C450   C     0.13694   0.79536   0.09452   0.00000  Uiso   1.00
F451   F     0.10690   0.75904   0.11985   0.00000  Uiso   1.00
F452   F     0.22643   0.90763   0.38015   0.00000  Uiso   1.00
F453   F     0.24107   0.96246   0.04203   0.00000  Uiso   1.00
F454   F     0.09227   0.70420   0.45797   0.00000  Uiso   1.00
H455   H     0.24149   0.97124   0.16324   0.00000  Uiso   1.00
H456   H     0.09186   0.69542   0.33677   0.00000  Uiso   1.00
H457   H     0.22037   0.69414   0.41546   0.00000  Uiso   1.00
H458   H     0.11304   0.97253   0.08454   0.00000  Uiso   1.00
H459   H     0.31241   0.70356   0.29150   0.00000  Uiso   1.00
H460   H     0.02092   0.96312   0.20850   0.00000  Uiso   1.00
H461   H     0.02096   0.82063   0.13002   0.00000  Uiso   1.00
H462   H     0.31237   0.84602   0.36998   0.00000  Uiso   1.00
N463   N     0.31678   0.81932   0.23783   0.00000  Uiso   1.00
N464   N     0.01656   0.84735   0.26217   0.00000  Uiso   1.00
O465   O     0.12975   0.91286   0.25299   0.00000  Uiso   1.00
O466   O     0.21184   0.94648   0.14970   0.00000  Uiso   1.00
O467   O     0.04593   0.75141   0.39195   0.00000  Uiso   1.00
O468   O     0.12151   0.72018   0.35031   0.00000  Uiso   1.00
O469   O     0.28775   0.98516   0.45663   0.00000  Uiso   1.00
O470   O     0.20209   0.99373   0.42763   0.00000  Uiso   1.00
O471   O     0.04563   0.68147   0.04335   0.00000  Uiso   1.00
O472   O     0.13129   0.67295   0.07238   0.00000  Uiso   1.00
O473   O     0.22500   0.66666   0.32663   0.00000  Uiso   1.00
O474   O     0.28528   0.69191   0.26778   0.00000  Uiso   1.00
O475   O     0.10834   0.99998   0.17337   0.00000  Uiso   1.00
O476   O     0.20358   0.75381   0.24702   0.00000  Uiso   1.00
O477   O     0.04805   0.97477   0.23223   0.00000  Uiso   1.00
O478   O     0.02204   0.75927   0.18916   0.00000  Uiso   1.00
O479   O     0.00693   0.83722   0.15957   0.00000  Uiso   1.00
O480   O     0.31130   0.90739   0.31085   0.00000  Uiso   1.00
O481   O     0.32641   0.82944   0.34043   0.00000  Uiso   1.00
O482   O     0.22613   0.90387   0.24519   0.00000  Uiso   1.00
O483   O     0.10720   0.76279   0.25482   0.00000  Uiso   1.00
O484   O     0.11847   0.83784   0.31998   0.00000  Uiso   1.00
O485   O     0.21486   0.82883   0.18003   0.00000  Uiso   1.00
O486   O     0.21485   0.82885   0.31218   0.00000  Uiso   1.00
O487   O     0.11848   0.83781   0.18783   0.00000  Uiso   1.00
O488   O     0.28741   0.91526   0.10805   0.00000  Uiso   1.00
Zn489  Zn    0.10231   0.83933   0.25521   0.00000  Uiso   1.00
Zn490  Zn    0.23102   0.82734   0.24479   0.00000  Uiso   1.00
C491   C     0.51480   0.93127   0.24965   0.00000  Uiso   1.00
C492   C     0.52973   0.87131   0.40548   0.00000  Uiso   1.00
C493   C     0.49925   0.83618   0.11612   0.00000  Uiso   1.00
C494   C     0.50075   0.83048   0.38388   0.00000  Uiso   1.00
C495   C     0.53191   0.87492   0.09252   0.00000  Uiso   1.00
C496   C     0.46809   0.79175   0.40748   0.00000  Uiso   1.00
C497   C     0.52952   0.87575   0.04579   0.00000  Uiso   1.00
C498   C     0.47048   0.79092   0.45421   0.00000  Uiso   1.00
C499   C     0.50063   0.83353   0.02341   0.00000  Uiso   1.00
C500   C     0.49937   0.83313   0.47659   0.00000  Uiso   1.00
C501   C     0.47315   0.79166   0.04787   0.00000  Uiso   1.00
C502   C     0.48520   0.73540   0.25035   0.00000  Uiso   1.00
C503   C     0.52685   0.87500   0.45213   0.00000  Uiso   1.00
C504   C     0.55324   0.91850   0.02120   0.00000  Uiso   1.00
C505   C     0.44677   0.74817   0.47880   0.00000  Uiso   1.00
C506   C     0.56915   0.91304   0.11697   0.00000  Uiso   1.00
C507   C     0.43085   0.75362   0.38303   0.00000  Uiso   1.00
C508   C     0.57239   0.96731   0.45229   0.00000  Uiso   1.00
C509   C     0.42765   0.69934   0.04771   0.00000  Uiso   1.00
C510   C     0.56651   0.67075   0.28614   0.00000  Uiso   1.00
C511   C     0.43349   0.99592   0.21386   0.00000  Uiso   1.00
C512   C     0.33984   0.80352   0.19525   0.00000  Uiso   1.00
C513   C     0.55156   0.91872   0.47491   0.00000  Uiso   1.00
C514   C     0.66016   0.86314   0.30475   0.00000  Uiso   1.00
C515   C     0.44845   0.74794   0.02509   0.00000  Uiso   1.00
C516   C     0.52106   0.98539   0.25630   0.00000  Uiso   1.00
C517   C     0.47894   0.68128   0.24370   0.00000  Uiso   1.00
C518   C     0.50038   0.83217   0.33620   0.00000  Uiso   1.00
C519   C     0.49962   0.83450   0.16380   0.00000  Uiso   1.00
C520   C     0.47028   0.79536   0.09452   0.00000  Uiso   1.00
F521   F     0.44024   0.75904   0.11985   0.00000  Uiso   1.00
F522   F     0.55976   0.90763   0.38015   0.00000  Uiso   1.00
F523   F     0.57441   0.96246   0.04203   0.00000  Uiso   1.00
F524   F     0.42560   0.70420   0.45797   0.00000  Uiso   1.00
H525   H     0.57483   0.97124   0.16324   0.00000  Uiso   1.00
H526   H     0.42519   0.69542   0.33677   0.00000  Uiso   1.00
H527   H     0.55370   0.69414   0.41546   0.00000  Uiso   1.00
H528   H     0.44637   0.97253   0.08454   0.00000  Uiso   1.00
H529   H     0.64574   0.70356   0.29150   0.00000  Uiso   1.00
H530   H     0.35425   0.96312   0.20850   0.00000  Uiso   1.00
H531   H     0.35430   0.82063   0.13002   0.00000  Uiso   1.00
H532   H     0.64570   0.84602   0.36998   0.00000  Uiso   1.00
N533   N     0.65011   0.81932   0.23783   0.00000  Uiso   1.00
N534   N     0.34989   0.84735   0.26217   0.00000  Uiso   1.00
O535   O     0.46308   0.91286   0.25299   0.00000  Uiso   1.00
O536   O     0.54517   0.94648   0.14970   0.00000  Uiso   1.00
O537   O     0.37926   0.75141   0.39195   0.00000  Uiso   1.00
O538   O     0.45484   0.72018   0.35031   0.00000  Uiso   1.00
O539   O     0.62109   0.98516   0.45663   0.00000  Uiso   1.00
O540   O     0.53542   0.99373   0.42763   0.00000  Uiso   1.00
O541   O     0.37897   0.68147   0.04335   0.00000  Uiso   1.00
O542   O     0.46463   0.67295   0.07238   0.00000  Uiso   1.00
O543   O     0.55833   0.66666   0.32663   0.00000  Uiso   1.00
O544   O     0.61861   0.69191   0.26778   0.00000  Uiso   1.00
O545   O     0.44167   0.99998   0.17337   0.00000  Uiso   1.00
O546   O     0.53692   0.75381   0.24702   0.00000  Uiso   1.00
O547   O     0.38138   0.97477   0.23223   0.00000  Uiso   1.00
O548   O     0.35537   0.75927   0.18916   0.00000  Uiso   1.00
O549   O     0.34026   0.83722   0.15957   0.00000  Uiso   1.00
O550   O     0.64463   0.90739   0.31085   0.00000  Uiso   1.00
O551   O     0.65974   0.82944   0.34043   0.00000  Uiso   1.00
O552   O     0.55946   0.90387   0.24519   0.00000  Uiso   1.00
O553   O     0.44054   0.76279   0.25482   0.00000  Uiso   1.00
O554   O     0.45181   0.83784   0.31998   0.00000  Uiso   1.00
O555   O     0.54819   0.82883   0.18003   0.00000  Uiso   1.00
O556   O     0.54819   0.82885   0.31218   0.00000  Uiso   1.00
O557   O     0.45181   0.83781   0.18783   0.00000  Uiso   1.00
O558   O     0.62075   0.91526   0.10805   0.00000  Uiso   1.00
Zn559  Zn    0.43565   0.83933   0.25521   0.00000  Uiso   1.00
Zn560  Zn    0.56435   0.82734   0.24479   0.00000  Uiso   1.00
C561   C     0.84814   0.93127   0.24965   0.00000  Uiso   1.00
C562   C     0.86306   0.87131   0.40548   0.00000  Uiso   1.00
C563   C     0.83259   0.83618   0.11612   0.00000  Uiso   1.00
C564   C     0.83408   0.83048   0.38388   0.00000  Uiso   1.00
C565   C     0.86524   0.87492   0.09252   0.00000  Uiso   1.00
C566   C     0.80143   0.79175   0.40748   0.00000  Uiso   1.00
C567   C     0.86286   0.87575   0.04579   0.00000  Uiso   1.00
C568   C     0.80381   0.79092   0.45421   0.00000  Uiso   1.00
C569   C     0.83397   0.83353   0.02341   0.00000  Uiso   1.00
C570   C     0.83270   0.83313   0.47659   0.00000  Uiso   1.00
C571   C     0.80649   0.79166   0.04787   0.00000  Uiso   1.00
C572   C     0.81853   0.73540   0.25035   0.00000  Uiso   1.00
C573   C     0.86018   0.87500   0.45213   0.00000  Uiso   1.00
C574   C     0.88657   0.91850   0.02120   0.00000  Uiso   1.00
C575   C     0.78010   0.74817   0.47880   0.00000  Uiso   1.00
C576   C     0.90249   0.91304   0.11697   0.00000  Uiso   1.00
C577   C     0.76419   0.75362   0.38303   0.00000  Uiso   1.00
C578   C     0.90572   0.96731   0.45229   0.00000  Uiso   1.00
C579   C     0.76098   0.69934   0.04771   0.00000  Uiso   1.00
C580   C     0.89984   0.67075   0.28614   0.00000  Uiso   1.00
C581   C     0.76683   0.99592   0.21386   0.00000  Uiso   1.00
C582   C     0.67318   0.80352   0.19525   0.00000  Uiso   1.00
C583   C     0.88490   0.91872   0.47491   0.00000  Uiso   1.00
C584   C     0.99349   0.86314   0.30475   0.00000  Uiso   1.00
C585   C     0.78178   0.74794   0.02509   0.00000  Uiso   1.00
C586   C     0.85439   0.98539   0.25630   0.00000  Uiso   1.00
C587   C     0.81227   0.68128   0.24370   0.00000  Uiso   1.00
C588   C     0.83371   0.83217   0.33620   0.00000  Uiso   1.00
C589   C     0.83296   0.83450   0.16380   0.00000  Uiso   1.00
C590   C     0.80361   0.79536   0.09452   0.00000  Uiso   1.00
F591   F     0.77357   0.75904   0.11985   0.00000  Uiso   1.00
F592   F     0.89310   0.90763   0.38015   0.00000  Uiso   1.00
F593   F     0.90774   0.96246   0.04203   0.00000  Uiso   1.00
F594   F     0.75893   0.70420   0.45797   0.00000  Uiso   1.00
H595   H     0.90816   0.97124   0.16324   0.00000  Uiso   1.00
H596   H     0.75852   0.69542   0.33677   0.00000  Uiso   1.00
H597   H     0.88703   0.69414   0.41546   0.00000  Uiso   1.00
H598   H     0.77970   0.97253   0.08454   0.00000  Uiso   1.00
H599   H     0.97908   0.70356   0.29150   0.00000  Uiso   1.00
H600   H     0.68759   0.96312   0.20850   0.00000  Uiso   1.00
H601   H     0.68763   0.82063   0.13002   0.00000  Uiso   1.00
H602   H     0.97904   0.84602   0.36998   0.00000  Uiso   1.00
N603   N     0.98344   0.81932   0.23783   0.00000  Uiso   1.00
N604   N     0.68322   0.84735   0.26217   0.00000  Uiso   1.00
O605   O     0.79642   0.91286   0.25299   0.00000  Uiso   1.00
O606   O     0.87851   0.94648   0.14970   0.00000  Uiso   1.00
O607   O     0.71259   0.75141   0.39195   0.00000  Uiso   1.00
O608   O     0.78817   0.72018   0.35031   0.00000  Uiso   1.00
O609   O     0.95442   0.98516   0.45663   0.00000  Uiso   1.00
O610   O     0.86876   0.99373   0.42763   0.00000  Uiso   1.00
O611   O     0.71230   0.68147   0.04335   0.00000  Uiso   1.00
O612   O     0.79796   0.67295   0.07238   0.00000  Uiso   1.00
O613   O     0.89167   0.66666   0.32663   0.00000  Uiso   1.00
O614   O     0.95195   0.69191   0.26778   0.00000  Uiso   1.00
O615   O     0.77501   0.99998   0.17337   0.00000  Uiso   1.00
O616   O     0.87025   0.75381   0.24702   0.00000  Uiso   1.00
O617   O     0.71471   0.97477   0.23223   0.00000  Uiso   1.00
O618   O     0.68870   0.75927   0.18916   0.00000  Uiso   1.00
O619   O     0.67359   0.83722   0.15957   0.00000  Uiso   1.00
O620   O     0.97797   0.90739   0.31085   0.00000  Uiso   1.00
O621   O     0.99307   0.82944   0.34043   0.00000  Uiso   1.00
O622   O     0.89280   0.90387   0.24519   0.00000  Uiso   1.00
O623   O     0.77387   0.76279   0.25482   0.00000  Uiso   1.00
O624   O     0.78514   0.83784   0.31998   0.00000  Uiso   1.00
O625   O     0.88153   0.82883   0.18003   0.00000  Uiso   1.00
O626   O     0.88152   0.82885   0.31218   0.00000  Uiso   1.00
O627   O     0.78515   0.83781   0.18783   0.00000  Uiso   1.00
O628   O     0.95408   0.91526   0.10805   0.00000  Uiso   1.00
Zn629  Zn    0.76898   0.83933   0.25521   0.00000  Uiso   1.00
Zn630  Zn    0.89769   0.82734   0.24479   0.00000  Uiso   1.00
C631   C     0.18147   0.26460   0.74965   0.00000  Uiso   1.00
C632   C     0.19639   0.20464   0.90548   0.00000  Uiso   1.00
C633   C     0.16592   0.16952   0.61612   0.00000  Uiso   1.00
C634   C     0.16741   0.16382   0.88388   0.00000  Uiso   1.00
C635   C     0.19857   0.20825   0.59252   0.00000  Uiso   1.00
C636   C     0.13476   0.12508   0.90748   0.00000  Uiso   1.00
C637   C     0.19619   0.20908   0.54579   0.00000  Uiso   1.00
C638   C     0.13715   0.12425   0.95421   0.00000  Uiso   1.00
C639   C     0.16730   0.16686   0.52341   0.00000  Uiso   1.00
C640   C     0.16604   0.16647   0.97659   0.00000  Uiso   1.00
C641   C     0.13982   0.12500   0.54787   0.00000  Uiso   1.00
C642   C     0.15186   0.06873   0.75035   0.00000  Uiso   1.00
C643   C     0.19352   0.20833   0.95213   0.00000  Uiso   1.00
C644   C     0.21990   0.25183   0.52120   0.00000  Uiso   1.00
C645   C     0.11344   0.08150   0.97880   0.00000  Uiso   1.00
C646   C     0.23582   0.24638   0.61697   0.00000  Uiso   1.00
C647   C     0.09752   0.08695   0.88303   0.00000  Uiso   1.00
C648   C     0.23906   0.30064   0.95229   0.00000  Uiso   1.00
C649   C     0.09432   0.03267   0.54771   0.00000  Uiso   1.00
C650   C     0.23318   0.00408   0.78614   0.00000  Uiso   1.00
C651   C     0.10016   0.32925   0.71386   0.00000  Uiso   1.00
C652   C     0.00651   0.13686   0.69525   0.00000  Uiso   1.00
C653   C     0.21823   0.25205   0.97491   0.00000  Uiso   1.00
C654   C     0.32682   0.19647   0.80475   0.00000  Uiso   1.00
C655   C     0.11512   0.08127   0.52509   0.00000  Uiso   1.00
C656   C     0.18773   0.31872   0.75630   0.00000  Uiso   1.00
C657   C     0.14561   0.01461   0.74370   0.00000  Uiso   1.00
C658   C     0.16704   0.16550   0.83620   0.00000  Uiso   1.00
C659   C     0.16629   0.16783   0.66380   0.00000  Uiso   1.00
C660   C     0.13694   0.12869   0.59452   0.00000  Uiso   1.00
F661   F     0.10690   0.09237   0.61985   0.00000  Uiso   1.00
F662   F     0.22643   0.24096   0.88015   0.00000  Uiso   1.00
F663   F     0.24107   0.29579   0.54203   0.00000  Uiso   1.00
F664   F     0.09227   0.03754   0.95797   0.00000  Uiso   1.00
H665   H     0.24149   0.30457   0.66324   0.00000  Uiso   1.00
H666   H     0.09186   0.02875   0.83677   0.00000  Uiso   1.00
H667   H     0.22037   0.02748   0.91546   0.00000  Uiso   1.00
H668   H     0.11304   0.30586   0.58454   0.00000  Uiso   1.00
H669   H     0.31241   0.03689   0.79150   0.00000  Uiso   1.00
H670   H     0.02092   0.29646   0.70850   0.00000  Uiso   1.00
H671   H     0.02096   0.15396   0.63002   0.00000  Uiso   1.00
H672   H     0.31237   0.17936   0.86998   0.00000  Uiso   1.00
N673   N     0.31678   0.15265   0.73783   0.00000  Uiso   1.00
N674   N     0.01656   0.18068   0.76217   0.00000  Uiso   1.00
O675   O     0.12975   0.24619   0.75299   0.00000  Uiso   1.00
O676   O     0.21184   0.27981   0.64970   0.00000  Uiso   1.00
O677   O     0.04593   0.08474   0.89195   0.00000  Uiso   1.00
O678   O     0.12151   0.05351   0.85031   0.00000  Uiso   1.00
O679   O     0.28775   0.31849   0.95663   0.00000  Uiso   1.00
O680   O     0.20209   0.32706   0.92763   0.00000  Uiso   1.00
O681   O     0.04563   0.01480   0.54335   0.00000  Uiso   1.00
O682   O     0.13129   0.00628   0.57238   0.00000  Uiso   1.00
O683   O     0.22500  -0.00000   0.82663   0.00000  Uiso   1.00
O684   O     0.28528   0.02524   0.76778   0.00000  Uiso   1.00
O685   O     0.10834   0.33332   0.67337   0.00000  Uiso   1.00
O686   O     0.20358   0.08714   0.74702   0.00000  Uiso   1.00
O687   O     0.04805   0.30811   0.73223   0.00000  Uiso   1.00
O688   O     0.02204   0.09261   0.68916   0.00000  Uiso   1.00
O689   O     0.00693   0.17055   0.65957   0.00000  Uiso   1.00
O690   O     0.31130   0.24072   0.81085   0.00000  Uiso   1.00
O691   O     0.32641   0.16277   0.84043   0.00000  Uiso   1.00
O692   O     0.22613   0.23721   0.74519   0.00000  Uiso   1.00
O693   O     0.10720   0.09613   0.75482   0.00000  Uiso   1.00
O694   O     0.11847   0.17117   0.81998   0.00000  Uiso   1.00
O695   O     0.21486   0.16216   0.68003   0.00000  Uiso   1.00
O696   O     0.21485   0.16219   0.81218   0.00000  Uiso   1.00
O697   O     0.11848   0.17115   0.68783   0.00000  Uiso   1.00
O698   O     0.28741   0.24859   0.60805   0.00000  Uiso   1.00
Zn699  Zn    0.10231   0.17266   0.75521   0.00000  Uiso   1.00
Zn700  Zn    0.23102   0.16067   0.74479   0.00000  Uiso   1.00
C701   C     0.51480   0.26460   0.74965   0.00000  Uiso   1.00
C702   C     0.52973   0.20464   0.90548   0.00000  Uiso   1.00
C703   C     0.49925   0.16952   0.61612   0.00000  Uiso   1.00
C704   C     0.50075   0.16382   0.88388   0.00000  Uiso   1.00
C705   C     0.53191   0.20825   0.59252   0.00000  Uiso   1.00
C706   C     0.46809   0.12508   0.90748   0.00000  Uiso   1.00
C707   C     0.52952   0.20908   0.54579   0.00000  Uiso   1.00
C708   C     0.47048   0.12425   0.95421   0.00000  Uiso   1.00
C709   C     0.50063   0.16686   0.52341   0.00000  Uiso   1.00
C710   C     0.49937   0.16647   0.97659   0.00000  Uiso   1.00
C711   C     0.47315   0.12500   0.54787   0.00000  Uiso   1.00
C712   C     0.48520   0.06873   0.75035   0.00000  Uiso   1.00
C713   C     0.52685   0.20833   0.95213   0.00000  Uiso   1.00
C714   C     0.55324   0.25183   0.52120   0.00000  Uiso   1.00
C715   C     0.44677   0.08150   0.97880   0.00000  Uiso   1.00
C716   C     0.56915   0.24638   0.61697   0.00000  Uiso   1.00
C717   C     0.43085   0.08695   0.88303   0.00000  Uiso   1.00
C718   C     0.57239   0.30064   0.95229   0.00000  Uiso   1.00
C719   C     0.42765   0.03267   0.54771   0.00000  Uiso   1.00
C720   C     0.56651   0.00408   0.78614   0.00000  Uiso   1.00
C721   C     0.43349   0.32925   0.71386   0.00000  Uiso   1.00
C722   C     0.33984   0.13686   0.69525   0.00000  Uiso   1.00
C723   C     0.55156   0.25205   0.97491   0.00000  Uiso   1.00
C724   C     0.66016   0.19647   0.80475   0.00000  Uiso   1.00
C725   C     0.44845   0.08127   0.52509   0.00000  Uiso   1.00
C726   C     0.52106   0.31872   0.75630   0.00000  Uiso   1.00
C727   C     0.47894   0.01461   0.74370   0.00000  Uiso   1.00
C728   C     0.50038   0.16550   0.83620   0.00000  Uiso   1.00
C729   C     0.49962   0.16783   0.66380   0.00000  Uiso   1.00
C730   C     0.47028   0.12869   0.59452   0.00000  Uiso   1.00
F731   F     0.44024   0.09237   0.61985   0.00000  Uiso   1.00
F732   F     0.55976   0.24096   0.88015   0.00000  Uiso   1.00
F733   F     0.57441   0.29579   0.54203   0.00000  Uiso   1.00
F734   F     0.42560   0.03754   0.95797   0.00000  Uiso   1.00
H735   H     0.57483   0.30457   0.66324   0.00000  Uiso   1.00
H736   H     0.42519   0.02875   0.83677   0.00000  Uiso   1.00
H737   H     0.55370   0.02748   0.91546   0.00000  Uiso   1.00
H738   H     0.44637   0.30586   0.58454   0.00000  Uiso   1.00
H739   H     0.64574   0.03689   0.79150   0.00000  Uiso   1.00
H740   H     0.35425   0.29646   0.70850   0.00000  Uiso   1.00
H741   H     0.35430   0.15396   0.63002   0.00000  Uiso   1.00
H742   H     0.64570   0.17936   0.86998   0.00000  Uiso   1.00
N743   N     0.65011   0.15265   0.73783   0.00000  Uiso   1.00
N744   N     0.34989   0.18068   0.76217   0.00000  Uiso   1.00
O745   O     0.46308   0.24619   0.75299   0.00000  Uiso   1.00
O746   O     0.54517   0.27981   0.64970   0.00000  Uiso   1.00
O747   O     0.37926   0.08474   0.89195   0.00000  Uiso   1.00
O748   O     0.45484   0.05351   0.85031   0.00000  Uiso   1.00
O749   O     0.62109   0.31849   0.95663   0.00000  Uiso   1.00
O750   O     0.53542   0.32706   0.92763   0.00000  Uiso   1.00
O751   O     0.37897   0.01480   0.54335   0.00000  Uiso   1.00
O752   O     0.46463   0.00628   0.57238   0.00000  Uiso   1.00
O753   O     0.55833  -0.00000   0.82663   0.00000  Uiso   1.00
O754   O     0.61861   0.02524   0.76778   0.00000  Uiso   1.00
O755   O     0.44167   0.33332   0.67337   0.00000  Uiso   1.00
O756   O     0.53692   0.08714   0.74702   0.00000  Uiso   1.00
O757   O     0.38138   0.30811   0.73223   0.00000  Uiso   1.00
O758   O     0.35537   0.09261   0.68916   0.00000  Uiso   1.00
O759   O     0.34026   0.17055   0.65957   0.00000  Uiso   1.00
O760   O     0.64463   0.24072   0.81085   0.00000  Uiso   1.00
O761   O     0.65974   0.16277   0.84043   0.00000  Uiso   1.00
O762   O     0.55946   0.23721   0.74519   0.00000  Uiso   1.00
O763   O     0.44054   0.09613   0.75482   0.00000  Uiso   1.00
O764   O     0.45181   0.17117   0.81998   0.00000  Uiso   1.00
O765   O     0.54819   0.16216   0.68003   0.00000  Uiso   1.00
O766   O     0.54819   0.16219   0.81218   0.00000  Uiso   1.00
O767   O     0.45181   0.17115   0.68783   0.00000  Uiso   1.00
O768   O     0.62075   0.24859   0.60805   0.00000  Uiso   1.00
Zn769  Zn    0.43565   0.17266   0.75521   0.00000  Uiso   1.00
Zn770  Zn    0.56435   0.16067   0.74479   0.00000  Uiso   1.00
C771   C     0.84814   0.26460   0.74965   0.00000  Uiso   1.00
C772   C     0.86306   0.20464   0.90548   0.00000  Uiso   1.00
C773   C     0.83259   0.16952   0.61612   0.00000  Uiso   1.00
C774   C     0.83408   0.16382   0.88388   0.00000  Uiso   1.00
C775   C     0.86524   0.20825   0.59252   0.00000  Uiso   1.00
C776   C     0.80143   0.12508   0.90748   0.00000  Uiso   1.00
C777   C     0.86286   0.20908   0.54579   0.00000  Uiso   1.00
C778   C     0.80381   0.12425   0.95421   0.00000  Uiso   1.00
C779   C     0.83397   0.16686   0.52341   0.00000  Uiso   1.00
C780   C     0.83270   0.16647   0.97659   0.00000  Uiso   1.00
C781   C     0.80649   0.12500   0.54787   0.00000  Uiso   1.00
C782   C     0.81853   0.06873   0.75035   0.00000  Uiso   1.00
C783   C     0.86018   0.20833   0.95213   0.00000  Uiso   1.00
C784   C     0.88657   0.25183   0.52120   0.00000  Uiso   1.00
C785   C     0.78010   0.08150   0.97880   0.00000  Uiso   1.00
C786   C     0.90249   0.24638   0.61697   0.00000  Uiso   1.00
C787   C     0.76419   0.08695   0.88303   0.00000  Uiso   1.00
C788   C     0.90572   0.30064   0.95229   0.00000  Uiso   1.00
C789   C     0.76098   0.03267   0.54771   0.00000  Uiso   1.00
C790   C     0.89984   0.00408   0.78614   0.00000  Uiso   1.00
C791   C     0.76683   0.32925   0.71386   0.00000  Uiso   1.00
C792   C     0.67318   0.13686   0.69525   0.00000  Uiso   1.00
C793   C     0.88490   0.25205   0.97491   0.00000  Uiso   1.00
C794   C     0.99349   0.19647   0.80475   0.00000  Uiso   1.00
C795   C     0.78178   0.08127   0.52509   0.00000  Uiso   1.00
C796   C     0.85439   0.31872   0.75630   0.00000  Uiso   1.00
C797   C     0.81227   0.01461   0.74370   0.00000  Uiso   1.00
C798   C     0.83371   0.16550   0.83620   0.00000  Uiso   1.00
C799   C     0.83296   0.16783   0.66380   0.00000  Uiso   1.00
C800   C     0.80361   0.12869   0.59452   0.00000  Uiso   1.00
F801   F     0.77357   0.09237   0.61985   0.00000  Uiso   1.00
F802   F     0.89310   0.24096   0.88015   0.00000  Uiso   1.00
F803   F     0.90774   0.29579   0.54203   0.00000  Uiso   1.00
F804   F     0.75893   0.03754   0.95797   0.00000  Uiso   1.00
H805   H     0.90816   0.30457   0.66324   0.00000  Uiso   1.00
H806   H     0.75852   0.02875   0.83677   0.00000  Uiso   1.00
H807   H     0.88703   0.02748   0.91546   0.00000  Uiso   1.00
H808   H     0.77970   0.30586   0.58454   0.00000  Uiso   1.00
H809   H     0.97908   0.03689   0.79150   0.00000  Uiso   1.00
H810   H     0.68759   0.29646   0.70850   0.00000  Uiso   1.00
H811   H     0.68763   0.15396   0.63002   0.00000  Uiso   1.00
H812   H     0.97904   0.17936   0.86998   0.00000  Uiso   1.00
N813   N     0.98344   0.15265   0.73783   0.00000  Uiso   1.00
N814   N     0.68322   0.18068   0.76217   0.00000  Uiso   1.00
O815   O     0.79642   0.24619   0.75299   0.00000  Uiso   1.00
O816   O     0.87851   0.27981   0.64970   0.00000  Uiso   1.00
O817   O     0.71259   0.08474   0.89195   0.00000  Uiso   1.00
O818   O     0.78817   0.05351   0.85031   0.00000  Uiso   1.00
O819   O     0.95442   0.31849   0.95663   0.00000  Uiso   1.00
O820   O     0.86876   0.32706   0.92763   0.00000  Uiso   1.00
O821   O     0.71230   0.01480   0.54335   0.00000  Uiso   1.00
O822   O     0.79796   0.00628   0.57238   0.00000  Uiso   1.00
O823   O     0.89167  -0.00000   0.82663   0.00000  Uiso   1.00
O824   O     0.95195   0.02524   0.76778   0.00000  Uiso   1.00
O825   O     0.77501   0.33332   0.67337   0.00000  Uiso   1.00
O826   O     0.87025   0.08714   0.74702   0.00000  Uiso   1.00
O827   O     0.71471   0.30811   0.73223   0.00000  Uiso   1.00
O828   O     0.68870   0.09261   0.68916   0.00000  Uiso   1.00
O829   O     0.67359   0.17055   0.65957   0.00000  Uiso   1.00
O830   O     0.97797   0.24072   0.81085   0.00000  Uiso   1.00
O831   O     0.99307   0.16277   0.84043   0.00000  Uiso   1.00
O832   O     0.89280   0.23721   0.74519   0.00000  Uiso   1.00
O833   O     0.77387   0.09613   0.75482   0.00000  Uiso   1.00
O834   O     0.78514   0.17117   0.81998   0.00000  Uiso   1.00
O835   O     0.88153   0.16216   0.68003   0.00000  Uiso   1.00
O836   O     0.88152   0.16219   0.81218   0.00000  Uiso   1.00
O837   O     0.78515   0.17115   0.68783   0.00000  Uiso   1.00
O838   O     0.95408   0.24859   0.60805   0.00000  Uiso   1.00
Zn839  Zn    0.76898   0.17266   0.75521   0.00000  Uiso   1.00
Zn840  Zn    0.89769   0.16067   0.74479   0.00000  Uiso   1.00
C841   C     0.18147   0.59794   0.74965   0.00000  Uiso   1.00
C842   C     0.19639   0.53797   0.90548   0.00000  Uiso   1.00
C843   C     0.16592   0.50285   0.61612   0.00000  Uiso   1.00
C844   C     0.16741   0.49715   0.88388   0.00000  Uiso   1.00
C845   C     0.19857   0.54158   0.59252   0.00000  Uiso   1.00
C846   C     0.13476   0.45841   0.90748   0.00000  Uiso   1.00
C847   C     0.19619   0.54242   0.54579   0.00000  Uiso   1.00
C848   C     0.13715   0.45758   0.95421   0.00000  Uiso   1.00
C849   C     0.16730   0.50020   0.52341   0.00000  Uiso   1.00
C850   C     0.16604   0.49980   0.97659   0.00000  Uiso   1.00
C851   C     0.13982   0.45833   0.54787   0.00000  Uiso   1.00
C852   C     0.15186   0.40207   0.75035   0.00000  Uiso   1.00
C853   C     0.19352   0.54167   0.95213   0.00000  Uiso   1.00
C854   C     0.21990   0.58516   0.52120   0.00000  Uiso   1.00
C855   C     0.11344   0.41483   0.97880   0.00000  Uiso   1.00
C856   C     0.23582   0.57971   0.61697   0.00000  Uiso   1.00
C857   C     0.09752   0.42029   0.88303   0.00000  Uiso   1.00
C858   C     0.23906   0.63398   0.95229   0.00000  Uiso   1.00
C859   C     0.09432   0.36601   0.54771   0.00000  Uiso   1.00
C860   C     0.23318   0.33741   0.78614   0.00000  Uiso   1.00
C861   C     0.10016   0.66259   0.71386   0.00000  Uiso   1.00
C862   C     0.00651   0.47019   0.69525   0.00000  Uiso   1.00
C863   C     0.21823   0.58539   0.97491   0.00000  Uiso   1.00
C864   C     0.32682   0.52980   0.80475   0.00000  Uiso   1.00
C865   C     0.11512   0.41461   0.52509   0.00000  Uiso   1.00
C866   C     0.18773   0.65206   0.75630   0.00000  Uiso   1.00
C867   C     0.14561   0.34794   0.74370   0.00000  Uiso   1.00
C868   C     0.16704   0.49883   0.83620   0.00000  Uiso   1.00
C869   C     0.16629   0.50117   0.66380   0.00000  Uiso   1.00
C870   C     0.13694   0.46203   0.59452   0.00000  Uiso   1.00
F871   F     0.10690   0.42570   0.61985   0.00000  Uiso   1.00
F872   F     0.22643   0.57429   0.88015   0.00000  Uiso   1.00
F873   F     0.24107   0.62913   0.54203   0.00000  Uiso   1.00
F874   F     0.09227   0.37087   0.95797   0.00000  Uiso   1.00
H875   H     0.24149   0.63790   0.66324   0.00000  Uiso   1.00
H876   H     0.09186   0.36208   0.83677   0.00000  Uiso   1.00
H877   H     0.22037   0.36081   0.91546   0.00000  Uiso   1.00
H878   H     0.11304   0.63919   0.58454   0.00000  Uiso   1.00
H879   H     0.31241   0.37022   0.79150   0.00000  Uiso   1.00
H880   H     0.02092   0.62979   0.70850   0.00000  Uiso   1.00
H881   H     0.02096   0.48730   0.63002   0.00000  Uiso   1.00
H882   H     0.31237   0.51269   0.86998   0.00000  Uiso   1.00
N883   N     0.31678   0.48598   0.73783   0.00000  Uiso   1.00
N884   N     0.01656   0.51402   0.76217   0.00000  Uiso   1.00
O885   O     0.12975   0.57952   0.75299   0.00000  Uiso   1.00
O886   O     0.21184   0.61315   0.64970   0.00000  Uiso   1.00
O887   O     0.04593   0.41807   0.89195   0.00000  Uiso   1.00
O888   O     0.12151   0.38684   0.85031   0.00000  Uiso   1.00
O889   O     0.28775   0.65182   0.95663   0.00000  Uiso   1.00
O890   O     0.20209   0.66040   0.92763   0.00000  Uiso   1.00
O891   O     0.04563   0.34813   0.54335   0.00000  Uiso   1.00
O892   O     0.13129   0.33962   0.57238   0.00000  Uiso   1.00
O893   O     0.22500   0.33333   0.82663   0.00000  Uiso   1.00
O894   O     0.28528   0.35858   0.76778   0.00000  Uiso   1.00
O895   O     0.10834   0.66665   0.67337   0.00000  Uiso   1.00
O896   O     0.20358   0.42048   0.74702   0.00000  Uiso   1.00
O897   O     0.04805   0.64144   0.73223   0.00000  Uiso   1.00
O898   O     0.02204   0.42594   0.68916   0.00000  Uiso   1.00
O899   O     0.00693   0.50389   0.65957   0.00000  Uiso   1.00
O900   O     0.31130   0.57406   0.81085   0.00000  Uiso   1.00
O901   O     0.32641   0.49610   0.84043   0.00000  Uiso   1.00
O902   O     0.22613   0.57054   0.74519   0.00000  Uiso   1.00
O903   O     0.10720   0.42946   0.75482   0.00000  Uiso   1.00
O904   O     0.11847   0.50450   0.81998   0.00000  Uiso   1.00
O905   O     0.21486   0.49550   0.68003   0.00000  Uiso   1.00
O906   O     0.21485   0.49552   0.81218   0.00000  Uiso   1.00
O907   O     0.11848   0.50448   0.68783   0.00000  Uiso   1.00
O908   O     0.28741   0.58193   0.60805   0.00000  Uiso   1.00
Zn909  Zn    0.10231   0.50600   0.75521   0.00000  Uiso   1.00
Zn910  Zn    0.23102   0.49400   0.74479   0.00000  Uiso   1.00
C911   C     0.51480   0.59794   0.74965   0.00000  Uiso   1.00
C912   C     0.52973   0.53797   0.90548   0.00000  Uiso   1.00
C913   C     0.49925   0.50285   0.61612   0.00000  Uiso   1.00
C914   C     0.50075   0.49715   0.88388   0.00000  Uiso   1.00
C915   C     0.53191   0.54158   0.59252   0.00000  Uiso   1.00
C916   C     0.46809   0.45841   0.90748   0.00000  Uiso   1.00
C917   C     0.52952   0.54242   0.54579   0.00000  Uiso   1.00
C918   C     0.47048   0.45758   0.95421   0.00000  Uiso   1.00
C919   C     0.50063   0.50020   0.52341   0.00000  Uiso   1.00
C920   C     0.49937   0.49980   0.97659   0.00000  Uiso   1.00
C921   C     0.47315   0.45833   0.54787   0.00000  Uiso   1.00
C922   C     0.48520   0.40207   0.75035   0.00000  Uiso   1.00
C923   C     0.52685   0.54167   0.95213   0.00000  Uiso   1.00
C924   C     0.55324   0.58516   0.52120   0.00000  Uiso   1.00
C925   C     0.44677   0.41483   0.97880   0.00000  Uiso   1.00
C926   C     0.56915   0.57971   0.61697   0.00000  Uiso   1.00
C927   C     0.43085   0.42029   0.88303   0.00000  Uiso   1.00
C928   C     0.57239   0.63398   0.95229   0.00000  Uiso   1.00
C929   C     0.42765   0.36601   0.54771   0.00000  Uiso   1.00
C930   C     0.56651   0.33741   0.78614   0.00000  Uiso   1.00
C931   C     0.43349   0.66259   0.71386   0.00000  Uiso   1.00
C932   C     0.33984   0.47019   0.69525   0.00000  Uiso   1.00
C933   C     0.55156   0.58539   0.97491   0.00000  Uiso   1.00
C934   C     0.66016   0.52980   0.80475   0.00000  Uiso   1.00
C935   C     0.44845   0.41461   0.52509   0.00000  Uiso   1.00
C936   C     0.52106   0.65206   0.75630   0.00000  Uiso   1.00
C937   C     0.47894   0.34794   0.74370   0.00000  Uiso   1.00
C938   C     0.50038   0.49883   0.83620   0.00000  Uiso   1.00
C939   C     0.49962   0.50117   0.66380   0.00000  Uiso   1.00
C940   C     0.47028   0.46203   0.59452   0.00000  Uiso   1.00
F941   F     0.44024   0.42570   0.61985   0.00000  Uiso   1.00
F942   F     0.55976   0.57429   0.88015   0.00000  Uiso   1.00
F943   F     0.57441   0.62913   0.54203   0.00000  Uiso   1.00
F944   F     0.42560   0.37087   0.95797   0.00000  Uiso   1.00
H945   H     0.57483   0.63790   0.66324   0.00000  Uiso   1.00
H946   H     0.42519   0.36208   0.83677   0.00000  Uiso   1.00
H947   H     0.55370   0.36081   0.91546   0.00000  Uiso   1.00
H948   H     0.44637   0.63919   0.58454   0.00000  Uiso   1.00
H949   H     0.64574   0.37022   0.79150   0.00000  Uiso   1.00
H950   H     0.35425   0.62979   0.70850   0.00000  Uiso   1.00
H951   H     0.35430   0.48730   0.63002   0.00000  Uiso   1.00
H952   H     0.64570   0.51269   0.86998   0.00000  Uiso   1.00
N953   N     0.65011   0.48598   0.73783   0.00000  Uiso   1.00
N954   N     0.34989   0.51402   0.76217   0.00000  Uiso   1.00
O955   O     0.46308   0.57952   0.75299   0.00000  Uiso   1.00
O956   O     0.54517   0.61315   0.64970   0.00000  Uiso   1.00
O957   O     0.37926   0.41807   0.89195   0.00000  Uiso   1.00
O958   O     0.45484   0.38684   0.85031   0.00000  Uiso   1.00
O959   O     0.62109   0.65182   0.95663   0.00000  Uiso   1.00
O960   O     0.53542   0.66040   0.92763   0.00000  Uiso   1.00
O961   O     0.37897   0.34813   0.54335   0.00000  Uiso   1.00
O962   O     0.46463   0.33962   0.57238   0.00000  Uiso   1.00
O963   O     0.55833   0.33333   0.82663   0.00000  Uiso   1.00
O964   O     0.61861   0.35858   0.76778   0.00000  Uiso   1.00
O965   O     0.44167   0.66665   0.67337   0.00000  Uiso   1.00
O966   O     0.53692   0.42048   0.74702   0.00000  Uiso   1.00
O967   O     0.38138   0.64144   0.73223   0.00000  Uiso   1.00
O968   O     0.35537   0.42594   0.68916   0.00000  Uiso   1.00
O969   O     0.34026   0.50389   0.65957   0.00000  Uiso   1.00
O970   O     0.64463   0.57406   0.81085   0.00000  Uiso   1.00
O971   O     0.65974   0.49610   0.84043   0.00000  Uiso   1.00
O972   O     0.55946   0.57054   0.74519   0.00000  Uiso   1.00
O973   O     0.44054   0.42946   0.75482   0.00000  Uiso   1.00
O974   O     0.45181   0.50450   0.81998   0.00000  Uiso   1.00
O975   O     0.54819   0.49550   0.68003   0.00000  Uiso   1.00
O976   O     0.54819   0.49552   0.81218   0.00000  Uiso   1.00
O977   O     0.45181   0.50448   0.68783   0.00000  Uiso   1.00
O978   O     0.62075   0.58193   0.60805   0.00000  Uiso   1.00
Zn979  Zn    0.43565   0.50600   0.75521   0.00000  Uiso   1.00
Zn980  Zn    0.56435   0.49400   0.74479   0.00000  Uiso   1.00
C981   C     0.84814   0.59794   0.74965   0.00000  Uiso   1.00
C982   C     0.86306   0.53797   0.90548   0.00000  Uiso   1.00
C983   C     0.83259   0.50285   0.61612   0.00000  Uiso   1.00
C984   C     0.83408   0.49715   0.88388   0.00000  Uiso   1.00
C985   C     0.86524   0.54158   0.59252   0.00000  Uiso   1.00
C986   C     0.80143   0.45841   0.90748   0.00000  Uiso   1.00
C987   C     0.86286   0.54242   0.54579   0.00000  Uiso   1.00
C988   C     0.80381   0.45758   0.95421   0.00000  Uiso   1.00
C989   C     0.83397   0.50020   0.52341   0.00000  Uiso   1.00
C990   C     0.83270   0.49980   0.97659   0.00000  Uiso   1.00
C991   C     0.80649   0.45833   0.54787   0.00000  Uiso   1.00
C992   C     0.81853   0.40207   0.75035   0.00000  Uiso   1.00
C993   C     0.86018   0.54167   0.95213   0.00000  Uiso   1.00
C994   C     0.88657   0.58516   0.52120   0.00000  Uiso   1.00
C995   C     0.78010   0.41483   0.97880   0.00000  Uiso   1.00
C996   C     0.90249   0.57971   0.61697   0.00000  Uiso   1.00
C997   C     0.76419   0.42029   0.88303   0.00000  Uiso   1.00
C998   C     0.90572   0.63398   0.95229   0.00000  Uiso   1.00
C999   C     0.76098   0.36601   0.54771   0.00000  Uiso   1.00
C1000  C     0.89984   0.33741   0.78614   0.00000  Uiso   1.00
C1001  C     0.76683   0.66259   0.71386   0.00000  Uiso   1.00
C1002  C     0.67318   0.47019   0.69525   0.00000  Uiso   1.00
C1003  C     0.88490   0.58539   0.97491   0.00000  Uiso   1.00
C1004  C     0.99349   0.52980   0.80475   0.00000  Uiso   1.00
C1005  C     0.78178   0.41461   0.52509   0.00000  Uiso   1.00
C1006  C     0.85439   0.65206   0.75630   0.00000  Uiso   1.00
C1007  C     0.81227   0.34794   0.74370   0.00000  Uiso   1.00
C1008  C     0.83371   0.49883   0.83620   0.00000  Uiso   1.00
C1009  C     0.83296   0.50117   0.66380   0.00000  Uiso   1.00
C1010  C     0.80361   0.46203   0.59452   0.00000  Uiso   1.00
F1011  F     0.77357   0.42570   0.61985   0.00000  Uiso   1.00
F1012  F     0.89310   0.57429   0.88015   0.00000  Uiso   1.00
F1013  F     0.90774   0.62913   0.54203   0.00000  Uiso   1.00
F1014  F     0.75893   0.37087   0.95797   0.00000  Uiso   1.00
H1015  H     0.90816   0.63790   0.66324   0.00000  Uiso   1.00
H1016  H     0.75852   0.36208   0.83677   0.00000  Uiso   1.00
H1017  H     0.88703   0.36081   0.91546   0.00000  Uiso   1.00
H1018  H     0.77970   0.63919   0.58454   0.00000  Uiso   1.00
H1019  H     0.97908   0.37022   0.79150   0.00000  Uiso   1.00
H1020  H     0.68759   0.62979   0.70850   0.00000  Uiso   1.00
H1021  H     0.68763   0.48730   0.63002   0.00000  Uiso   1.00
H1022  H     0.97904   0.51269   0.86998   0.00000  Uiso   1.00
N1023  N     0.98344   0.48598   0.73783   0.00000  Uiso   1.00
N1024  N     0.68322   0.51402   0.76217   0.00000  Uiso   1.00
O1025  O     0.79642   0.57952   0.75299   0.00000  Uiso   1.00
O1026  O     0.87851   0.61315   0.64970   0.00000  Uiso   1.00
O1027  O     0.71259   0.41807   0.89195   0.00000  Uiso   1.00
O1028  O     0.78817   0.38684   0.85031   0.00000  Uiso   1.00
O1029  O     0.95442   0.65182   0.95663   0.00000  Uiso   1.00
O1030  O     0.86876   0.66040   0.92763   0.00000  Uiso   1.00
O1031  O     0.71230   0.34813   0.54335   0.00000  Uiso   1.00
O1032  O     0.79796   0.33962   0.57238   0.00000  Uiso   1.00
O1033  O     0.89167   0.33333   0.82663   0.00000  Uiso   1.00
O1034  O     0.95195   0.35858   0.76778   0.00000  Uiso   1.00
O1035  O     0.77501   0.66665   0.67337   0.00000  Uiso   1.00
O1036  O     0.87025   0.42048   0.74702   0.00000  Uiso   1.00
O1037  O     0.71471   0.64144   0.73223   0.00000  Uiso   1.00
O1038  O     0.68870   0.42594   0.68916   0.00000  Uiso   1.00
O1039  O     0.67359   0.50389   0.65957   0.00000  Uiso   1.00
O1040  O     0.97797   0.57406   0.81085   0.00000  Uiso   1.00
O1041  O     0.99307   0.49610   0.84043   0.00000  Uiso   1.00
O1042  O     0.89280   0.57054   0.74519   0.00000  Uiso   1.00
O1043  O     0.77387   0.42946   0.75482   0.00000  Uiso   1.00
O1044  O     0.78514   0.50450   0.81998   0.00000  Uiso   1.00
O1045  O     0.88153   0.49550   0.68003   0.00000  Uiso   1.00
O1046  O     0.88152   0.49552   0.81218   0.00000  Uiso   1.00
O1047  O     0.78515   0.50448   0.68783   0.00000  Uiso   1.00
O1048  O     0.95408   0.58193   0.60805   0.00000  Uiso   1.00
Zn1049 Zn    0.76898   0.50600   0.75521   0.00000  Uiso   1.00
Zn1050 Zn    0.89769   0.49400   0.74479   0.00000  Uiso   1.00
C1051  C     0.18147   0.93127   0.74965   0.00000  Uiso   1.00
C1052  C     0.19639   0.87131   0.90548   0.00000  Uiso   1.00
C1053  C     0.16592   0.83618   0.61612   0.00000  Uiso   1.00
C1054  C     0.16741   0.83048   0.88388   0.00000  Uiso   1.00
C1055  C     0.19857   0.87492   0.59252   0.00000  Uiso   1.00
C1056  C     0.13476   0.79175   0.90748   0.00000  Uiso   1.00
C1057  C     0.19619   0.87575   0.54579   0.00000  Uiso   1.00
C1058  C     0.13715   0.79092   0.95421   0.00000  Uiso   1.00
C1059  C     0.16730   0.83353   0.52341   0.00000  Uiso   1.00
C1060  C     0.16604   0.83313   0.97659   0.00000  Uiso   1.00
C1061  C     0.13982   0.79166   0.54787   0.00000  Uiso   1.00
C1062  C     0.15186   0.73540   0.75035   0.00000  Uiso   1.00
C1063  C     0.19352   0.87500   0.95213   0.00000  Uiso   1.00
C1064  C     0.21990   0.91850   0.52120   0.00000  Uiso   1.00
C1065  C     0.11344   0.74817   0.97880   0.00000  Uiso   1.00
C1066  C     0.23582   0.91304   0.61697   0.00000  Uiso   1.00
C1067  C     0.09752   0.75362   0.88303   0.00000  Uiso   1.00
C1068  C     0.23906   0.96731   0.95229   0.00000  Uiso   1.00
C1069  C     0.09432   0.69934   0.54771   0.00000  Uiso   1.00
C1070  C     0.23318   0.67075   0.78614   0.00000  Uiso   1.00
C1071  C     0.10016   0.99592   0.71386   0.00000  Uiso   1.00
C1072  C     0.00651   0.80352   0.69525   0.00000  Uiso   1.00
C1073  C     0.21823   0.91872   0.97491   0.00000  Uiso   1.00
C1074  C     0.32682   0.86314   0.80475   0.00000  Uiso   1.00
C1075  C     0.11512   0.74794   0.52509   0.00000  Uiso   1.00
C1076  C     0.18773   0.98539   0.75630   0.00000  Uiso   1.00
C1077  C     0.14561   0.68128   0.74370   0.00000  Uiso   1.00
C1078  C     0.16704   0.83217   0.83620   0.00000  Uiso   1.00
C1079  C     0.16629   0.83450   0.66380   0.00000  Uiso   1.00
C1080  C     0.13694   0.79536   0.59452   0.00000  Uiso   1.00
F1081  F     0.10690   0.75904   0.61985   0.00000  Uiso   1.00
F1082  F     0.22643   0.90763   0.88015   0.00000  Uiso   1.00
F1083  F     0.24107   0.96246   0.54203   0.00000  Uiso   1.00
F1084  F     0.09227   0.70420   0.95797   0.00000  Uiso   1.00
H1085  H     0.24149   0.97124   0.66324   0.00000  Uiso   1.00
H1086  H     0.09186   0.69542   0.83677   0.00000  Uiso   1.00
H1087  H     0.22037   0.69414   0.91546   0.00000  Uiso   1.00
H1088  H     0.11304   0.97253   0.58454   0.00000  Uiso   1.00
H1089  H     0.31241   0.70356   0.79150   0.00000  Uiso   1.00
H1090  H     0.02092   0.96312   0.70850   0.00000  Uiso   1.00
H1091  H     0.02096   0.82063   0.63002   0.00000  Uiso   1.00
H1092  H     0.31237   0.84602   0.86998   0.00000  Uiso   1.00
N1093  N     0.31678   0.81932   0.73783   0.00000  Uiso   1.00
N1094  N     0.01656   0.84735   0.76217   0.00000  Uiso   1.00
O1095  O     0.12975   0.91286   0.75299   0.00000  Uiso   1.00
O1096  O     0.21184   0.94648   0.64970   0.00000  Uiso   1.00
O1097  O     0.04593   0.75141   0.89195   0.00000  Uiso   1.00
O1098  O     0.12151   0.72018   0.85031   0.00000  Uiso   1.00
O1099  O     0.28775   0.98516   0.95663   0.00000  Uiso   1.00
O1100  O     0.20209   0.99373   0.92763   0.00000  Uiso   1.00
O1101  O     0.04563   0.68147   0.54335   0.00000  Uiso   1.00
O1102  O     0.13129   0.67295   0.57238   0.00000  Uiso   1.00
O1103  O     0.22500   0.66666   0.82663   0.00000  Uiso   1.00
O1104  O     0.28528   0.69191   0.76778   0.00000  Uiso   1.00
O1105  O     0.10834   0.99998   0.67337   0.00000  Uiso   1.00
O1106  O     0.20358   0.75381   0.74702   0.00000  Uiso   1.00
O1107  O     0.04805   0.97477   0.73223   0.00000  Uiso   1.00
O1108  O     0.02204   0.75927   0.68916   0.00000  Uiso   1.00
O1109  O     0.00693   0.83722   0.65957   0.00000  Uiso   1.00
O1110  O     0.31130   0.90739   0.81085   0.00000  Uiso   1.00
O1111  O     0.32641   0.82944   0.84043   0.00000  Uiso   1.00
O1112  O     0.22613   0.90387   0.74519   0.00000  Uiso   1.00
O1113  O     0.10720   0.76279   0.75482   0.00000  Uiso   1.00
O1114  O     0.11847   0.83784   0.81998   0.00000  Uiso   1.00
O1115  O     0.21486   0.82883   0.68003   0.00000  Uiso   1.00
O1116  O     0.21485   0.82885   0.81218   0.00000  Uiso   1.00
O1117  O     0.11848   0.83781   0.68783   0.00000  Uiso   1.00
O1118  O     0.28741   0.91526   0.60805   0.00000  Uiso   1.00
Zn1119 Zn    0.10231   0.83933   0.75521   0.00000  Uiso   1.00
Zn1120 Zn    0.23102   0.82734   0.74479   0.00000  Uiso   1.00
C1121  C     0.51480   0.93127   0.74965   0.00000  Uiso   1.00
C1122  C     0.52973   0.87131   0.90548   0.00000  Uiso   1.00
C1123  C     0.49925   0.83618   0.61612   0.00000  Uiso   1.00
C1124  C     0.50075   0.83048   0.88388   0.00000  Uiso   1.00
C1125  C     0.53191   0.87492   0.59252   0.00000  Uiso   1.00
C1126  C     0.46809   0.79175   0.90748   0.00000  Uiso   1.00
C1127  C     0.52952   0.87575   0.54579   0.00000  Uiso   1.00
C1128  C     0.47048   0.79092   0.95421   0.00000  Uiso   1.00
C1129  C     0.50063   0.83353   0.52341   0.00000  Uiso   1.00
C1130  C     0.49937   0.83313   0.97659   0.00000  Uiso   1.00
C1131  C     0.47315   0.79166   0.54787   0.00000  Uiso   1.00
C1132  C     0.48520   0.73540   0.75035   0.00000  Uiso   1.00
C1133  C     0.52685   0.87500   0.95213   0.00000  Uiso   1.00
C1134  C     0.55324   0.91850   0.52120   0.00000  Uiso   1.00
C1135  C     0.44677   0.74817   0.97880   0.00000  Uiso   1.00
C1136  C     0.56915   0.91304   0.61697   0.00000  Uiso   1.00
C1137  C     0.43085   0.75362   0.88303   0.00000  Uiso   1.00
C1138  C     0.57239   0.96731   0.95229   0.00000  Uiso   1.00
C1139  C     0.42765   0.69934   0.54771   0.00000  Uiso   1.00
C1140  C     0.56651   0.67075   0.78614   0.00000  Uiso   1.00
C1141  C     0.43349   0.99592   0.71386   0.00000  Uiso   1.00
C1142  C     0.33984   0.80352   0.69525   0.00000  Uiso   1.00
C1143  C     0.55156   0.91872   0.97491   0.00000  Uiso   1.00
C1144  C     0.66016   0.86314   0.80475   0.00000  Uiso   1.00
C1145  C     0.44845   0.74794   0.52509   0.00000  Uiso   1.00
C1146  C     0.52106   0.98539   0.75630   0.00000  Uiso   1.00
C1147  C     0.47894   0.68128   0.74370   0.00000  Uiso   1.00
C1148  C     0.50038   0.83217   0.83620   0.00000  Uiso   1.00
C1149  C     0.49962   0.83450   0.66380   0.00000  Uiso   1.00
C1150  C     0.47028   0.79536   0.59452   0.00000  Uiso   1.00
F1151  F     0.44024   0.75904   0.61985   0.00000  Uiso   1.00
F1152  F     0.55976   0.90763   0.88015   0.00000  Uiso   1.00
F1153  F     0.57441   0.96246   0.54203   0.00000  Uiso   1.00
F1154  F     0.42560   0.70420   0.95797   0.00000  Uiso   1.00
H1155  H     0.57483   0.97124   0.66324   0.00000  Uiso   1.00
H1156  H     0.42519   0.69542   0.83677   0.00000  Uiso   1.00
H1157  H     0.55370   0.69414   0.91546   0.00000  Uiso   1.00
H1158  H     0.44637   0.97253   0.58454   0.00000  Uiso   1.00
H1159  H     0.64574   0.70356   0.79150   0.00000  Uiso   1.00
H1160  H     0.35425   0.96312   0.70850   0.00000  Uiso   1.00
H1161  H     0.35430   0.82063   0.63002   0.00000  Uiso   1.00
H1162  H     0.64570   0.84602   0.86998   0.00000  Uiso   1.00
N1163  N     0.65011   0.81932   0.73783   0.00000  Uiso   1.00
N1164  N     0.34989   0.84735   0.76217   0.00000  Uiso   1.00
O1165  O     0.46308   0.91286   0.75299   0.00000  Uiso   1.00
O1166  O     0.54517   0.94648   0.64970   0.00000  Uiso   1.00
O1167  O     0.37926   0.75141   0.89195   0.00000  Uiso   1.00
O1168  O     0.45484   0.72018   0.85031   0.00000  Uiso   1.00
O1169  O     0.62109   0.98516   0.95663   0.00000  Uiso   1.00
O1170  O     0.53542   0.99373   0.92763   0.00000  Uiso   1.00
O1171  O     0.37897   0.68147   0.54335   0.00000  Uiso   1.00
O1172  O     0.46463   0.67295   0.57238   0.00000  Uiso   1.00
O1173  O     0.55833   0.66666   0.82663   0.00000  Uiso   1.00
O1174  O     0.61861   0.69191   0.76778   0.00000  Uiso   1.00
O1175  O     0.44167   0.99998   0.67337   0.00000  Uiso   1.00
O1176  O     0.53692   0.75381   0.74702   0.00000  Uiso   1.00
O1177  O     0.38138   0.97477   0.73223   0.00000  Uiso   1.00
O1178  O     0.35537   0.75927   0.68916   0.00000  Uiso   1.00
O1179  O     0.34026   0.83722   0.65957   0.00000  Uiso   1.00
O1180  O     0.64463   0.90739   0.81085   0.00000  Uiso   1.00
O1181  O     0.65974   0.82944   0.84043   0.00000  Uiso   1.00
O1182  O     0.55946   0.90387   0.74519   0.00000  Uiso   1.00
O1183  O     0.44054   0.76279   0.75482   0.00000  Uiso   1.00
O1184  O     0.45181   0.83784   0.81998   0.00000  Uiso   1.00
O1185  O     0.54819   0.82883   0.68003   0.00000  Uiso   1.00
O1186  O     0.54819   0.82885   0.81218   0.00000  Uiso   1.00
O1187  O     0.45181   0.83781   0.68783   0.00000  Uiso   1.00
O1188  O     0.62075   0.91526   0.60805   0.00000  Uiso   1.00
Zn1189 Zn    0.43565   0.83933   0.75521   0.00000  Uiso   1.00
Zn1190 Zn    0.56435   0.82734   0.74479   0.00000  Uiso   1.00
C1191  C     0.84814   0.93127   0.74965   0.00000  Uiso   1.00
C1192  C     0.86306   0.87131   0.90548   0.00000  Uiso   1.00
C1193  C     0.83259   0.83618   0.61612   0.00000  Uiso   1.00
C1194  C     0.83408   0.83048   0.88388   0.00000  Uiso   1.00
C1195  C     0.86524   0.87492   0.59252   0.00000  Uiso   1.00
C1196  C     0.80143   0.79175   0.90748   0.00000  Uiso   1.00
C1197  C     0.86286   0.87575   0.54579   0.00000  Uiso   1.00
C1198  C     0.80381   0.79092   0.95421   0.00000  Uiso   1.00
C1199  C     0.83397   0.83353   0.52341   0.00000  Uiso   1.00
C1200  C     0.83270   0.83313   0.97659   0.00000  Uiso   1.00
C1201  C     0.80649   0.79166   0.54787   0.00000  Uiso   1.00
C1202  C     0.81853   0.73540   0.75035   0.00000  Uiso   1.00
C1203  C     0.86018   0.87500   0.95213   0.00000  Uiso   1.00
C1204  C     0.88657   0.91850   0.52120   0.00000  Uiso   1.00
C1205  C     0.78010   0.74817   0.97880   0.00000  Uiso   1.00
C1206  C     0.90249   0.91304   0.61697   0.00000  Uiso   1.00
C1207  C     0.76419   0.75362   0.88303   0.00000  Uiso   1.00
C1208  C     0.90572   0.96731   0.95229   0.00000  Uiso   1.00
C1209  C     0.76098   0.69934   0.54771   0.00000  Uiso   1.00
C1210  C     0.89984   0.67075   0.78614   0.00000  Uiso   1.00
C1211  C     0.76683   0.99592   0.71386   0.00000  Uiso   1.00
C1212  C     0.67318   0.80352   0.69525   0.00000  Uiso   1.00
C1213  C     0.88490   0.91872   0.97491   0.00000  Uiso   1.00
C1214  C     0.99349   0.86314   0.80475   0.00000  Uiso   1.00
C1215  C     0.78178   0.74794   0.52509   0.00000  Uiso   1.00
C1216  C     0.85439   0.98539   0.75630   0.00000  Uiso   1.00
C1217  C     0.81227   0.68128   0.74370   0.00000  Uiso   1.00
C1218  C     0.83371   0.83217   0.83620   0.00000  Uiso   1.00
C1219  C     0.83296   0.83450   0.66380   0.00000  Uiso   1.00
C1220  C     0.80361   0.79536   0.59452   0.00000  Uiso   1.00
F1221  F     0.77357   0.75904   0.61985   0.00000  Uiso   1.00
F1222  F     0.89310   0.90763   0.88015   0.00000  Uiso   1.00
F1223  F     0.90774   0.96246   0.54203   0.00000  Uiso   1.00
F1224  F     0.75893   0.70420   0.95797   0.00000  Uiso   1.00
H1225  H     0.90816   0.97124   0.66324   0.00000  Uiso   1.00
H1226  H     0.75852   0.69542   0.83677   0.00000  Uiso   1.00
H1227  H     0.88703   0.69414   0.91546   0.00000  Uiso   1.00
H1228  H     0.77970   0.97253   0.58454   0.00000  Uiso   1.00
H1229  H     0.97908   0.70356   0.79150   0.00000  Uiso   1.00
H1230  H     0.68759   0.96312   0.70850   0.00000  Uiso   1.00
H1231  H     0.68763   0.82063   0.63002   0.00000  Uiso   1.00
H1232  H     0.97904   0.84602   0.86998   0.00000  Uiso   1.00
N1233  N     0.98344   0.81932   0.73783   0.00000  Uiso   1.00
N1234  N     0.68322   0.84735   0.76217   0.00000  Uiso   1.00
O1235  O     0.79642   0.91286   0.75299   0.00000  Uiso   1.00
O1236  O     0.87851   0.94648   0.64970   0.00000  Uiso   1.00
O1237  O     0.71259   0.75141   0.89195   0.00000  Uiso   1.00
O1238  O     0.78817   0.72018   0.85031   0.00000  Uiso   1.00
O1239  O     0.95442   0.98516   0.95663   0.00000  Uiso   1.00
O1240  O     0.86876   0.99373   0.92763   0.00000  Uiso   1.00
O1241  O     0.71230   0.68147   0.54335   0.00000  Uiso   1.00
O1242  O     0.79796   0.67295   0.57238   0.00000  Uiso   1.00
O1243  O     0.89167   0.66666   0.82663   0.00000  Uiso   1.00
O1244  O     0.95195   0.69191   0.76778   0.00000  Uiso   1.00
O1245  O     0.77501   0.99998   0.67337   0.00000  Uiso   1.00
O1246  O     0.87025   0.75381   0.74702   0.00000  Uiso   1.00
O1247  O     0.71471   0.97477   0.73223   0.00000  Uiso   1.00
O1248  O     0.68870   0.75927   0.68916   0.00000  Uiso   1.00
O1249  O     0.67359   0.83722   0.65957   0.00000  Uiso   1.00
O1250  O     0.97797   0.90739   0.81085   0.00000  Uiso   1.00
O1251  O     0.99307   0.82944   0.84043   0.00000  Uiso   1.00
O1252  O     0.89280   0.90387   0.74519   0.00000  Uiso   1.00
O1253  O     0.77387   0.76279   0.75482   0.00000  Uiso   1.00
O1254  O     0.78514   0.83784   0.81998   0.00000  Uiso   1.00
O1255  O     0.88153   0.82883   0.68003   0.00000  Uiso   1.00
O1256  O     0.88152   0.82885   0.81218   0.00000  Uiso   1.00
O1257  O     0.78515   0.83781   0.68783   0.00000  Uiso   1.00
O1258  O     0.95408   0.91526   0.60805   0.00000  Uiso   1.00
Zn1259 Zn    0.76898   0.83933   0.75521   0.00000  Uiso   1.00
Zn1260 Zn    0.89769   0.82734   0.74479   0.00000  Uiso   1.00
loop_
_geom_bond_atom_site_label_1
_geom_bond_atom_site_label_2
_geom_bond_distance
_geom_bond_site_symmetry_2
_ccdc_geom_bond_type
C1     O62     1.296   .     A
C1     O45     1.278   .     A
C1     C26     1.402   .     S
C2     C4      1.386   .     A
C2     C13     1.394   .     A
C2     F32     1.358   .     S
C3     C30     1.386   .     A
C3     C29     1.430   .     S
C3     C5      1.402   .     A
C4     C28     1.430   .     S
C4     C6      1.402   .     A
C5     C7      1.405   .     A
C5     C16     1.487   .     S
C6     C17     1.487   .     S
C6     C8      1.405   .     A
C7     C14     1.410   .     A
C7     C9      1.422   .     A
C8     C15     1.410   .     A
C8     C10     1.422   .     A
C9     C11     1.422   .     A
C9     C640    1.404   1_554 S
C10    C13     1.422   .     A
C10    C639    1.404   .     S
C11    C25     1.414   .     A
C11    C30     1.394   .     A
C12    O56     1.278   .     A
C12    C27     1.402   .     S
C12    O63     1.296   .     A
C13    C23     1.414   .     A
C14    F33     1.361   .     S
C14    C653    1.389   1_554 S
C15    F34     1.361   .     S
C15    C655    1.389   .     S
C16    O68     1.223   .     D
C16    O46     1.395   .     S
C17    O48     1.395   .     S
C17    O47     1.223   .     D
C18    O49     1.223   .     D
C18    O50     1.398   .     S
C18    C23     1.484   .     S
C19    C25     1.484   .     S
C19    O51     1.223   .     D
C19    O52     1.398   .     S
C20    O54     1.397   .     S
C20    C446    1.489   1_545 S
C20    O53     1.221   .     S
C21    O57     1.397   .     S
C21    O55     1.221   .     D
C21    C237    1.489   .     S
C22    O58     1.221   .     D
C22    O59     1.397   .     S
C22    N183    1.408   1_455 S
C23    C644    1.389   .     S
C24    O61     1.397   .     S
C24    O60     1.221   .     D
C24    N114    1.408   .     S
C25    C645    1.389   1_554 S
C26    C230    1.489   .     S
C26    C237    1.359   .     S
C27    C446    1.359   1_545 S
C27    C441    1.489   1_545 S
C28    O66     1.298   .     A
C28    O64     1.290   .     A
C29    O65     1.290   .     A
C29    O67     1.298   .     A
C30    F31     1.358   .     S
H35    O46     1.014   .     S
H36    O48     1.014   .     S
H37    O470    1.014   1_545 S
H38    O262    1.014   .     S
H39    O54     1.014   .     S
H40    O57     1.014   .     S
H41    O59     1.013   .     S
H42    O61     1.013   .     S
N43    Zn70    2.036   .     S
N43    C92     1.408   .     S
N43    N114    1.280   .     S
N44    Zn69    2.036   .     S
N44    N183    1.280   1_455 S
N44    C164    1.408   1_455 S
O45    Zn69    1.966   .     S
O50    H247    1.014   .     S
O52    H458    1.014   1_545 S
O56    Zn70    1.966   .     S
O62    Zn70    1.980   .     S
O63    Zn69    1.980   .     S
O64    Zn69    2.004   .     S
O65    Zn70    2.004   .     S
O66    Zn70    2.027   .     S
O67    Zn69    2.027   .     S
C71    O132    1.296   .     A
C71    O115    1.278   .     A
C71    C96     1.402   .     S
C72    C74     1.386   .     A
C72    C83     1.394   .     A
C72    F102    1.358   .     S
C73    C100    1.386   .     A
C73    C99     1.430   .     S
C73    C75     1.402   .     A
C74    C98     1.430   .     S
C74    C76     1.402   .     A
C75    C77     1.405   .     A
C75    C86     1.487   .     S
C76    C87     1.487   .     S
C76    C78     1.405   .     A
C77    C84     1.410   .     A
C77    C79     1.422   .     A
C78    C85     1.410   .     A
C78    C80     1.422   .     A
C79    C81     1.422   .     A
C79    C710    1.404   1_554 S
C80    C83     1.422   .     A
C80    C709    1.404   .     S
C81    C95     1.414   .     A
C81    C100    1.394   .     A
C82    O126    1.278   .     A
C82    C97     1.402   .     S
C82    O133    1.296   .     A
C83    C93     1.414   .     A
C84    F103    1.361   .     S
C84    C723    1.389   1_554 S
C85    F104    1.361   .     S
C85    C725    1.389   .     S
C86    O138    1.223   .     D
C86    O116    1.395   .     S
C87    O118    1.395   .     S
C87    O117    1.223   .     D
C88    O119    1.223   .     D
C88    O120    1.398   .     S
C88    C93     1.484   .     S
C89    C95     1.484   .     S
C89    O121    1.223   .     D
C89    O122    1.398   .     S
C90    O124    1.397   .     S
C90    C516    1.489   1_545 S
C90    O123    1.221   .     S
C91    O127    1.397   .     S
C91    O125    1.221   .     D
C91    C307    1.489   .     S
C92    O128    1.221   .     D
C92    O129    1.397   .     S
C93    C714    1.389   .     S
C94    O131    1.397   .     S
C94    O130    1.221   .     D
C94    N184    1.408   .     S
C95    C715    1.389   1_554 S
C96    C300    1.489   .     S
C96    C307    1.359   .     S
C97    C516    1.359   1_545 S
C97    C511    1.489   1_545 S
C98    O136    1.298   .     A
C98    O134    1.290   .     A
C99    O135    1.290   .     A
C99    O137    1.298   .     A
C100   F101    1.358   .     S
H105   O116    1.014   .     S
H106   O118    1.014   .     S
H107   O540    1.014   1_545 S
H108   O332    1.014   .     S
H109   O124    1.014   .     S
H110   O127    1.014   .     S
H111   O129    1.013   .     S
H112   O131    1.013   .     S
N113   Zn140   2.036   .     S
N113   C162    1.408   .     S
N113   N184    1.280   .     S
N114   Zn139   2.036   .     S
O115   Zn139   1.966   .     S
O120   H317    1.014   .     S
O122   H528    1.014   1_545 S
O126   Zn140   1.966   .     S
O132   Zn140   1.980   .     S
O133   Zn139   1.980   .     S
O134   Zn139   2.004   .     S
O135   Zn140   2.004   .     S
O136   Zn140   2.027   .     S
O137   Zn139   2.027   .     S
C141   O202    1.296   .     A
C141   O185    1.278   .     A
C141   C166    1.402   .     S
C142   C144    1.386   .     A
C142   C153    1.394   .     A
C142   F172    1.358   .     S
C143   C170    1.386   .     A
C143   C169    1.430   .     S
C143   C145    1.402   .     A
C144   C168    1.430   .     S
C144   C146    1.402   .     A
C145   C147    1.405   .     A
C145   C156    1.487   .     S
C146   C157    1.487   .     S
C146   C148    1.405   .     A
C147   C154    1.410   .     A
C147   C149    1.422   .     A
C148   C155    1.410   .     A
C148   C150    1.422   .     A
C149   C151    1.422   .     A
C149   C780    1.404   1_554 S
C150   C153    1.422   .     A
C150   C779    1.404   .     S
C151   C165    1.414   .     A
C151   C170    1.394   .     A
C152   O196    1.278   .     A
C152   C167    1.402   .     S
C152   O203    1.296   .     A
C153   C163    1.414   .     A
C154   F173    1.361   .     S
C154   C793    1.389   1_554 S
C155   F174    1.361   .     S
C155   C795    1.389   .     S
C156   O208    1.223   .     D
C156   O186    1.395   .     S
C157   O188    1.395   .     S
C157   O187    1.223   .     D
C158   O189    1.223   .     D
C158   O190    1.398   .     S
C158   C163    1.484   .     S
C159   C165    1.484   .     S
C159   O191    1.223   .     D
C159   O192    1.398   .     S
C160   O194    1.397   .     S
C160   C586    1.489   1_545 S
C160   O193    1.221   .     S
C161   O197    1.397   .     S
C161   O195    1.221   .     D
C161   C377    1.489   .     S
C162   O198    1.221   .     D
C162   O199    1.397   .     S
C163   C784    1.389   .     S
C164   O201    1.397   .     S
C164   O200    1.221   .     D
C164   N44     1.408   1_655 S
C165   C785    1.389   1_554 S
C166   C370    1.489   .     S
C166   C377    1.359   .     S
C167   C586    1.359   1_545 S
C167   C581    1.489   1_545 S
C168   O206    1.298   .     A
C168   O204    1.290   .     A
C169   O205    1.290   .     A
C169   O207    1.298   .     A
C170   F171    1.358   .     S
H175   O186    1.014   .     S
H176   O188    1.014   .     S
H177   O610    1.014   1_545 S
H178   O402    1.014   .     S
H179   O194    1.014   .     S
H180   O197    1.014   .     S
H181   O199    1.013   .     S
H182   O201    1.013   .     S
N183   Zn210   2.036   .     S
N183   C22     1.408   1_655 S
N183   N44     1.280   1_655 S
N184   Zn209   2.036   .     S
O185   Zn209   1.966   .     S
O190   H387    1.014   .     S
O192   H598    1.014   1_545 S
O196   Zn210   1.966   .     S
O202   Zn210   1.980   .     S
O203   Zn209   1.980   .     S
O204   Zn209   2.004   .     S
O205   Zn210   2.004   .     S
O206   Zn210   2.027   .     S
O207   Zn209   2.027   .     S
C211   O272    1.296   .     A
C211   O255    1.278   .     A
C211   C236    1.402   .     S
C212   C214    1.386   .     A
C212   C223    1.394   .     A
C212   F242    1.358   .     S
C213   C240    1.386   .     A
C213   C239    1.430   .     S
C213   C215    1.402   .     A
C214   C238    1.430   .     S
C214   C216    1.402   .     A
C215   C217    1.405   .     A
C215   C226    1.487   .     S
C216   C227    1.487   .     S
C216   C218    1.405   .     A
C217   C224    1.410   .     A
C217   C219    1.422   .     A
C218   C225    1.410   .     A
C218   C220    1.422   .     A
C219   C221    1.422   .     A
C219   C850    1.404   1_554 S
C220   C223    1.422   .     A
C220   C849    1.404   .     S
C221   C235    1.414   .     A
C221   C240    1.394   .     A
C222   O266    1.278   .     A
C222   C237    1.402   .     S
C222   O273    1.296   .     A
C223   C233    1.414   .     A
C224   F243    1.361   .     S
C224   C863    1.389   1_554 S
C225   F244    1.361   .     S
C225   C865    1.389   .     S
C226   O278    1.223   .     D
C226   O256    1.395   .     S
C227   O258    1.395   .     S
C227   O257    1.223   .     D
C228   O259    1.223   .     D
C228   O260    1.398   .     S
C228   C233    1.484   .     S
C229   C235    1.484   .     S
C229   O261    1.223   .     D
C229   O262    1.398   .     S
C230   O264    1.397   .     S
C230   O263    1.221   .     S
C231   O267    1.397   .     S
C231   O265    1.221   .     D
C231   C447    1.489   .     S
C232   O268    1.221   .     D
C232   O269    1.397   .     S
C232   N393    1.408   1_455 S
C233   C854    1.389   .     S
C234   O271    1.397   .     S
C234   O270    1.221   .     D
C234   N324    1.408   .     S
C235   C855    1.389   1_554 S
C236   C440    1.489   .     S
C236   C447    1.359   .     S
C238   O276    1.298   .     A
C238   O274    1.290   .     A
C239   O275    1.290   .     A
C239   O277    1.298   .     A
C240   F241    1.358   .     S
H245   O256    1.014   .     S
H246   O258    1.014   .     S
H248   O472    1.014   .     S
H249   O264    1.014   .     S
H250   O267    1.014   .     S
H251   O269    1.013   .     S
H252   O271    1.013   .     S
N253   Zn280   2.036   .     S
N253   C302    1.408   .     S
N253   N324    1.280   .     S
N254   Zn279   2.036   .     S
N254   N393    1.280   1_455 S
N254   C374    1.408   1_455 S
O255   Zn279   1.966   .     S
O260   H457    1.014   .     S
O266   Zn280   1.966   .     S
O272   Zn280   1.980   .     S
O273   Zn279   1.980   .     S
O274   Zn279   2.004   .     S
O275   Zn280   2.004   .     S
O276   Zn280   2.027   .     S
O277   Zn279   2.027   .     S
C281   O342    1.296   .     A
C281   O325    1.278   .     A
C281   C306    1.402   .     S
C282   C284    1.386   .     A
C282   C293    1.394   .     A
C282   F312    1.358   .     S
C283   C310    1.386   .     A
C283   C309    1.430   .     S
C283   C285    1.402   .     A
C284   C308    1.430   .     S
C284   C286    1.402   .     A
C285   C287    1.405   .     A
C285   C296    1.487   .     S
C286   C297    1.487   .     S
C286   C288    1.405   .     A
C287   C294    1.410   .     A
C287   C289    1.422   .     A
C288   C295    1.410   .     A
C288   C290    1.422   .     A
C289   C291    1.422   .     A
C289   C920    1.404   1_554 S
C290   C293    1.422   .     A
C290   C919    1.404   .     S
C291   C305    1.414   .     A
C291   C310    1.394   .     A
C292   O336    1.278   .     A
C292   C307    1.402   .     S
C292   O343    1.296   .     A
C293   C303    1.414   .     A
C294   F313    1.361   .     S
C294   C933    1.389   1_554 S
C295   F314    1.361   .     S
C295   C935    1.389   .     S
C296   O348    1.223   .     D
C296   O326    1.395   .     S
C297   O328    1.395   .     S
C297   O327    1.223   .     D
C298   O329    1.223   .     D
C298   O330    1.398   .     S
C298   C303    1.484   .     S
C299   C305    1.484   .     S
C299   O331    1.223   .     D
C299   O332    1.398   .     S
C300   O334    1.397   .     S
C300   O333    1.221   .     S
C301   O337    1.397   .     S
C301   O335    1.221   .     D
C301   C517    1.489   .     S
C302   O338    1.221   .     D
C302   O339    1.397   .     S
C303   C924    1.389   .     S
C304   O341    1.397   .     S
C304   O340    1.221   .     D
C304   N394    1.408   .     S
C305   C925    1.389   1_554 S
C306   C510    1.489   .     S
C306   C517    1.359   .     S
C308   O346    1.298   .     A
C308   O344    1.290   .     A
C309   O345    1.290   .     A
C309   O347    1.298   .     A
C310   F311    1.358   .     S
H315   O326    1.014   .     S
H316   O328    1.014   .     S
H318   O542    1.014   .     S
H319   O334    1.014   .     S
H320   O337    1.014   .     S
H321   O339    1.013   .     S
H322   O341    1.013   .     S
N323   Zn350   2.036   .     S
N323   C372    1.408   .     S
N323   N394    1.280   .     S
N324   Zn349   2.036   .     S
O325   Zn349   1.966   .     S
O330   H527    1.014   .     S
O336   Zn350   1.966   .     S
O342   Zn350   1.980   .     S
O343   Zn349   1.980   .     S
O344   Zn349   2.004   .     S
O345   Zn350   2.004   .     S
O346   Zn350   2.027   .     S
O347   Zn349   2.027   .     S
C351   O412    1.296   .     A
C351   O395    1.278   .     A
C351   C376    1.402   .     S
C352   C354    1.386   .     A
C352   C363    1.394   .     A
C352   F382    1.358   .     S
C353   C380    1.386   .     A
C353   C379    1.430   .     S
C353   C355    1.402   .     A
C354   C378    1.430   .     S
C354   C356    1.402   .     A
C355   C357    1.405   .     A
C355   C366    1.487   .     S
C356   C367    1.487   .     S
C356   C358    1.405   .     A
C357   C364    1.410   .     A
C357   C359    1.422   .     A
C358   C365    1.410   .     A
C358   C360    1.422   .     A
C359   C361    1.422   .     A
C359   C990    1.404   1_554 S
C360   C363    1.422   .     A
C360   C989    1.404   .     S
C361   C375    1.414   .     A
C361   C380    1.394   .     A
C362   O406    1.278   .     A
C362   C377    1.402   .     S
C362   O413    1.296   .     A
C363   C373    1.414   .     A
C364   F383    1.361   .     S
C364   C1003   1.389   1_554 S
C365   F384    1.361   .     S
C365   C1005   1.389   .     S
C366   O418    1.223   .     D
C366   O396    1.395   .     S
C367   O398    1.395   .     S
C367   O397    1.223   .     D
C368   O399    1.223   .     D
C368   O400    1.398   .     S
C368   C373    1.484   .     S
C369   C375    1.484   .     S
C369   O401    1.223   .     D
C369   O402    1.398   .     S
C370   O404    1.397   .     S
C370   O403    1.221   .     S
C371   O407    1.397   .     S
C371   O405    1.221   .     D
C371   C587    1.489   .     S
C372   O408    1.221   .     D
C372   O409    1.397   .     S
C373   C994    1.389   .     S
C374   O411    1.397   .     S
C374   O410    1.221   .     D
C374   N254    1.408   1_655 S
C375   C995    1.389   1_554 S
C376   C580    1.489   .     S
C376   C587    1.359   .     S
C378   O416    1.298   .     A
C378   O414    1.290   .     A
C379   O415    1.290   .     A
C379   O417    1.298   .     A
C380   F381    1.358   .     S
H385   O396    1.014   .     S
H386   O398    1.014   .     S
H388   O612    1.014   .     S
H389   O404    1.014   .     S
H390   O407    1.014   .     S
H391   O409    1.013   .     S
H392   O411    1.013   .     S
N393   Zn420   2.036   .     S
N393   C232    1.408   1_655 S
N393   N254    1.280   1_655 S
N394   Zn419   2.036   .     S
O395   Zn419   1.966   .     S
O400   H597    1.014   .     S
O406   Zn420   1.966   .     S
O412   Zn420   1.980   .     S
O413   Zn419   1.980   .     S
O414   Zn419   2.004   .     S
O415   Zn420   2.004   .     S
O416   Zn420   2.027   .     S
O417   Zn419   2.027   .     S
C421   O482    1.296   .     A
C421   O465    1.278   .     A
C421   C446    1.402   .     S
C422   C424    1.386   .     A
C422   C433    1.394   .     A
C422   F452    1.358   .     S
C423   C450    1.386   .     A
C423   C449    1.430   .     S
C423   C425    1.402   .     A
C424   C448    1.430   .     S
C424   C426    1.402   .     A
C425   C427    1.405   .     A
C425   C436    1.487   .     S
C426   C437    1.487   .     S
C426   C428    1.405   .     A
C427   C434    1.410   .     A
C427   C429    1.422   .     A
C428   C435    1.410   .     A
C428   C430    1.422   .     A
C429   C431    1.422   .     A
C429   C1060   1.404   1_554 S
C430   C433    1.422   .     A
C430   C1059   1.404   .     S
C431   C445    1.414   .     A
C431   C450    1.394   .     A
C432   O476    1.278   .     A
C432   C447    1.402   .     S
C432   O483    1.296   .     A
C433   C443    1.414   .     A
C434   F453    1.361   .     S
C434   C1073   1.389   1_554 S
C435   F454    1.361   .     S
C435   C1075   1.389   .     S
C436   O488    1.223   .     D
C436   O466    1.395   .     S
C437   O468    1.395   .     S
C437   O467    1.223   .     D
C438   O469    1.223   .     D
C438   O470    1.398   .     S
C438   C443    1.484   .     S
C439   C445    1.484   .     S
C439   O471    1.223   .     D
C439   O472    1.398   .     S
C440   O474    1.397   .     S
C440   O473    1.221   .     S
C441   O477    1.397   .     S
C441   O475    1.221   .     D
C441   C27     1.489   1_565 S
C442   O478    1.221   .     D
C442   O479    1.397   .     S
C442   N603    1.408   1_455 S
C443   C1064   1.389   .     S
C444   O481    1.397   .     S
C444   O480    1.221   .     D
C444   N534    1.408   .     S
C445   C1065   1.389   1_554 S
C446   C20     1.489   1_565 S
C446   C27     1.359   1_565 S
C448   O486    1.298   .     A
C448   O484    1.290   .     A
C449   O485    1.290   .     A
C449   O487    1.298   .     A
C450   F451    1.358   .     S
H455   O466    1.014   .     S
H456   O468    1.014   .     S
H458   O52     1.014   1_565 S
H459   O474    1.014   .     S
H460   O477    1.014   .     S
H461   O479    1.013   .     S
H462   O481    1.013   .     S
N463   Zn490   2.036   .     S
N463   C512    1.408   .     S
N463   N534    1.280   .     S
N464   Zn489   2.036   .     S
N464   N603    1.280   1_455 S
N464   C584    1.408   1_455 S
O465   Zn489   1.966   .     S
O470   H37     1.014   1_565 S
O476   Zn490   1.966   .     S
O482   Zn490   1.980   .     S
O483   Zn489   1.980   .     S
O484   Zn489   2.004   .     S
O485   Zn490   2.004   .     S
O486   Zn490   2.027   .     S
O487   Zn489   2.027   .     S
C491   O552    1.296   .     A
C491   O535    1.278   .     A
C491   C516    1.402   .     S
C492   C494    1.386   .     A
C492   C503    1.394   .     A
C492   F522    1.358   .     S
C493   C520    1.386   .     A
C493   C519    1.430   .     S
C493   C495    1.402   .     A
C494   C518    1.430   .     S
C494   C496    1.402   .     A
C495   C497    1.405   .     A
C495   C506    1.487   .     S
C496   C507    1.487   .     S
C496   C498    1.405   .     A
C497   C504    1.410   .     A
C497   C499    1.422   .     A
C498   C505    1.410   .     A
C498   C500    1.422   .     A
C499   C501    1.422   .     A
C499   C1130   1.404   1_554 S
C500   C503    1.422   .     A
C500   C1129   1.404   .     S
C501   C515    1.414   .     A
C501   C520    1.394   .     A
C502   O546    1.278   .     A
C502   C517    1.402   .     S
C502   O553    1.296   .     A
C503   C513    1.414   .     A
C504   F523    1.361   .     S
C504   C1143   1.389   1_554 S
C505   F524    1.361   .     S
C505   C1145   1.389   .     S
C506   O558    1.223   .     D
C506   O536    1.395   .     S
C507   O538    1.395   .     S
C507   O537    1.223   .     D
C508   O539    1.223   .     D
C508   O540    1.398   .     S
C508   C513    1.484   .     S
C509   C515    1.484   .     S
C509   O541    1.223   .     D
C509   O542    1.398   .     S
C510   O544    1.397   .     S
C510   O543    1.221   .     S
C511   O547    1.397   .     S
C511   O545    1.221   .     D
C511   C97     1.489   1_565 S
C512   O548    1.221   .     D
C512   O549    1.397   .     S
C513   C1134   1.389   .     S
C514   O551    1.397   .     S
C514   O550    1.221   .     D
C514   N604    1.408   .     S
C515   C1135   1.389   1_554 S
C516   C90     1.489   1_565 S
C516   C97     1.359   1_565 S
C518   O556    1.298   .     A
C518   O554    1.290   .     A
C519   O555    1.290   .     A
C519   O557    1.298   .     A
C520   F521    1.358   .     S
H525   O536    1.014   .     S
H526   O538    1.014   .     S
H528   O122    1.014   1_565 S
H529   O544    1.014   .     S
H530   O547    1.014   .     S
H531   O549    1.013   .     S
H532   O551    1.013   .     S
N533   Zn560   2.036   .     S
N533   C582    1.408   .     S
N533   N604    1.280   .     S
N534   Zn559   2.036   .     S
O535   Zn559   1.966   .     S
O540   H107    1.014   1_565 S
O546   Zn560   1.966   .     S
O552   Zn560   1.980   .     S
O553   Zn559   1.980   .     S
O554   Zn559   2.004   .     S
O555   Zn560   2.004   .     S
O556   Zn560   2.027   .     S
O557   Zn559   2.027   .     S
C561   O622    1.296   .     A
C561   O605    1.278   .     A
C561   C586    1.402   .     S
C562   C564    1.386   .     A
C562   C573    1.394   .     A
C562   F592    1.358   .     S
C563   C590    1.386   .     A
C563   C589    1.430   .     S
C563   C565    1.402   .     A
C564   C588    1.430   .     S
C564   C566    1.402   .     A
C565   C567    1.405   .     A
C565   C576    1.487   .     S
C566   C577    1.487   .     S
C566   C568    1.405   .     A
C567   C574    1.410   .     A
C567   C569    1.422   .     A
C568   C575    1.410   .     A
C568   C570    1.422   .     A
C569   C571    1.422   .     A
C569   C1200   1.404   1_554 S
C570   C573    1.422   .     A
C570   C1199   1.404   .     S
C571   C585    1.414   .     A
C571   C590    1.394   .     A
C572   O616    1.278   .     A
C572   C587    1.402   .     S
C572   O623    1.296   .     A
C573   C583    1.414   .     A
C574   F593    1.361   .     S
C574   C1213   1.389   1_554 S
C575   F594    1.361   .     S
C575   C1215   1.389   .     S
C576   O628    1.223   .     D
C576   O606    1.395   .     S
C577   O608    1.395   .     S
C577   O607    1.223   .     D
C578   O609    1.223   .     D
C578   O610    1.398   .     S
C578   C583    1.484   .     S
C579   C585    1.484   .     S
C579   O611    1.223   .     D
C579   O612    1.398   .     S
C580   O614    1.397   .     S
C580   O613    1.221   .     S
C581   O617    1.397   .     S
C581   O615    1.221   .     D
C581   C167    1.489   1_565 S
C582   O618    1.221   .     D
C582   O619    1.397   .     S
C583   C1204   1.389   .     S
C584   O621    1.397   .     S
C584   O620    1.221   .     D
C584   N464    1.408   1_655 S
C585   C1205   1.389   1_554 S
C586   C160    1.489   1_565 S
C586   C167    1.359   1_565 S
C588   O626    1.298   .     A
C588   O624    1.290   .     A
C589   O625    1.290   .     A
C589   O627    1.298   .     A
C590   F591    1.358   .     S
H595   O606    1.014   .     S
H596   O608    1.014   .     S
H598   O192    1.014   1_565 S
H599   O614    1.014   .     S
H600   O617    1.014   .     S
H601   O619    1.013   .     S
H602   O621    1.013   .     S
N603   Zn630   2.036   .     S
N603   C442    1.408   1_655 S
N603   N464    1.280   1_655 S
N604   Zn629   2.036   .     S
O605   Zn629   1.966   .     S
O610   H177    1.014   1_565 S
O616   Zn630   1.966   .     S
O622   Zn630   1.980   .     S
O623   Zn629   1.980   .     S
O624   Zn629   2.004   .     S
O625   Zn630   2.004   .     S
O626   Zn630   2.027   .     S
O627   Zn629   2.027   .     S
C631   O692    1.296   .     A
C631   O675    1.278   .     A
C631   C656    1.402   .     S
C632   C634    1.386   .     A
C632   C643    1.394   .     A
C632   F662    1.358   .     S
C633   C660    1.386   .     A
C633   C659    1.430   .     S
C633   C635    1.402   .     A
C634   C658    1.430   .     S
C634   C636    1.402   .     A
C635   C637    1.405   .     A
C635   C646    1.487   .     S
C636   C647    1.487   .     S
C636   C638    1.405   .     A
C637   C644    1.410   .     A
C637   C639    1.422   .     A
C638   C645    1.410   .     A
C638   C640    1.422   .     A
C639   C641    1.422   .     A
C640   C643    1.422   .     A
C640   C9      1.404   1_556 S
C641   C655    1.414   .     A
C641   C660    1.394   .     A
C642   O686    1.278   .     A
C642   C657    1.402   .     S
C642   O693    1.296   .     A
C643   C653    1.414   .     A
C644   F663    1.361   .     S
C645   F664    1.361   .     S
C645   C25     1.389   1_556 S
C646   O698    1.223   .     D
C646   O676    1.395   .     S
C647   O678    1.395   .     S
C647   O677    1.223   .     D
C648   O679    1.223   .     D
C648   O680    1.398   .     S
C648   C653    1.484   .     S
C649   C655    1.484   .     S
C649   O681    1.223   .     D
C649   O682    1.398   .     S
C650   O684    1.397   .     S
C650   C1076   1.489   1_545 S
C650   O683    1.221   .     S
C651   O687    1.397   .     S
C651   O685    1.221   .     D
C651   C867    1.489   .     S
C652   O688    1.221   .     D
C652   O689    1.397   .     S
C652   N813    1.408   1_455 S
C653   C14     1.389   1_556 S
C654   O691    1.397   .     S
C654   O690    1.221   .     D
C654   N744    1.408   .     S
C656   C860    1.489   .     S
C656   C867    1.359   .     S
C657   C1076   1.359   1_545 S
C657   C1071   1.489   1_545 S
C658   O696    1.298   .     A
C658   O694    1.290   .     A
C659   O695    1.290   .     A
C659   O697    1.298   .     A
C660   F661    1.358   .     S
H665   O676    1.014   .     S
H666   O678    1.014   .     S
H667   O1100   1.014   1_545 S
H668   O892    1.014   .     S
H669   O684    1.014   .     S
H670   O687    1.014   .     S
H671   O689    1.013   .     S
H672   O691    1.013   .     S
N673   Zn700   2.036   .     S
N673   C722    1.408   .     S
N673   N744    1.280   .     S
N674   Zn699   2.036   .     S
N674   N813    1.280   1_455 S
N674   C794    1.408   1_455 S
O675   Zn699   1.966   .     S
O680   H877    1.014   .     S
O682   H1088   1.014   1_545 S
O686   Zn700   1.966   .     S
O692   Zn700   1.980   .     S
O693   Zn699   1.980   .     S
O694   Zn699   2.004   .     S
O695   Zn700   2.004   .     S
O696   Zn700   2.027   .     S
O697   Zn699   2.027   .     S
C701   O762    1.296   .     A
C701   O745    1.278   .     A
C701   C726    1.402   .     S
C702   C704    1.386   .     A
C702   C713    1.394   .     A
C702   F732    1.358   .     S
C703   C730    1.386   .     A
C703   C729    1.430   .     S
C703   C705    1.402   .     A
C704   C728    1.430   .     S
C704   C706    1.402   .     A
C705   C707    1.405   .     A
C705   C716    1.487   .     S
C706   C717    1.487   .     S
C706   C708    1.405   .     A
C707   C714    1.410   .     A
C707   C709    1.422   .     A
C708   C715    1.410   .     A
C708   C710    1.422   .     A
C709   C711    1.422   .     A
C710   C713    1.422   .     A
C710   C79     1.404   1_556 S
C711   C725    1.414   .     A
C711   C730    1.394   .     A
C712   O756    1.278   .     A
C712   C727    1.402   .     S
C712   O763    1.296   .     A
C713   C723    1.414   .     A
C714   F733    1.361   .     S
C715   F734    1.361   .     S
C715   C95     1.389   1_556 S
C716   O768    1.223   .     D
C716   O746    1.395   .     S
C717   O748    1.395   .     S
C717   O747    1.223   .     D
C718   O749    1.223   .     D
C718   O750    1.398   .     S
C718   C723    1.484   .     S
C719   C725    1.484   .     S
C719   O751    1.223   .     D
C719   O752    1.398   .     S
C720   O754    1.397   .     S
C720   C1146   1.489   1_545 S
C720   O753    1.221   .     S
C721   O757    1.397   .     S
C721   O755    1.221   .     D
C721   C937    1.489   .     S
C722   O758    1.221   .     D
C722   O759    1.397   .     S
C723   C84     1.389   1_556 S
C724   O761    1.397   .     S
C724   O760    1.221   .     D
C724   N814    1.408   .     S
C726   C930    1.489   .     S
C726   C937    1.359   .     S
C727   C1146   1.359   1_545 S
C727   C1141   1.489   1_545 S
C728   O766    1.298   .     A
C728   O764    1.290   .     A
C729   O765    1.290   .     A
C729   O767    1.298   .     A
C730   F731    1.358   .     S
H735   O746    1.014   .     S
H736   O748    1.014   .     S
H737   O1170   1.014   1_545 S
H738   O962    1.014   .     S
H739   O754    1.014   .     S
H740   O757    1.014   .     S
H741   O759    1.013   .     S
H742   O761    1.013   .     S
N743   Zn770   2.036   .     S
N743   C792    1.408   .     S
N743   N814    1.280   .     S
N744   Zn769   2.036   .     S
O745   Zn769   1.966   .     S
O750   H947    1.014   .     S
O752   H1158   1.014   1_545 S
O756   Zn770   1.966   .     S
O762   Zn770   1.980   .     S
O763   Zn769   1.980   .     S
O764   Zn769   2.004   .     S
O765   Zn770   2.004   .     S
O766   Zn770   2.027   .     S
O767   Zn769   2.027   .     S
C771   O832    1.296   .     A
C771   O815    1.278   .     A
C771   C796    1.402   .     S
C772   C774    1.386   .     A
C772   C783    1.394   .     A
C772   F802    1.358   .     S
C773   C800    1.386   .     A
C773   C799    1.430   .     S
C773   C775    1.402   .     A
C774   C798    1.430   .     S
C774   C776    1.402   .     A
C775   C777    1.405   .     A
C775   C786    1.487   .     S
C776   C787    1.487   .     S
C776   C778    1.405   .     A
C777   C784    1.410   .     A
C777   C779    1.422   .     A
C778   C785    1.410   .     A
C778   C780    1.422   .     A
C779   C781    1.422   .     A
C780   C783    1.422   .     A
C780   C149    1.404   1_556 S
C781   C795    1.414   .     A
C781   C800    1.394   .     A
C782   O826    1.278   .     A
C782   C797    1.402   .     S
C782   O833    1.296   .     A
C783   C793    1.414   .     A
C784   F803    1.361   .     S
C785   F804    1.361   .     S
C785   C165    1.389   1_556 S
C786   O838    1.223   .     D
C786   O816    1.395   .     S
C787   O818    1.395   .     S
C787   O817    1.223   .     D
C788   O819    1.223   .     D
C788   O820    1.398   .     S
C788   C793    1.484   .     S
C789   C795    1.484   .     S
C789   O821    1.223   .     D
C789   O822    1.398   .     S
C790   O824    1.397   .     S
C790   C1216   1.489   1_545 S
C790   O823    1.221   .     S
C791   O827    1.397   .     S
C791   O825    1.221   .     D
C791   C1007   1.489   .     S
C792   O828    1.221   .     D
C792   O829    1.397   .     S
C793   C154    1.389   1_556 S
C794   O831    1.397   .     S
C794   O830    1.221   .     D
C794   N674    1.408   1_655 S
C796   C1000   1.489   .     S
C796   C1007   1.359   .     S
C797   C1216   1.359   1_545 S
C797   C1211   1.489   1_545 S
C798   O836    1.298   .     A
C798   O834    1.290   .     A
C799   O835    1.290   .     A
C799   O837    1.298   .     A
C800   F801    1.358   .     S
H805   O816    1.014   .     S
H806   O818    1.014   .     S
H807   O1240   1.014   1_545 S
H808   O1032   1.014   .     S
H809   O824    1.014   .     S
H810   O827    1.014   .     S
H811   O829    1.013   .     S
H812   O831    1.013   .     S
N813   Zn840   2.036   .     S
N813   C652    1.408   1_655 S
N813   N674    1.280   1_655 S
N814   Zn839   2.036   .     S
O815   Zn839   1.966   .     S
O820   H1017   1.014   .     S
O822   H1228   1.014   1_545 S
O826   Zn840   1.966   .     S
O832   Zn840   1.980   .     S
O833   Zn839   1.980   .     S
O834   Zn839   2.004   .     S
O835   Zn840   2.004   .     S
O836   Zn840   2.027   .     S
O837   Zn839   2.027   .     S
C841   O902    1.296   .     A
C841   O885    1.278   .     A
C841   C866    1.402   .     S
C842   C844    1.386   .     A
C842   C853    1.394   .     A
C842   F872    1.358   .     S
C843   C870    1.386   .     A
C843   C869    1.430   .     S
C843   C845    1.402   .     A
C844   C868    1.430   .     S
C844   C846    1.402   .     A
C845   C847    1.405   .     A
C845   C856    1.487   .     S
C846   C857    1.487   .     S
C846   C848    1.405   .     A
C847   C854    1.410   .     A
C847   C849    1.422   .     A
C848   C855    1.410   .     A
C848   C850    1.422   .     A
C849   C851    1.422   .     A
C850   C853    1.422   .     A
C850   C219    1.404   1_556 S
C851   C865    1.414   .     A
C851   C870    1.394   .     A
C852   O896    1.278   .     A
C852   C867    1.402   .     S
C852   O903    1.296   .     A
C853   C863    1.414   .     A
C854   F873    1.361   .     S
C855   F874    1.361   .     S
C855   C235    1.389   1_556 S
C856   O908    1.223   .     D
C856   O886    1.395   .     S
C857   O888    1.395   .     S
C857   O887    1.223   .     D
C858   O889    1.223   .     D
C858   O890    1.398   .     S
C858   C863    1.484   .     S
C859   C865    1.484   .     S
C859   O891    1.223   .     D
C859   O892    1.398   .     S
C860   O894    1.397   .     S
C860   O893    1.221   .     S
C861   O897    1.397   .     S
C861   O895    1.221   .     D
C861   C1077   1.489   .     S
C862   O898    1.221   .     D
C862   O899    1.397   .     S
C862   N1023   1.408   1_455 S
C863   C224    1.389   1_556 S
C864   O901    1.397   .     S
C864   O900    1.221   .     D
C864   N954    1.408   .     S
C866   C1070   1.489   .     S
C866   C1077   1.359   .     S
C868   O906    1.298   .     A
C868   O904    1.290   .     A
C869   O905    1.290   .     A
C869   O907    1.298   .     A
C870   F871    1.358   .     S
H875   O886    1.014   .     S
H876   O888    1.014   .     S
H878   O1102   1.014   .     S
H879   O894    1.014   .     S
H880   O897    1.014   .     S
H881   O899    1.013   .     S
H882   O901    1.013   .     S
N883   Zn910   2.036   .     S
N883   C932    1.408   .     S
N883   N954    1.280   .     S
N884   Zn909   2.036   .     S
N884   N1023   1.280   1_455 S
N884   C1004   1.408   1_455 S
O885   Zn909   1.966   .     S
O890   H1087   1.014   .     S
O896   Zn910   1.966   .     S
O902   Zn910   1.980   .     S
O903   Zn909   1.980   .     S
O904   Zn909   2.004   .     S
O905   Zn910   2.004   .     S
O906   Zn910   2.027   .     S
O907   Zn909   2.027   .     S
C911   O972    1.296   .     A
C911   O955    1.278   .     A
C911   C936    1.402   .     S
C912   C914    1.386   .     A
C912   C923    1.394   .     A
C912   F942    1.358   .     S
C913   C940    1.386   .     A
C913   C939    1.430   .     S
C913   C915    1.402   .     A
C914   C938    1.430   .     S
C914   C916    1.402   .     A
C915   C917    1.405   .     A
C915   C926    1.487   .     S
C916   C927    1.487   .     S
C916   C918    1.405   .     A
C917   C924    1.410   .     A
C917   C919    1.422   .     A
C918   C925    1.410   .     A
C918   C920    1.422   .     A
C919   C921    1.422   .     A
C920   C923    1.422   .     A
C920   C289    1.404   1_556 S
C921   C935    1.414   .     A
C921   C940    1.394   .     A
C922   O966    1.278   .     A
C922   C937    1.402   .     S
C922   O973    1.296   .     A
C923   C933    1.414   .     A
C924   F943    1.361   .     S
C925   F944    1.361   .     S
C925   C305    1.389   1_556 S
C926   O978    1.223   .     D
C926   O956    1.395   .     S
C927   O958    1.395   .     S
C927   O957    1.223   .     D
C928   O959    1.223   .     D
C928   O960    1.398   .     S
C928   C933    1.484   .     S
C929   C935    1.484   .     S
C929   O961    1.223   .     D
C929   O962    1.398   .     S
C930   O964    1.397   .     S
C930   O963    1.221   .     S
C931   O967    1.397   .     S
C931   O965    1.221   .     D
C931   C1147   1.489   .     S
C932   O968    1.221   .     D
C932   O969    1.397   .     S
C933   C294    1.389   1_556 S
C934   O971    1.397   .     S
C934   O970    1.221   .     D
C934   N1024   1.408   .     S
C936   C1140   1.489   .     S
C936   C1147   1.359   .     S
C938   O976    1.298   .     A
C938   O974    1.290   .     A
C939   O975    1.290   .     A
C939   O977    1.298   .     A
C940   F941    1.358   .     S
H945   O956    1.014   .     S
H946   O958    1.014   .     S
H948   O1172   1.014   .     S
H949   O964    1.014   .     S
H950   O967    1.014   .     S
H951   O969    1.013   .     S
H952   O971    1.013   .     S
N953   Zn980   2.036   .     S
N953   C1002   1.408   .     S
N953   N1024   1.280   .     S
N954   Zn979   2.036   .     S
O955   Zn979   1.966   .     S
O960   H1157   1.014   .     S
O966   Zn980   1.966   .     S
O972   Zn980   1.980   .     S
O973   Zn979   1.980   .     S
O974   Zn979   2.004   .     S
O975   Zn980   2.004   .     S
O976   Zn980   2.027   .     S
O977   Zn979   2.027   .     S
C981   O1042   1.296   .     A
C981   O1025   1.278   .     A
C981   C1006   1.402   .     S
C982   C984    1.386   .     A
C982   C993    1.394   .     A
C982   F1012   1.358   .     S
C983   C1010   1.386   .     A
C983   C1009   1.430   .     S
C983   C985    1.402   .     A
C984   C1008   1.430   .     S
C984   C986    1.402   .     A
C985   C987    1.405   .     A
C985   C996    1.487   .     S
C986   C997    1.487   .     S
C986   C988    1.405   .     A
C987   C994    1.410   .     A
C987   C989    1.422   .     A
C988   C995    1.410   .     A
C988   C990    1.422   .     A
C989   C991    1.422   .     A
C990   C993    1.422   .     A
C990   C359    1.404   1_556 S
C991   C1005   1.414   .     A
C991   C1010   1.394   .     A
C992   O1036   1.278   .     A
C992   C1007   1.402   .     S
C992   O1043   1.296   .     A
C993   C1003   1.414   .     A
C994   F1013   1.361   .     S
C995   F1014   1.361   .     S
C995   C375    1.389   1_556 S
C996   O1048   1.223   .     D
C996   O1026   1.395   .     S
C997   O1028   1.395   .     S
C997   O1027   1.223   .     D
C998   O1029   1.223   .     D
C998   O1030   1.398   .     S
C998   C1003   1.484   .     S
C999   C1005   1.484   .     S
C999   O1031   1.223   .     D
C999   O1032   1.398   .     S
C1000  O1034   1.397   .     S
C1000  O1033   1.221   .     S
C1001  O1037   1.397   .     S
C1001  O1035   1.221   .     D
C1001  C1217   1.489   .     S
C1002  O1038   1.221   .     D
C1002  O1039   1.397   .     S
C1003  C364    1.389   1_556 S
C1004  O1041   1.397   .     S
C1004  O1040   1.221   .     D
C1004  N884    1.408   1_655 S
C1006  C1210   1.489   .     S
C1006  C1217   1.359   .     S
C1008  O1046   1.298   .     A
C1008  O1044   1.290   .     A
C1009  O1045   1.290   .     A
C1009  O1047   1.298   .     A
C1010  F1011   1.358   .     S
H1015  O1026   1.014   .     S
H1016  O1028   1.014   .     S
H1018  O1242   1.014   .     S
H1019  O1034   1.014   .     S
H1020  O1037   1.014   .     S
H1021  O1039   1.013   .     S
H1022  O1041   1.013   .     S
N1023  Zn1050  2.036   .     S
N1023  C862    1.408   1_655 S
N1023  N884    1.280   1_655 S
N1024  Zn1049  2.036   .     S
O1025  Zn1049  1.966   .     S
O1030  H1227   1.014   .     S
O1036  Zn1050  1.966   .     S
O1042  Zn1050  1.980   .     S
O1043  Zn1049  1.980   .     S
O1044  Zn1049  2.004   .     S
O1045  Zn1050  2.004   .     S
O1046  Zn1050  2.027   .     S
O1047  Zn1049  2.027   .     S
C1051  O1112   1.296   .     A
C1051  O1095   1.278   .     A
C1051  C1076   1.402   .     S
C1052  C1054   1.386   .     A
C1052  C1063   1.394   .     A
C1052  F1082   1.358   .     S
C1053  C1080   1.386   .     A
C1053  C1079   1.430   .     S
C1053  C1055   1.402   .     A
C1054  C1078   1.430   .     S
C1054  C1056   1.402   .     A
C1055  C1057   1.405   .     A
C1055  C1066   1.487   .     S
C1056  C1067   1.487   .     S
C1056  C1058   1.405   .     A
C1057  C1064   1.410   .     A
C1057  C1059   1.422   .     A
C1058  C1065   1.410   .     A
C1058  C1060   1.422   .     A
C1059  C1061   1.422   .     A
C1060  C1063   1.422   .     A
C1060  C429    1.404   1_556 S
C1061  C1075   1.414   .     A
C1061  C1080   1.394   .     A
C1062  O1106   1.278   .     A
C1062  C1077   1.402   .     S
C1062  O1113   1.296   .     A
C1063  C1073   1.414   .     A
C1064  F1083   1.361   .     S
C1065  F1084   1.361   .     S
C1065  C445    1.389   1_556 S
C1066  O1118   1.223   .     D
C1066  O1096   1.395   .     S
C1067  O1098   1.395   .     S
C1067  O1097   1.223   .     D
C1068  O1099   1.223   .     D
C1068  O1100   1.398   .     S
C1068  C1073   1.484   .     S
C1069  C1075   1.484   .     S
C1069  O1101   1.223   .     D
C1069  O1102   1.398   .     S
C1070  O1104   1.397   .     S
C1070  O1103   1.221   .     S
C1071  O1107   1.397   .     S
C1071  O1105   1.221   .     D
C1071  C657    1.489   1_565 S
C1072  O1108   1.221   .     D
C1072  O1109   1.397   .     S
C1072  N1233   1.408   1_455 S
C1073  C434    1.389   1_556 S
C1074  O1111   1.397   .     S
C1074  O1110   1.221   .     D
C1074  N1164   1.408   .     S
C1076  C650    1.489   1_565 S
C1076  C657    1.359   1_565 S
C1078  O1116   1.298   .     A
C1078  O1114   1.290   .     A
C1079  O1115   1.290   .     A
C1079  O1117   1.298   .     A
C1080  F1081   1.358   .     S
H1085  O1096   1.014   .     S
H1086  O1098   1.014   .     S
H1088  O682    1.014   1_565 S
H1089  O1104   1.014   .     S
H1090  O1107   1.014   .     S
H1091  O1109   1.013   .     S
H1092  O1111   1.013   .     S
N1093  Zn1120  2.036   .     S
N1093  C1142   1.408   .     S
N1093  N1164   1.280   .     S
N1094  Zn1119  2.036   .     S
N1094  N1233   1.280   1_455 S
N1094  C1214   1.408   1_455 S
O1095  Zn1119  1.966   .     S
O1100  H667    1.014   1_565 S
O1106  Zn1120  1.966   .     S
O1112  Zn1120  1.980   .     S
O1113  Zn1119  1.980   .     S
O1114  Zn1119  2.004   .     S
O1115  Zn1120  2.004   .     S
O1116  Zn1120  2.027   .     S
O1117  Zn1119  2.027   .     S
C1121  O1182   1.296   .     A
C1121  O1165   1.278   .     A
C1121  C1146   1.402   .     S
C1122  C1124   1.386   .     A
C1122  C1133   1.394   .     A
C1122  F1152   1.358   .     S
C1123  C1150   1.386   .     A
C1123  C1149   1.430   .     S
C1123  C1125   1.402   .     A
C1124  C1148   1.430   .     S
C1124  C1126   1.402   .     A
C1125  C1127   1.405   .     A
C1125  C1136   1.487   .     S
C1126  C1137   1.487   .     S
C1126  C1128   1.405   .     A
C1127  C1134   1.410   .     A
C1127  C1129   1.422   .     A
C1128  C1135   1.410   .     A
C1128  C1130   1.422   .     A
C1129  C1131   1.422   .     A
C1130  C1133   1.422   .     A
C1130  C499    1.404   1_556 S
C1131  C1145   1.414   .     A
C1131  C1150   1.394   .     A
C1132  O1176   1.278   .     A
C1132  C1147   1.402   .     S
C1132  O1183   1.296   .     A
C1133  C1143   1.414   .     A
C1134  F1153   1.361   .     S
C1135  F1154   1.361   .     S
C1135  C515    1.389   1_556 S
C1136  O1188   1.223   .     D
C1136  O1166   1.395   .     S
C1137  O1168   1.395   .     S
C1137  O1167   1.223   .     D
C1138  O1169   1.223   .     D
C1138  O1170   1.398   .     S
C1138  C1143   1.484   .     S
C1139  C1145   1.484   .     S
C1139  O1171   1.223   .     D
C1139  O1172   1.398   .     S
C1140  O1174   1.397   .     S
C1140  O1173   1.221   .     S
C1141  O1177   1.397   .     S
C1141  O1175   1.221   .     D
C1141  C727    1.489   1_565 S
C1142  O1178   1.221   .     D
C1142  O1179   1.397   .     S
C1143  C504    1.389   1_556 S
C1144  O1181   1.397   .     S
C1144  O1180   1.221   .     D
C1144  N1234   1.408   .     S
C1146  C720    1.489   1_565 S
C1146  C727    1.359   1_565 S
C1148  O1186   1.298   .     A
C1148  O1184   1.290   .     A
C1149  O1185   1.290   .     A
C1149  O1187   1.298   .     A
C1150  F1151   1.358   .     S
H1155  O1166   1.014   .     S
H1156  O1168   1.014   .     S
H1158  O752    1.014   1_565 S
H1159  O1174   1.014   .     S
H1160  O1177   1.014   .     S
H1161  O1179   1.013   .     S
H1162  O1181   1.013   .     S
N1163  Zn1190  2.036   .     S
N1163  C1212   1.408   .     S
N1163  N1234   1.280   .     S
N1164  Zn1189  2.036   .     S
O1165  Zn1189  1.966   .     S
O1170  H737    1.014   1_565 S
O1176  Zn1190  1.966   .     S
O1182  Zn1190  1.980   .     S
O1183  Zn1189  1.980   .     S
O1184  Zn1189  2.004   .     S
O1185  Zn1190  2.004   .     S
O1186  Zn1190  2.027   .     S
O1187  Zn1189  2.027   .     S
C1191  O1252   1.296   .     A
C1191  O1235   1.278   .     A
C1191  C1216   1.402   .     S
C1192  C1194   1.386   .     A
C1192  C1203   1.394   .     A
C1192  F1222   1.358   .     S
C1193  C1220   1.386   .     A
C1193  C1219   1.430   .     S
C1193  C1195   1.402   .     A
C1194  C1218   1.430   .     S
C1194  C1196   1.402   .     A
C1195  C1197   1.405   .     A
C1195  C1206   1.487   .     S
C1196  C1207   1.487   .     S
C1196  C1198   1.405   .     A
C1197  C1204   1.410   .     A
C1197  C1199   1.422   .     A
C1198  C1205   1.410   .     A
C1198  C1200   1.422   .     A
C1199  C1201   1.422   .     A
C1200  C1203   1.422   .     A
C1200  C569    1.404   1_556 S
C1201  C1215   1.414   .     A
C1201  C1220   1.394   .     A
C1202  O1246   1.278   .     A
C1202  C1217   1.402   .     S
C1202  O1253   1.296   .     A
C1203  C1213   1.414   .     A
C1204  F1223   1.361   .     S
C1205  F1224   1.361   .     S
C1205  C585    1.389   1_556 S
C1206  O1258   1.223   .     D
C1206  O1236   1.395   .     S
C1207  O1238   1.395   .     S
C1207  O1237   1.223   .     D
C1208  O1239   1.223   .     D
C1208  O1240   1.398   .     S
C1208  C1213   1.484   .     S
C1209  C1215   1.484   .     S
C1209  O1241   1.223   .     D
C1209  O1242   1.398   .     S
C1210  O1244   1.397   .     S
C1210  O1243   1.221   .     S
C1211  O1247   1.397   .     S
C1211  O1245   1.221   .     D
C1211  C797    1.489   1_565 S
C1212  O1248   1.221   .     D
C1212  O1249   1.397   .     S
C1213  C574    1.389   1_556 S
C1214  O1251   1.397   .     S
C1214  O1250   1.221   .     D
C1214  N1094   1.408   1_655 S
C1216  C790    1.489   1_565 S
C1216  C797    1.359   1_565 S
C1218  O1256   1.298   .     A
C1218  O1254   1.290   .     A
C1219  O1255   1.290   .     A
C1219  O1257   1.298   .     A
C1220  F1221   1.358   .     S
H1225  O1236   1.014   .     S
H1226  O1238   1.014   .     S
H1228  O822    1.014   1_565 S
H1229  O1244   1.014   .     S
H1230  O1247   1.014   .     S
H1231  O1249   1.013   .     S
H1232  O1251   1.013   .     S
N1233  Zn1260  2.036   .     S
N1233  C1072   1.408   1_655 S
N1233  N1094   1.280   1_655 S
N1234  Zn1259  2.036   .     S
O1235  Zn1259  1.966   .     S
O1240  H807    1.014   1_565 S
O1246  Zn1260  1.966   .     S
O1252  Zn1260  1.980   .     S
O1253  Zn1259  1.980   .     S
O1254  Zn1259  2.004   .     S
O1255  Zn1260  2.004   .     S
O1256  Zn1260  2.027   .     S
O1257  Zn1259  2.027   .     S
