data_str_m2_o2_o10_pcu_sym.221
_audit_creation_date              2020-01-03
_audit_creation_method            'Materials Studio'
_symmetry_space_group_name_H-M    'P1'
_symmetry_Int_Tables_number       1
_symmetry_cell_setting            triclinic
loop_
_symmetry_equiv_pos_as_xyz
  x,y,z
_cell_length_a                    26.2456
_cell_length_b                    30.2598
_cell_length_c                    27.8950
_cell_angle_alpha                 91.7549
_cell_angle_beta                  98.6626
_cell_angle_gamma                 92.5402
loop_
_atom_site_label
_atom_site_type_symbol
_atom_site_fract_x
_atom_site_fract_y
_atom_site_fract_z
_atom_site_U_iso_or_equiv
_atom_site_adp_type
_atom_site_occupancy
C1     C     0.16719   0.16496   0.24963   0.00000  Uiso   1.00
C2     C     0.16719   0.33482   0.25071   0.00000  Uiso   1.00
C3     C     0.20299   0.27524   0.06009   0.00000  Uiso   1.00
C4     C     0.15258   0.21437   0.44416   0.00000  Uiso   1.00
C5     C     0.20304   0.27461   0.11055   0.00000  Uiso   1.00
C6     C     0.15013   0.21388   0.39324   0.00000  Uiso   1.00
C7     C     0.12849   0.22615   0.09761   0.00000  Uiso   1.00
C8     C     0.18669   0.28698   0.39945   0.00000  Uiso   1.00
C9     C     0.12092   0.23427   0.04679   0.00000  Uiso   1.00
C10    C     0.17495   0.29254   0.44754   0.00000  Uiso   1.00
C11    C     0.16170   0.25535   0.02690   0.00000  Uiso   1.00
C12    C     0.16315   0.25432   0.47238   0.00000  Uiso   1.00
C13    C     0.06788   0.24992   0.23743   0.00000  Uiso   1.00
C14    C     0.26546   0.25017   0.26257   0.00000  Uiso   1.00
C15    C     0.01243   0.24997   0.23067   0.00000  Uiso   1.00
C16    C     0.32091   0.25024   0.26933   0.00000  Uiso   1.00
C17    C     0.15248   0.04825   0.28922   0.00000  Uiso   1.00
C18    C     0.20825   0.45216   0.23303   0.00000  Uiso   1.00
C19    C     0.15086   0.09401   0.28785   0.00000  Uiso   1.00
C20    C     0.20688   0.40616   0.23212   0.00000  Uiso   1.00
C21    C     0.16836   0.11665   0.24984   0.00000  Uiso   1.00
C22    C     0.16870   0.38274   0.25224   0.00000  Uiso   1.00
C23    C     0.18858   0.09290   0.21385   0.00000  Uiso   1.00
C24    C     0.13157   0.40520   0.27292   0.00000  Uiso   1.00
C25    C     0.18850   0.04692   0.21417   0.00000  Uiso   1.00
C26    C     0.13171   0.45114   0.27227   0.00000  Uiso   1.00
C27    C     0.17045   0.02404   0.25193   0.00000  Uiso   1.00
C28    C     0.17023   0.47521   0.25251   0.00000  Uiso   1.00
Cu29   Cu    0.16667   0.24999   0.29822   0.00000  Uiso   1.00
Cu30   Cu    0.16667   0.25000   0.20179   0.00000  Uiso   1.00
H31    H     0.32533   0.24976   0.19374   0.00000  Uiso   1.00
H32    H     0.00801   0.25048   0.30627   0.00000  Uiso   1.00
H33    H     0.13993   0.03202   0.31975   0.00000  Uiso   1.00
H34    H     0.23930   0.46950   0.21875   0.00000  Uiso   1.00
H35    H     0.13595   0.11167   0.31669   0.00000  Uiso   1.00
H36    H     0.23605   0.38883   0.21645   0.00000  Uiso   1.00
H37    H     0.20511   0.10977   0.18587   0.00000  Uiso   1.00
H38    H     0.10164   0.38711   0.28818   0.00000  Uiso   1.00
H39    H     0.20234   0.02949   0.18461   0.00000  Uiso   1.00
H40    H     0.10106   0.46757   0.28647   0.00000  Uiso   1.00
H41    H     0.23551   0.29156   0.04740   0.00000  Uiso   1.00
H42    H     0.14321   0.18398   0.46103   0.00000  Uiso   1.00
H43    H     0.23374   0.29240   0.13475   0.00000  Uiso   1.00
H44    H     0.13705   0.18377   0.37237   0.00000  Uiso   1.00
N45    N     0.16667   0.25001   0.12935   0.00000  Uiso   1.00
N46    N     0.16667   0.24999   0.37066   0.00000  Uiso   1.00
O47    O     0.16667   0.18572   0.29072   0.00000  Uiso   1.00
O48    O     0.16666   0.31427   0.20929   0.00000  Uiso   1.00
O49    O     0.16667   0.18573   0.20928   0.00000  Uiso   1.00
O50    O     0.16666   0.31427   0.29072   0.00000  Uiso   1.00
O51    O     0.09161   0.24999   0.28132   0.00000  Uiso   1.00
O52    O     0.24172   0.25000   0.21868   0.00000  Uiso   1.00
O53    O     0.09161   0.25000   0.19989   0.00000  Uiso   1.00
O54    O     0.24172   0.25000   0.30012   0.00000  Uiso   1.00
C55    C     0.10137   0.18487   0.11375   0.00000  Uiso   1.00
C56    C     0.13414   0.14420   0.11121   0.00000  Uiso   1.00
C57    C     0.13055   0.12321   0.06032   0.00000  Uiso   1.00
H58    H     0.08982   0.11372   0.04518   0.00000  Uiso   1.00
H59    H     0.14737   0.14623   0.03611   0.00000  Uiso   1.00
H60    H     0.15288   0.09283   0.06208   0.00000  Uiso   1.00
H61    H     0.17529   0.15355   0.12473   0.00000  Uiso   1.00
H62    H     0.12043   0.11875   0.13480   0.00000  Uiso   1.00
H63    H     0.09273   0.18905   0.15068   0.00000  Uiso   1.00
H64    H     0.06274   0.17715   0.09256   0.00000  Uiso   1.00
C65    C     0.22834   0.31817   0.38423   0.00000  Uiso   1.00
C66    C     0.28250   0.31295   0.41314   0.00000  Uiso   1.00
C67    C     0.29344   0.34060   0.46047   0.00000  Uiso   1.00
H68    H     0.28100   0.37493   0.45513   0.00000  Uiso   1.00
H69    H     0.27428   0.32492   0.48865   0.00000  Uiso   1.00
H70    H     0.00209   0.34204   0.47374   0.00000  Uiso   1.00
H71    H     0.28860   0.27756   0.42043   0.00000  Uiso   1.00
H72    H     0.31178   0.32386   0.39039   0.00000  Uiso   1.00
H73    H     0.23427   0.31050   0.34739   0.00000  Uiso   1.00
H74    H     0.21750   0.35314   0.38362   0.00000  Uiso   1.00
C75    C     0.07034   0.21957   0.01431   0.00000  Uiso   1.00
C76    C     0.02295   0.24039   0.03023   0.00000  Uiso   1.00
C77    C     0.30692   0.21548   0.00547   0.00000  Uiso   1.00
H78    H     0.30623   0.21283   0.46560   0.00000  Uiso   1.00
H79    H     0.30435   0.18166   0.01960   0.00000  Uiso   1.00
H80    H     0.27280   0.23312   0.01275   0.00000  Uiso   1.00
H81    H     0.02382   0.24006   0.07011   0.00000  Uiso   1.00
H82    H     0.02231   0.27552   0.01994   0.00000  Uiso   1.00
H83    H     0.06989   0.22939   0.47638   0.00000  Uiso   1.00
H84    H     0.06556   0.18299   0.01271   0.00000  Uiso   1.00
C85    C     0.16986   0.33871   0.46951   0.00000  Uiso   1.00
C86    C     0.11356   0.34711   0.47408   0.00000  Uiso   1.00
C87    C     0.10867   0.39378   0.49481   0.00000  Uiso   1.00
H88    H     0.13202   0.39828   0.03146   0.00000  Uiso   1.00
H89    H     0.12204   0.41885   0.47059   0.00000  Uiso   1.00
H90    H     0.06778   0.39925   0.49800   0.00000  Uiso   1.00
H91    H     0.08940   0.34312   0.43774   0.00000  Uiso   1.00
H92    H     0.09865   0.32297   0.49839   0.00000  Uiso   1.00
H93    H     0.19394   0.34386   0.00544   0.00000  Uiso   1.00
H94    H     0.18311   0.36492   0.44692   0.00000  Uiso   1.00
C95    C     0.50052   0.16496   0.24963   0.00000  Uiso   1.00
C96    C     0.50053   0.33482   0.25071   0.00000  Uiso   1.00
C97    C     0.53633   0.27524   0.06009   0.00000  Uiso   1.00
C98    C     0.48591   0.21437   0.44416   0.00000  Uiso   1.00
C99    C     0.53638   0.27461   0.11055   0.00000  Uiso   1.00
C100   C     0.48347   0.21388   0.39324   0.00000  Uiso   1.00
C101   C     0.46183   0.22615   0.09761   0.00000  Uiso   1.00
C102   C     0.52003   0.28698   0.39945   0.00000  Uiso   1.00
C103   C     0.45426   0.23427   0.04679   0.00000  Uiso   1.00
C104   C     0.50829   0.29254   0.44754   0.00000  Uiso   1.00
C105   C     0.49504   0.25535   0.02690   0.00000  Uiso   1.00
C106   C     0.49649   0.25432   0.47238   0.00000  Uiso   1.00
C107   C     0.40121   0.24992   0.23743   0.00000  Uiso   1.00
C108   C     0.59879   0.25017   0.26257   0.00000  Uiso   1.00
C109   C     0.34576   0.24997   0.23067   0.00000  Uiso   1.00
C110   C     0.65424   0.25024   0.26933   0.00000  Uiso   1.00
C111   C     0.48581   0.04825   0.28922   0.00000  Uiso   1.00
C112   C     0.54159   0.45216   0.23303   0.00000  Uiso   1.00
C113   C     0.48420   0.09401   0.28785   0.00000  Uiso   1.00
C114   C     0.54021   0.40616   0.23212   0.00000  Uiso   1.00
C115   C     0.50169   0.11665   0.24984   0.00000  Uiso   1.00
C116   C     0.50203   0.38274   0.25224   0.00000  Uiso   1.00
C117   C     0.52192   0.09290   0.21385   0.00000  Uiso   1.00
C118   C     0.46490   0.40520   0.27292   0.00000  Uiso   1.00
C119   C     0.52184   0.04692   0.21417   0.00000  Uiso   1.00
C120   C     0.46504   0.45114   0.27227   0.00000  Uiso   1.00
C121   C     0.50378   0.02404   0.25193   0.00000  Uiso   1.00
C122   C     0.50357   0.47521   0.25251   0.00000  Uiso   1.00
Cu123  Cu    0.50000   0.24999   0.29822   0.00000  Uiso   1.00
Cu124  Cu    0.50000   0.25000   0.20179   0.00000  Uiso   1.00
H125   H     0.65866   0.24976   0.19374   0.00000  Uiso   1.00
H126   H     0.34134   0.25048   0.30627   0.00000  Uiso   1.00
H127   H     0.47327   0.03202   0.31975   0.00000  Uiso   1.00
H128   H     0.57264   0.46950   0.21875   0.00000  Uiso   1.00
H129   H     0.46928   0.11167   0.31669   0.00000  Uiso   1.00
H130   H     0.56938   0.38883   0.21645   0.00000  Uiso   1.00
H131   H     0.53844   0.10977   0.18587   0.00000  Uiso   1.00
H132   H     0.43498   0.38711   0.28818   0.00000  Uiso   1.00
H133   H     0.53567   0.02949   0.18461   0.00000  Uiso   1.00
H134   H     0.43440   0.46757   0.28647   0.00000  Uiso   1.00
H135   H     0.56885   0.29156   0.04740   0.00000  Uiso   1.00
H136   H     0.47655   0.18398   0.46103   0.00000  Uiso   1.00
H137   H     0.56707   0.29240   0.13475   0.00000  Uiso   1.00
H138   H     0.47038   0.18377   0.37237   0.00000  Uiso   1.00
N139   N     0.50000   0.25001   0.12935   0.00000  Uiso   1.00
N140   N     0.50000   0.24999   0.37066   0.00000  Uiso   1.00
O141   O     0.50000   0.18572   0.29072   0.00000  Uiso   1.00
O142   O     0.50000   0.31427   0.20929   0.00000  Uiso   1.00
O143   O     0.50000   0.18573   0.20928   0.00000  Uiso   1.00
O144   O     0.50000   0.31427   0.29072   0.00000  Uiso   1.00
O145   O     0.42495   0.24999   0.28132   0.00000  Uiso   1.00
O146   O     0.57505   0.25000   0.21868   0.00000  Uiso   1.00
O147   O     0.42495   0.25000   0.19989   0.00000  Uiso   1.00
O148   O     0.57505   0.25000   0.30012   0.00000  Uiso   1.00
C149   C     0.43471   0.18487   0.11375   0.00000  Uiso   1.00
C150   C     0.46747   0.14420   0.11121   0.00000  Uiso   1.00
C151   C     0.46388   0.12321   0.06032   0.00000  Uiso   1.00
H152   H     0.42315   0.11372   0.04518   0.00000  Uiso   1.00
H153   H     0.48070   0.14623   0.03611   0.00000  Uiso   1.00
H154   H     0.48622   0.09283   0.06208   0.00000  Uiso   1.00
H155   H     0.50862   0.15355   0.12473   0.00000  Uiso   1.00
H156   H     0.45376   0.11875   0.13480   0.00000  Uiso   1.00
H157   H     0.42606   0.18905   0.15068   0.00000  Uiso   1.00
H158   H     0.39607   0.17715   0.09256   0.00000  Uiso   1.00
C159   C     0.56168   0.31817   0.38423   0.00000  Uiso   1.00
C160   C     0.61584   0.31295   0.41314   0.00000  Uiso   1.00
C161   C     0.62677   0.34060   0.46047   0.00000  Uiso   1.00
H162   H     0.61434   0.37493   0.45513   0.00000  Uiso   1.00
H163   H     0.60761   0.32492   0.48865   0.00000  Uiso   1.00
H164   H     0.33542   0.34204   0.47374   0.00000  Uiso   1.00
H165   H     0.62194   0.27756   0.42043   0.00000  Uiso   1.00
H166   H     0.64512   0.32386   0.39039   0.00000  Uiso   1.00
H167   H     0.56761   0.31050   0.34739   0.00000  Uiso   1.00
H168   H     0.55084   0.35314   0.38362   0.00000  Uiso   1.00
C169   C     0.40368   0.21957   0.01431   0.00000  Uiso   1.00
C170   C     0.35628   0.24039   0.03023   0.00000  Uiso   1.00
C171   C     0.64026   0.21548   0.00547   0.00000  Uiso   1.00
H172   H     0.63956   0.21283   0.46560   0.00000  Uiso   1.00
H173   H     0.63768   0.18166   0.01960   0.00000  Uiso   1.00
H174   H     0.60614   0.23312   0.01275   0.00000  Uiso   1.00
H175   H     0.35716   0.24006   0.07011   0.00000  Uiso   1.00
H176   H     0.35564   0.27552   0.01994   0.00000  Uiso   1.00
H177   H     0.40322   0.22939   0.47638   0.00000  Uiso   1.00
H178   H     0.39889   0.18299   0.01271   0.00000  Uiso   1.00
C179   C     0.50320   0.33871   0.46951   0.00000  Uiso   1.00
C180   C     0.44689   0.34711   0.47408   0.00000  Uiso   1.00
C181   C     0.44201   0.39378   0.49481   0.00000  Uiso   1.00
H182   H     0.46535   0.39828   0.03146   0.00000  Uiso   1.00
H183   H     0.45537   0.41885   0.47059   0.00000  Uiso   1.00
H184   H     0.40111   0.39925   0.49800   0.00000  Uiso   1.00
H185   H     0.42273   0.34312   0.43774   0.00000  Uiso   1.00
H186   H     0.43199   0.32297   0.49839   0.00000  Uiso   1.00
H187   H     0.52727   0.34386   0.00544   0.00000  Uiso   1.00
H188   H     0.51644   0.36492   0.44692   0.00000  Uiso   1.00
C189   C     0.83386   0.16496   0.24963   0.00000  Uiso   1.00
C190   C     0.83386   0.33482   0.25071   0.00000  Uiso   1.00
C191   C     0.86966   0.27524   0.06009   0.00000  Uiso   1.00
C192   C     0.81924   0.21437   0.44416   0.00000  Uiso   1.00
C193   C     0.86971   0.27461   0.11055   0.00000  Uiso   1.00
C194   C     0.81680   0.21388   0.39324   0.00000  Uiso   1.00
C195   C     0.79516   0.22615   0.09761   0.00000  Uiso   1.00
C196   C     0.85336   0.28698   0.39945   0.00000  Uiso   1.00
C197   C     0.78759   0.23427   0.04679   0.00000  Uiso   1.00
C198   C     0.84162   0.29254   0.44754   0.00000  Uiso   1.00
C199   C     0.82837   0.25535   0.02690   0.00000  Uiso   1.00
C200   C     0.82982   0.25432   0.47238   0.00000  Uiso   1.00
C201   C     0.73454   0.24992   0.23743   0.00000  Uiso   1.00
C202   C     0.93213   0.25017   0.26257   0.00000  Uiso   1.00
C203   C     0.67909   0.24997   0.23067   0.00000  Uiso   1.00
C204   C     0.98758   0.25024   0.26933   0.00000  Uiso   1.00
C205   C     0.81915   0.04825   0.28922   0.00000  Uiso   1.00
C206   C     0.87492   0.45216   0.23303   0.00000  Uiso   1.00
C207   C     0.81753   0.09401   0.28785   0.00000  Uiso   1.00
C208   C     0.87355   0.40616   0.23212   0.00000  Uiso   1.00
C209   C     0.83502   0.11665   0.24984   0.00000  Uiso   1.00
C210   C     0.83537   0.38274   0.25224   0.00000  Uiso   1.00
C211   C     0.85525   0.09290   0.21385   0.00000  Uiso   1.00
C212   C     0.79824   0.40520   0.27292   0.00000  Uiso   1.00
C213   C     0.85517   0.04692   0.21417   0.00000  Uiso   1.00
C214   C     0.79837   0.45114   0.27227   0.00000  Uiso   1.00
C215   C     0.83711   0.02404   0.25193   0.00000  Uiso   1.00
C216   C     0.83690   0.47521   0.25251   0.00000  Uiso   1.00
Cu217  Cu    0.83333   0.24999   0.29822   0.00000  Uiso   1.00
Cu218  Cu    0.83333   0.25000   0.20179   0.00000  Uiso   1.00
H219   H     0.99200   0.24976   0.19374   0.00000  Uiso   1.00
H220   H     0.67467   0.25048   0.30627   0.00000  Uiso   1.00
H221   H     0.80660   0.03202   0.31975   0.00000  Uiso   1.00
H222   H     0.90597   0.46950   0.21875   0.00000  Uiso   1.00
H223   H     0.80262   0.11167   0.31669   0.00000  Uiso   1.00
H224   H     0.90272   0.38883   0.21645   0.00000  Uiso   1.00
H225   H     0.87177   0.10977   0.18587   0.00000  Uiso   1.00
H226   H     0.76831   0.38711   0.28818   0.00000  Uiso   1.00
H227   H     0.86901   0.02949   0.18461   0.00000  Uiso   1.00
H228   H     0.76773   0.46757   0.28647   0.00000  Uiso   1.00
H229   H     0.90218   0.29156   0.04740   0.00000  Uiso   1.00
H230   H     0.80988   0.18398   0.46103   0.00000  Uiso   1.00
H231   H     0.90040   0.29240   0.13475   0.00000  Uiso   1.00
H232   H     0.80372   0.18377   0.37237   0.00000  Uiso   1.00
N233   N     0.83333   0.25001   0.12935   0.00000  Uiso   1.00
N234   N     0.83333   0.24999   0.37066   0.00000  Uiso   1.00
O235   O     0.83334   0.18572   0.29072   0.00000  Uiso   1.00
O236   O     0.83333   0.31427   0.20929   0.00000  Uiso   1.00
O237   O     0.83334   0.18573   0.20928   0.00000  Uiso   1.00
O238   O     0.83333   0.31427   0.29072   0.00000  Uiso   1.00
O239   O     0.75828   0.24999   0.28132   0.00000  Uiso   1.00
O240   O     0.90839   0.25000   0.21868   0.00000  Uiso   1.00
O241   O     0.75828   0.25000   0.19989   0.00000  Uiso   1.00
O242   O     0.90839   0.25000   0.30012   0.00000  Uiso   1.00
C243   C     0.76804   0.18487   0.11375   0.00000  Uiso   1.00
C244   C     0.80080   0.14420   0.11121   0.00000  Uiso   1.00
C245   C     0.79721   0.12321   0.06032   0.00000  Uiso   1.00
H246   H     0.75648   0.11372   0.04518   0.00000  Uiso   1.00
H247   H     0.81403   0.14623   0.03611   0.00000  Uiso   1.00
H248   H     0.81955   0.09283   0.06208   0.00000  Uiso   1.00
H249   H     0.84195   0.15355   0.12473   0.00000  Uiso   1.00
H250   H     0.78709   0.11875   0.13480   0.00000  Uiso   1.00
H251   H     0.75940   0.18905   0.15068   0.00000  Uiso   1.00
H252   H     0.72940   0.17715   0.09256   0.00000  Uiso   1.00
C253   C     0.89501   0.31817   0.38423   0.00000  Uiso   1.00
C254   C     0.94917   0.31295   0.41314   0.00000  Uiso   1.00
C255   C     0.96011   0.34060   0.46047   0.00000  Uiso   1.00
H256   H     0.94767   0.37493   0.45513   0.00000  Uiso   1.00
H257   H     0.94095   0.32492   0.48865   0.00000  Uiso   1.00
H258   H     0.66876   0.34204   0.47374   0.00000  Uiso   1.00
H259   H     0.95527   0.27756   0.42043   0.00000  Uiso   1.00
H260   H     0.97845   0.32386   0.39039   0.00000  Uiso   1.00
H261   H     0.90094   0.31050   0.34739   0.00000  Uiso   1.00
H262   H     0.88417   0.35314   0.38362   0.00000  Uiso   1.00
C263   C     0.73701   0.21957   0.01431   0.00000  Uiso   1.00
C264   C     0.68962   0.24039   0.03023   0.00000  Uiso   1.00
C265   C     0.97359   0.21548   0.00547   0.00000  Uiso   1.00
H266   H     0.97290   0.21283   0.46560   0.00000  Uiso   1.00
H267   H     0.97102   0.18166   0.01960   0.00000  Uiso   1.00
H268   H     0.93947   0.23312   0.01275   0.00000  Uiso   1.00
H269   H     0.69049   0.24006   0.07011   0.00000  Uiso   1.00
H270   H     0.68897   0.27552   0.01994   0.00000  Uiso   1.00
H271   H     0.73656   0.22939   0.47638   0.00000  Uiso   1.00
H272   H     0.73223   0.18299   0.01271   0.00000  Uiso   1.00
C273   C     0.83653   0.33871   0.46951   0.00000  Uiso   1.00
C274   C     0.78023   0.34711   0.47408   0.00000  Uiso   1.00
C275   C     0.77534   0.39378   0.49481   0.00000  Uiso   1.00
H276   H     0.79868   0.39828   0.03146   0.00000  Uiso   1.00
H277   H     0.78870   0.41885   0.47059   0.00000  Uiso   1.00
H278   H     0.73445   0.39925   0.49800   0.00000  Uiso   1.00
H279   H     0.75606   0.34312   0.43774   0.00000  Uiso   1.00
H280   H     0.76532   0.32297   0.49839   0.00000  Uiso   1.00
H281   H     0.86060   0.34386   0.00544   0.00000  Uiso   1.00
H282   H     0.84978   0.36492   0.44692   0.00000  Uiso   1.00
C283   C     0.16719   0.66496   0.24963   0.00000  Uiso   1.00
C284   C     0.16719   0.83482   0.25071   0.00000  Uiso   1.00
C285   C     0.20299   0.77524   0.06009   0.00000  Uiso   1.00
C286   C     0.15258   0.71437   0.44416   0.00000  Uiso   1.00
C287   C     0.20304   0.77461   0.11055   0.00000  Uiso   1.00
C288   C     0.15013   0.71388   0.39324   0.00000  Uiso   1.00
C289   C     0.12849   0.72615   0.09761   0.00000  Uiso   1.00
C290   C     0.18669   0.78698   0.39945   0.00000  Uiso   1.00
C291   C     0.12092   0.73427   0.04679   0.00000  Uiso   1.00
C292   C     0.17495   0.79254   0.44754   0.00000  Uiso   1.00
C293   C     0.16170   0.75535   0.02690   0.00000  Uiso   1.00
C294   C     0.16315   0.75432   0.47238   0.00000  Uiso   1.00
C295   C     0.06788   0.74992   0.23743   0.00000  Uiso   1.00
C296   C     0.26546   0.75017   0.26257   0.00000  Uiso   1.00
C297   C     0.01243   0.74997   0.23067   0.00000  Uiso   1.00
C298   C     0.32091   0.75024   0.26933   0.00000  Uiso   1.00
C299   C     0.15248   0.54825   0.28922   0.00000  Uiso   1.00
C300   C     0.20825   0.95216   0.23303   0.00000  Uiso   1.00
C301   C     0.15086   0.59401   0.28785   0.00000  Uiso   1.00
C302   C     0.20688   0.90616   0.23212   0.00000  Uiso   1.00
C303   C     0.16836   0.61665   0.24984   0.00000  Uiso   1.00
C304   C     0.16870   0.88274   0.25224   0.00000  Uiso   1.00
C305   C     0.18858   0.59290   0.21385   0.00000  Uiso   1.00
C306   C     0.13157   0.90520   0.27292   0.00000  Uiso   1.00
C307   C     0.18850   0.54692   0.21417   0.00000  Uiso   1.00
C308   C     0.13171   0.95114   0.27227   0.00000  Uiso   1.00
C309   C     0.17045   0.52404   0.25193   0.00000  Uiso   1.00
C310   C     0.17023   0.97521   0.25251   0.00000  Uiso   1.00
Cu311  Cu    0.16667   0.74999   0.29822   0.00000  Uiso   1.00
Cu312  Cu    0.16667   0.75000   0.20179   0.00000  Uiso   1.00
H313   H     0.32533   0.74976   0.19374   0.00000  Uiso   1.00
H314   H     0.00801   0.75048   0.30627   0.00000  Uiso   1.00
H315   H     0.13993   0.53202   0.31975   0.00000  Uiso   1.00
H316   H     0.23930   0.96950   0.21875   0.00000  Uiso   1.00
H317   H     0.13595   0.61167   0.31669   0.00000  Uiso   1.00
H318   H     0.23605   0.88883   0.21645   0.00000  Uiso   1.00
H319   H     0.20511   0.60977   0.18587   0.00000  Uiso   1.00
H320   H     0.10164   0.88711   0.28818   0.00000  Uiso   1.00
H321   H     0.20234   0.52949   0.18461   0.00000  Uiso   1.00
H322   H     0.10106   0.96757   0.28647   0.00000  Uiso   1.00
H323   H     0.23551   0.79156   0.04740   0.00000  Uiso   1.00
H324   H     0.14321   0.68398   0.46103   0.00000  Uiso   1.00
H325   H     0.23374   0.79240   0.13475   0.00000  Uiso   1.00
H326   H     0.13705   0.68377   0.37237   0.00000  Uiso   1.00
N327   N     0.16667   0.75001   0.12935   0.00000  Uiso   1.00
N328   N     0.16667   0.74999   0.37066   0.00000  Uiso   1.00
O329   O     0.16667   0.68572   0.29072   0.00000  Uiso   1.00
O330   O     0.16666   0.81427   0.20929   0.00000  Uiso   1.00
O331   O     0.16667   0.68573   0.20928   0.00000  Uiso   1.00
O332   O     0.16666   0.81427   0.29072   0.00000  Uiso   1.00
O333   O     0.09161   0.74999   0.28132   0.00000  Uiso   1.00
O334   O     0.24172   0.75000   0.21868   0.00000  Uiso   1.00
O335   O     0.09161   0.75000   0.19989   0.00000  Uiso   1.00
O336   O     0.24172   0.75000   0.30012   0.00000  Uiso   1.00
C337   C     0.10137   0.68487   0.11375   0.00000  Uiso   1.00
C338   C     0.13414   0.64420   0.11121   0.00000  Uiso   1.00
C339   C     0.13055   0.62321   0.06032   0.00000  Uiso   1.00
H340   H     0.08982   0.61372   0.04518   0.00000  Uiso   1.00
H341   H     0.14737   0.64623   0.03611   0.00000  Uiso   1.00
H342   H     0.15288   0.59283   0.06208   0.00000  Uiso   1.00
H343   H     0.17529   0.65355   0.12473   0.00000  Uiso   1.00
H344   H     0.12043   0.61875   0.13480   0.00000  Uiso   1.00
H345   H     0.09273   0.68905   0.15068   0.00000  Uiso   1.00
H346   H     0.06274   0.67715   0.09256   0.00000  Uiso   1.00
C347   C     0.22834   0.81817   0.38423   0.00000  Uiso   1.00
C348   C     0.28250   0.81295   0.41314   0.00000  Uiso   1.00
C349   C     0.29344   0.84060   0.46047   0.00000  Uiso   1.00
H350   H     0.28100   0.87493   0.45513   0.00000  Uiso   1.00
H351   H     0.27428   0.82492   0.48865   0.00000  Uiso   1.00
H352   H     0.00209   0.84204   0.47374   0.00000  Uiso   1.00
H353   H     0.28860   0.77756   0.42043   0.00000  Uiso   1.00
H354   H     0.31178   0.82386   0.39039   0.00000  Uiso   1.00
H355   H     0.23427   0.81050   0.34739   0.00000  Uiso   1.00
H356   H     0.21750   0.85314   0.38362   0.00000  Uiso   1.00
C357   C     0.07034   0.71957   0.01431   0.00000  Uiso   1.00
C358   C     0.02295   0.74039   0.03023   0.00000  Uiso   1.00
C359   C     0.30692   0.71548   0.00547   0.00000  Uiso   1.00
H360   H     0.30623   0.71283   0.46560   0.00000  Uiso   1.00
H361   H     0.30435   0.68166   0.01960   0.00000  Uiso   1.00
H362   H     0.27280   0.73312   0.01275   0.00000  Uiso   1.00
H363   H     0.02382   0.74006   0.07011   0.00000  Uiso   1.00
H364   H     0.02231   0.77552   0.01994   0.00000  Uiso   1.00
H365   H     0.06989   0.72939   0.47638   0.00000  Uiso   1.00
H366   H     0.06556   0.68299   0.01271   0.00000  Uiso   1.00
C367   C     0.16986   0.83871   0.46951   0.00000  Uiso   1.00
C368   C     0.11356   0.84711   0.47408   0.00000  Uiso   1.00
C369   C     0.10867   0.89378   0.49481   0.00000  Uiso   1.00
H370   H     0.13202   0.89828   0.03146   0.00000  Uiso   1.00
H371   H     0.12204   0.91885   0.47059   0.00000  Uiso   1.00
H372   H     0.06778   0.89925   0.49800   0.00000  Uiso   1.00
H373   H     0.08940   0.84312   0.43774   0.00000  Uiso   1.00
H374   H     0.09865   0.82297   0.49839   0.00000  Uiso   1.00
H375   H     0.19394   0.84386   0.00544   0.00000  Uiso   1.00
H376   H     0.18311   0.86492   0.44692   0.00000  Uiso   1.00
C377   C     0.50052   0.66496   0.24963   0.00000  Uiso   1.00
C378   C     0.50053   0.83482   0.25071   0.00000  Uiso   1.00
C379   C     0.53633   0.77524   0.06009   0.00000  Uiso   1.00
C380   C     0.48591   0.71437   0.44416   0.00000  Uiso   1.00
C381   C     0.53638   0.77461   0.11055   0.00000  Uiso   1.00
C382   C     0.48347   0.71388   0.39324   0.00000  Uiso   1.00
C383   C     0.46183   0.72615   0.09761   0.00000  Uiso   1.00
C384   C     0.52003   0.78698   0.39945   0.00000  Uiso   1.00
C385   C     0.45426   0.73427   0.04679   0.00000  Uiso   1.00
C386   C     0.50829   0.79254   0.44754   0.00000  Uiso   1.00
C387   C     0.49504   0.75535   0.02690   0.00000  Uiso   1.00
C388   C     0.49649   0.75432   0.47238   0.00000  Uiso   1.00
C389   C     0.40121   0.74992   0.23743   0.00000  Uiso   1.00
C390   C     0.59879   0.75017   0.26257   0.00000  Uiso   1.00
C391   C     0.34576   0.74997   0.23067   0.00000  Uiso   1.00
C392   C     0.65424   0.75024   0.26933   0.00000  Uiso   1.00
C393   C     0.48581   0.54825   0.28922   0.00000  Uiso   1.00
C394   C     0.54159   0.95216   0.23303   0.00000  Uiso   1.00
C395   C     0.48420   0.59401   0.28785   0.00000  Uiso   1.00
C396   C     0.54021   0.90616   0.23212   0.00000  Uiso   1.00
C397   C     0.50169   0.61665   0.24984   0.00000  Uiso   1.00
C398   C     0.50203   0.88274   0.25224   0.00000  Uiso   1.00
C399   C     0.52192   0.59290   0.21385   0.00000  Uiso   1.00
C400   C     0.46490   0.90520   0.27292   0.00000  Uiso   1.00
C401   C     0.52184   0.54692   0.21417   0.00000  Uiso   1.00
C402   C     0.46504   0.95114   0.27227   0.00000  Uiso   1.00
C403   C     0.50378   0.52404   0.25193   0.00000  Uiso   1.00
C404   C     0.50357   0.97521   0.25251   0.00000  Uiso   1.00
Cu405  Cu    0.50000   0.74999   0.29822   0.00000  Uiso   1.00
Cu406  Cu    0.50000   0.75000   0.20179   0.00000  Uiso   1.00
H407   H     0.65866   0.74976   0.19374   0.00000  Uiso   1.00
H408   H     0.34134   0.75048   0.30627   0.00000  Uiso   1.00
H409   H     0.47327   0.53202   0.31975   0.00000  Uiso   1.00
H410   H     0.57264   0.96950   0.21875   0.00000  Uiso   1.00
H411   H     0.46928   0.61167   0.31669   0.00000  Uiso   1.00
H412   H     0.56938   0.88883   0.21645   0.00000  Uiso   1.00
H413   H     0.53844   0.60977   0.18587   0.00000  Uiso   1.00
H414   H     0.43498   0.88711   0.28818   0.00000  Uiso   1.00
H415   H     0.53567   0.52949   0.18461   0.00000  Uiso   1.00
H416   H     0.43440   0.96757   0.28647   0.00000  Uiso   1.00
H417   H     0.56885   0.79156   0.04740   0.00000  Uiso   1.00
H418   H     0.47655   0.68398   0.46103   0.00000  Uiso   1.00
H419   H     0.56707   0.79240   0.13475   0.00000  Uiso   1.00
H420   H     0.47038   0.68377   0.37237   0.00000  Uiso   1.00
N421   N     0.50000   0.75001   0.12935   0.00000  Uiso   1.00
N422   N     0.50000   0.74999   0.37066   0.00000  Uiso   1.00
O423   O     0.50000   0.68572   0.29072   0.00000  Uiso   1.00
O424   O     0.50000   0.81427   0.20929   0.00000  Uiso   1.00
O425   O     0.50000   0.68573   0.20928   0.00000  Uiso   1.00
O426   O     0.50000   0.81427   0.29072   0.00000  Uiso   1.00
O427   O     0.42495   0.74999   0.28132   0.00000  Uiso   1.00
O428   O     0.57505   0.75000   0.21868   0.00000  Uiso   1.00
O429   O     0.42495   0.75000   0.19989   0.00000  Uiso   1.00
O430   O     0.57505   0.75000   0.30012   0.00000  Uiso   1.00
C431   C     0.43471   0.68487   0.11375   0.00000  Uiso   1.00
C432   C     0.46747   0.64420   0.11121   0.00000  Uiso   1.00
C433   C     0.46388   0.62321   0.06032   0.00000  Uiso   1.00
H434   H     0.42315   0.61372   0.04518   0.00000  Uiso   1.00
H435   H     0.48070   0.64623   0.03611   0.00000  Uiso   1.00
H436   H     0.48622   0.59283   0.06208   0.00000  Uiso   1.00
H437   H     0.50862   0.65355   0.12473   0.00000  Uiso   1.00
H438   H     0.45376   0.61875   0.13480   0.00000  Uiso   1.00
H439   H     0.42606   0.68905   0.15068   0.00000  Uiso   1.00
H440   H     0.39607   0.67715   0.09256   0.00000  Uiso   1.00
C441   C     0.56168   0.81817   0.38423   0.00000  Uiso   1.00
C442   C     0.61584   0.81295   0.41314   0.00000  Uiso   1.00
C443   C     0.62677   0.84060   0.46047   0.00000  Uiso   1.00
H444   H     0.61434   0.87493   0.45513   0.00000  Uiso   1.00
H445   H     0.60761   0.82492   0.48865   0.00000  Uiso   1.00
H446   H     0.33542   0.84204   0.47374   0.00000  Uiso   1.00
H447   H     0.62194   0.77756   0.42043   0.00000  Uiso   1.00
H448   H     0.64512   0.82386   0.39039   0.00000  Uiso   1.00
H449   H     0.56761   0.81050   0.34739   0.00000  Uiso   1.00
H450   H     0.55084   0.85314   0.38362   0.00000  Uiso   1.00
C451   C     0.40368   0.71957   0.01431   0.00000  Uiso   1.00
C452   C     0.35628   0.74039   0.03023   0.00000  Uiso   1.00
C453   C     0.64026   0.71548   0.00547   0.00000  Uiso   1.00
H454   H     0.63956   0.71283   0.46560   0.00000  Uiso   1.00
H455   H     0.63768   0.68166   0.01960   0.00000  Uiso   1.00
H456   H     0.60614   0.73312   0.01275   0.00000  Uiso   1.00
H457   H     0.35716   0.74006   0.07011   0.00000  Uiso   1.00
H458   H     0.35564   0.77552   0.01994   0.00000  Uiso   1.00
H459   H     0.40322   0.72939   0.47638   0.00000  Uiso   1.00
H460   H     0.39889   0.68299   0.01271   0.00000  Uiso   1.00
C461   C     0.50320   0.83871   0.46951   0.00000  Uiso   1.00
C462   C     0.44689   0.84711   0.47408   0.00000  Uiso   1.00
C463   C     0.44201   0.89378   0.49481   0.00000  Uiso   1.00
H464   H     0.46535   0.89828   0.03146   0.00000  Uiso   1.00
H465   H     0.45537   0.91885   0.47059   0.00000  Uiso   1.00
H466   H     0.40111   0.89925   0.49800   0.00000  Uiso   1.00
H467   H     0.42273   0.84312   0.43774   0.00000  Uiso   1.00
H468   H     0.43199   0.82297   0.49839   0.00000  Uiso   1.00
H469   H     0.52727   0.84386   0.00544   0.00000  Uiso   1.00
H470   H     0.51644   0.86492   0.44692   0.00000  Uiso   1.00
C471   C     0.83386   0.66496   0.24963   0.00000  Uiso   1.00
C472   C     0.83386   0.83482   0.25071   0.00000  Uiso   1.00
C473   C     0.86966   0.77524   0.06009   0.00000  Uiso   1.00
C474   C     0.81924   0.71437   0.44416   0.00000  Uiso   1.00
C475   C     0.86971   0.77461   0.11055   0.00000  Uiso   1.00
C476   C     0.81680   0.71388   0.39324   0.00000  Uiso   1.00
C477   C     0.79516   0.72615   0.09761   0.00000  Uiso   1.00
C478   C     0.85336   0.78698   0.39945   0.00000  Uiso   1.00
C479   C     0.78759   0.73427   0.04679   0.00000  Uiso   1.00
C480   C     0.84162   0.79254   0.44754   0.00000  Uiso   1.00
C481   C     0.82837   0.75535   0.02690   0.00000  Uiso   1.00
C482   C     0.82982   0.75432   0.47238   0.00000  Uiso   1.00
C483   C     0.73454   0.74992   0.23743   0.00000  Uiso   1.00
C484   C     0.93213   0.75017   0.26257   0.00000  Uiso   1.00
C485   C     0.67909   0.74997   0.23067   0.00000  Uiso   1.00
C486   C     0.98758   0.75024   0.26933   0.00000  Uiso   1.00
C487   C     0.81915   0.54825   0.28922   0.00000  Uiso   1.00
C488   C     0.87492   0.95216   0.23303   0.00000  Uiso   1.00
C489   C     0.81753   0.59401   0.28785   0.00000  Uiso   1.00
C490   C     0.87355   0.90616   0.23212   0.00000  Uiso   1.00
C491   C     0.83502   0.61665   0.24984   0.00000  Uiso   1.00
C492   C     0.83537   0.88274   0.25224   0.00000  Uiso   1.00
C493   C     0.85525   0.59290   0.21385   0.00000  Uiso   1.00
C494   C     0.79824   0.90520   0.27292   0.00000  Uiso   1.00
C495   C     0.85517   0.54692   0.21417   0.00000  Uiso   1.00
C496   C     0.79837   0.95114   0.27227   0.00000  Uiso   1.00
C497   C     0.83711   0.52404   0.25193   0.00000  Uiso   1.00
C498   C     0.83690   0.97521   0.25251   0.00000  Uiso   1.00
Cu499  Cu    0.83333   0.74999   0.29822   0.00000  Uiso   1.00
Cu500  Cu    0.83333   0.75000   0.20179   0.00000  Uiso   1.00
H501   H     0.99200   0.74976   0.19374   0.00000  Uiso   1.00
H502   H     0.67467   0.75048   0.30627   0.00000  Uiso   1.00
H503   H     0.80660   0.53202   0.31975   0.00000  Uiso   1.00
H504   H     0.90597   0.96950   0.21875   0.00000  Uiso   1.00
H505   H     0.80262   0.61167   0.31669   0.00000  Uiso   1.00
H506   H     0.90272   0.88883   0.21645   0.00000  Uiso   1.00
H507   H     0.87177   0.60977   0.18587   0.00000  Uiso   1.00
H508   H     0.76831   0.88711   0.28818   0.00000  Uiso   1.00
H509   H     0.86901   0.52949   0.18461   0.00000  Uiso   1.00
H510   H     0.76773   0.96757   0.28647   0.00000  Uiso   1.00
H511   H     0.90218   0.79156   0.04740   0.00000  Uiso   1.00
H512   H     0.80988   0.68398   0.46103   0.00000  Uiso   1.00
H513   H     0.90040   0.79240   0.13475   0.00000  Uiso   1.00
H514   H     0.80372   0.68377   0.37237   0.00000  Uiso   1.00
N515   N     0.83333   0.75001   0.12935   0.00000  Uiso   1.00
N516   N     0.83333   0.74999   0.37066   0.00000  Uiso   1.00
O517   O     0.83334   0.68572   0.29072   0.00000  Uiso   1.00
O518   O     0.83333   0.81427   0.20929   0.00000  Uiso   1.00
O519   O     0.83334   0.68573   0.20928   0.00000  Uiso   1.00
O520   O     0.83333   0.81427   0.29072   0.00000  Uiso   1.00
O521   O     0.75828   0.74999   0.28132   0.00000  Uiso   1.00
O522   O     0.90839   0.75000   0.21868   0.00000  Uiso   1.00
O523   O     0.75828   0.75000   0.19989   0.00000  Uiso   1.00
O524   O     0.90839   0.75000   0.30012   0.00000  Uiso   1.00
C525   C     0.76804   0.68487   0.11375   0.00000  Uiso   1.00
C526   C     0.80080   0.64420   0.11121   0.00000  Uiso   1.00
C527   C     0.79721   0.62321   0.06032   0.00000  Uiso   1.00
H528   H     0.75648   0.61372   0.04518   0.00000  Uiso   1.00
H529   H     0.81403   0.64623   0.03611   0.00000  Uiso   1.00
H530   H     0.81955   0.59283   0.06208   0.00000  Uiso   1.00
H531   H     0.84195   0.65355   0.12473   0.00000  Uiso   1.00
H532   H     0.78709   0.61875   0.13480   0.00000  Uiso   1.00
H533   H     0.75940   0.68905   0.15068   0.00000  Uiso   1.00
H534   H     0.72940   0.67715   0.09256   0.00000  Uiso   1.00
C535   C     0.89501   0.81817   0.38423   0.00000  Uiso   1.00
C536   C     0.94917   0.81295   0.41314   0.00000  Uiso   1.00
C537   C     0.96011   0.84060   0.46047   0.00000  Uiso   1.00
H538   H     0.94767   0.87493   0.45513   0.00000  Uiso   1.00
H539   H     0.94095   0.82492   0.48865   0.00000  Uiso   1.00
H540   H     0.66876   0.84204   0.47374   0.00000  Uiso   1.00
H541   H     0.95527   0.77756   0.42043   0.00000  Uiso   1.00
H542   H     0.97845   0.82386   0.39039   0.00000  Uiso   1.00
H543   H     0.90094   0.81050   0.34739   0.00000  Uiso   1.00
H544   H     0.88417   0.85314   0.38362   0.00000  Uiso   1.00
C545   C     0.73701   0.71957   0.01431   0.00000  Uiso   1.00
C546   C     0.68962   0.74039   0.03023   0.00000  Uiso   1.00
C547   C     0.97359   0.71548   0.00547   0.00000  Uiso   1.00
H548   H     0.97290   0.71283   0.46560   0.00000  Uiso   1.00
H549   H     0.97102   0.68166   0.01960   0.00000  Uiso   1.00
H550   H     0.93947   0.73312   0.01275   0.00000  Uiso   1.00
H551   H     0.69049   0.74006   0.07011   0.00000  Uiso   1.00
H552   H     0.68897   0.77552   0.01994   0.00000  Uiso   1.00
H553   H     0.73656   0.72939   0.47638   0.00000  Uiso   1.00
H554   H     0.73223   0.68299   0.01271   0.00000  Uiso   1.00
C555   C     0.83653   0.83871   0.46951   0.00000  Uiso   1.00
C556   C     0.78023   0.84711   0.47408   0.00000  Uiso   1.00
C557   C     0.77534   0.89378   0.49481   0.00000  Uiso   1.00
H558   H     0.79868   0.89828   0.03146   0.00000  Uiso   1.00
H559   H     0.78870   0.91885   0.47059   0.00000  Uiso   1.00
H560   H     0.73445   0.89925   0.49800   0.00000  Uiso   1.00
H561   H     0.75606   0.84312   0.43774   0.00000  Uiso   1.00
H562   H     0.76532   0.82297   0.49839   0.00000  Uiso   1.00
H563   H     0.86060   0.84386   0.00544   0.00000  Uiso   1.00
H564   H     0.84978   0.86492   0.44692   0.00000  Uiso   1.00
C565   C     0.16719   0.16496   0.74963   0.00000  Uiso   1.00
C566   C     0.16719   0.33482   0.75071   0.00000  Uiso   1.00
C567   C     0.20299   0.27524   0.56009   0.00000  Uiso   1.00
C568   C     0.15258   0.21437   0.94416   0.00000  Uiso   1.00
C569   C     0.20304   0.27461   0.61055   0.00000  Uiso   1.00
C570   C     0.15013   0.21388   0.89324   0.00000  Uiso   1.00
C571   C     0.12849   0.22615   0.59761   0.00000  Uiso   1.00
C572   C     0.18669   0.28698   0.89945   0.00000  Uiso   1.00
C573   C     0.12092   0.23427   0.54679   0.00000  Uiso   1.00
C574   C     0.17495   0.29254   0.94754   0.00000  Uiso   1.00
C575   C     0.16170   0.25535   0.52690   0.00000  Uiso   1.00
C576   C     0.16315   0.25432   0.97238   0.00000  Uiso   1.00
C577   C     0.06788   0.24992   0.73743   0.00000  Uiso   1.00
C578   C     0.26546   0.25017   0.76257   0.00000  Uiso   1.00
C579   C     0.01243   0.24997   0.73067   0.00000  Uiso   1.00
C580   C     0.32091   0.25024   0.76933   0.00000  Uiso   1.00
C581   C     0.15248   0.04825   0.78922   0.00000  Uiso   1.00
C582   C     0.20825   0.45216   0.73303   0.00000  Uiso   1.00
C583   C     0.15086   0.09401   0.78785   0.00000  Uiso   1.00
C584   C     0.20688   0.40616   0.73212   0.00000  Uiso   1.00
C585   C     0.16836   0.11665   0.74984   0.00000  Uiso   1.00
C586   C     0.16870   0.38274   0.75224   0.00000  Uiso   1.00
C587   C     0.18858   0.09290   0.71385   0.00000  Uiso   1.00
C588   C     0.13157   0.40520   0.77292   0.00000  Uiso   1.00
C589   C     0.18850   0.04692   0.71417   0.00000  Uiso   1.00
C590   C     0.13171   0.45114   0.77227   0.00000  Uiso   1.00
C591   C     0.17045   0.02404   0.75193   0.00000  Uiso   1.00
C592   C     0.17023   0.47521   0.75251   0.00000  Uiso   1.00
Cu593  Cu    0.16667   0.24999   0.79822   0.00000  Uiso   1.00
Cu594  Cu    0.16667   0.25000   0.70179   0.00000  Uiso   1.00
H595   H     0.32533   0.24976   0.69374   0.00000  Uiso   1.00
H596   H     0.00801   0.25048   0.80627   0.00000  Uiso   1.00
H597   H     0.13993   0.03202   0.81975   0.00000  Uiso   1.00
H598   H     0.23930   0.46950   0.71875   0.00000  Uiso   1.00
H599   H     0.13595   0.11167   0.81669   0.00000  Uiso   1.00
H600   H     0.23605   0.38883   0.71645   0.00000  Uiso   1.00
H601   H     0.20511   0.10977   0.68587   0.00000  Uiso   1.00
H602   H     0.10164   0.38711   0.78818   0.00000  Uiso   1.00
H603   H     0.20234   0.02949   0.68461   0.00000  Uiso   1.00
H604   H     0.10106   0.46757   0.78647   0.00000  Uiso   1.00
H605   H     0.23551   0.29156   0.54740   0.00000  Uiso   1.00
H606   H     0.14321   0.18398   0.96103   0.00000  Uiso   1.00
H607   H     0.23374   0.29240   0.63475   0.00000  Uiso   1.00
H608   H     0.13705   0.18377   0.87237   0.00000  Uiso   1.00
N609   N     0.16667   0.25001   0.62935   0.00000  Uiso   1.00
N610   N     0.16667   0.24999   0.87066   0.00000  Uiso   1.00
O611   O     0.16667   0.18572   0.79072   0.00000  Uiso   1.00
O612   O     0.16666   0.31427   0.70929   0.00000  Uiso   1.00
O613   O     0.16667   0.18573   0.70928   0.00000  Uiso   1.00
O614   O     0.16666   0.31427   0.79072   0.00000  Uiso   1.00
O615   O     0.09161   0.24999   0.78132   0.00000  Uiso   1.00
O616   O     0.24172   0.25000   0.71868   0.00000  Uiso   1.00
O617   O     0.09161   0.25000   0.69989   0.00000  Uiso   1.00
O618   O     0.24172   0.25000   0.80012   0.00000  Uiso   1.00
C619   C     0.10137   0.18487   0.61375   0.00000  Uiso   1.00
C620   C     0.13414   0.14420   0.61121   0.00000  Uiso   1.00
C621   C     0.13055   0.12321   0.56032   0.00000  Uiso   1.00
H622   H     0.08982   0.11372   0.54518   0.00000  Uiso   1.00
H623   H     0.14737   0.14623   0.53611   0.00000  Uiso   1.00
H624   H     0.15288   0.09283   0.56208   0.00000  Uiso   1.00
H625   H     0.17529   0.15355   0.62473   0.00000  Uiso   1.00
H626   H     0.12043   0.11875   0.63480   0.00000  Uiso   1.00
H627   H     0.09273   0.18905   0.65068   0.00000  Uiso   1.00
H628   H     0.06274   0.17715   0.59256   0.00000  Uiso   1.00
C629   C     0.22834   0.31817   0.88423   0.00000  Uiso   1.00
C630   C     0.28250   0.31295   0.91314   0.00000  Uiso   1.00
C631   C     0.29344   0.34060   0.96047   0.00000  Uiso   1.00
H632   H     0.28100   0.37493   0.95513   0.00000  Uiso   1.00
H633   H     0.27428   0.32492   0.98865   0.00000  Uiso   1.00
H634   H     0.00209   0.34204   0.97374   0.00000  Uiso   1.00
H635   H     0.28860   0.27756   0.92043   0.00000  Uiso   1.00
H636   H     0.31178   0.32386   0.89039   0.00000  Uiso   1.00
H637   H     0.23427   0.31050   0.84739   0.00000  Uiso   1.00
H638   H     0.21750   0.35314   0.88362   0.00000  Uiso   1.00
C639   C     0.07034   0.21957   0.51431   0.00000  Uiso   1.00
C640   C     0.02295   0.24039   0.53023   0.00000  Uiso   1.00
C641   C     0.30692   0.21548   0.50547   0.00000  Uiso   1.00
H642   H     0.30623   0.21283   0.96560   0.00000  Uiso   1.00
H643   H     0.30435   0.18166   0.51960   0.00000  Uiso   1.00
H644   H     0.27280   0.23312   0.51275   0.00000  Uiso   1.00
H645   H     0.02382   0.24006   0.57011   0.00000  Uiso   1.00
H646   H     0.02231   0.27552   0.51994   0.00000  Uiso   1.00
H647   H     0.06989   0.22939   0.97638   0.00000  Uiso   1.00
H648   H     0.06556   0.18299   0.51271   0.00000  Uiso   1.00
C649   C     0.16986   0.33871   0.96951   0.00000  Uiso   1.00
C650   C     0.11356   0.34711   0.97408   0.00000  Uiso   1.00
C651   C     0.10867   0.39378   0.99481   0.00000  Uiso   1.00
H652   H     0.13202   0.39828   0.53146   0.00000  Uiso   1.00
H653   H     0.12204   0.41885   0.97059   0.00000  Uiso   1.00
H654   H     0.06778   0.39925   0.99800   0.00000  Uiso   1.00
H655   H     0.08940   0.34312   0.93774   0.00000  Uiso   1.00
H656   H     0.09865   0.32297   0.99839   0.00000  Uiso   1.00
H657   H     0.19394   0.34386   0.50544   0.00000  Uiso   1.00
H658   H     0.18311   0.36492   0.94692   0.00000  Uiso   1.00
C659   C     0.50052   0.16496   0.74963   0.00000  Uiso   1.00
C660   C     0.50053   0.33482   0.75071   0.00000  Uiso   1.00
C661   C     0.53633   0.27524   0.56009   0.00000  Uiso   1.00
C662   C     0.48591   0.21437   0.94416   0.00000  Uiso   1.00
C663   C     0.53638   0.27461   0.61055   0.00000  Uiso   1.00
C664   C     0.48347   0.21388   0.89324   0.00000  Uiso   1.00
C665   C     0.46183   0.22615   0.59761   0.00000  Uiso   1.00
C666   C     0.52003   0.28698   0.89945   0.00000  Uiso   1.00
C667   C     0.45426   0.23427   0.54679   0.00000  Uiso   1.00
C668   C     0.50829   0.29254   0.94754   0.00000  Uiso   1.00
C669   C     0.49504   0.25535   0.52690   0.00000  Uiso   1.00
C670   C     0.49649   0.25432   0.97238   0.00000  Uiso   1.00
C671   C     0.40121   0.24992   0.73743   0.00000  Uiso   1.00
C672   C     0.59879   0.25017   0.76257   0.00000  Uiso   1.00
C673   C     0.34576   0.24997   0.73067   0.00000  Uiso   1.00
C674   C     0.65424   0.25024   0.76933   0.00000  Uiso   1.00
C675   C     0.48581   0.04825   0.78922   0.00000  Uiso   1.00
C676   C     0.54159   0.45216   0.73303   0.00000  Uiso   1.00
C677   C     0.48420   0.09401   0.78785   0.00000  Uiso   1.00
C678   C     0.54021   0.40616   0.73212   0.00000  Uiso   1.00
C679   C     0.50169   0.11665   0.74984   0.00000  Uiso   1.00
C680   C     0.50203   0.38274   0.75224   0.00000  Uiso   1.00
C681   C     0.52192   0.09290   0.71385   0.00000  Uiso   1.00
C682   C     0.46490   0.40520   0.77292   0.00000  Uiso   1.00
C683   C     0.52184   0.04692   0.71417   0.00000  Uiso   1.00
C684   C     0.46504   0.45114   0.77227   0.00000  Uiso   1.00
C685   C     0.50378   0.02404   0.75193   0.00000  Uiso   1.00
C686   C     0.50357   0.47521   0.75251   0.00000  Uiso   1.00
Cu687  Cu    0.50000   0.24999   0.79822   0.00000  Uiso   1.00
Cu688  Cu    0.50000   0.25000   0.70179   0.00000  Uiso   1.00
H689   H     0.65866   0.24976   0.69374   0.00000  Uiso   1.00
H690   H     0.34134   0.25048   0.80627   0.00000  Uiso   1.00
H691   H     0.47327   0.03202   0.81975   0.00000  Uiso   1.00
H692   H     0.57264   0.46950   0.71875   0.00000  Uiso   1.00
H693   H     0.46928   0.11167   0.81669   0.00000  Uiso   1.00
H694   H     0.56938   0.38883   0.71645   0.00000  Uiso   1.00
H695   H     0.53844   0.10977   0.68587   0.00000  Uiso   1.00
H696   H     0.43498   0.38711   0.78818   0.00000  Uiso   1.00
H697   H     0.53567   0.02949   0.68461   0.00000  Uiso   1.00
H698   H     0.43440   0.46757   0.78647   0.00000  Uiso   1.00
H699   H     0.56885   0.29156   0.54740   0.00000  Uiso   1.00
H700   H     0.47655   0.18398   0.96103   0.00000  Uiso   1.00
H701   H     0.56707   0.29240   0.63475   0.00000  Uiso   1.00
H702   H     0.47038   0.18377   0.87237   0.00000  Uiso   1.00
N703   N     0.50000   0.25001   0.62935   0.00000  Uiso   1.00
N704   N     0.50000   0.24999   0.87066   0.00000  Uiso   1.00
O705   O     0.50000   0.18572   0.79072   0.00000  Uiso   1.00
O706   O     0.50000   0.31427   0.70929   0.00000  Uiso   1.00
O707   O     0.50000   0.18573   0.70928   0.00000  Uiso   1.00
O708   O     0.50000   0.31427   0.79072   0.00000  Uiso   1.00
O709   O     0.42495   0.24999   0.78132   0.00000  Uiso   1.00
O710   O     0.57505   0.25000   0.71868   0.00000  Uiso   1.00
O711   O     0.42495   0.25000   0.69989   0.00000  Uiso   1.00
O712   O     0.57505   0.25000   0.80012   0.00000  Uiso   1.00
C713   C     0.43471   0.18487   0.61375   0.00000  Uiso   1.00
C714   C     0.46747   0.14420   0.61121   0.00000  Uiso   1.00
C715   C     0.46388   0.12321   0.56032   0.00000  Uiso   1.00
H716   H     0.42315   0.11372   0.54518   0.00000  Uiso   1.00
H717   H     0.48070   0.14623   0.53611   0.00000  Uiso   1.00
H718   H     0.48622   0.09283   0.56208   0.00000  Uiso   1.00
H719   H     0.50862   0.15355   0.62473   0.00000  Uiso   1.00
H720   H     0.45376   0.11875   0.63480   0.00000  Uiso   1.00
H721   H     0.42606   0.18905   0.65068   0.00000  Uiso   1.00
H722   H     0.39607   0.17715   0.59256   0.00000  Uiso   1.00
C723   C     0.56168   0.31817   0.88423   0.00000  Uiso   1.00
C724   C     0.61584   0.31295   0.91314   0.00000  Uiso   1.00
C725   C     0.62677   0.34060   0.96047   0.00000  Uiso   1.00
H726   H     0.61434   0.37493   0.95513   0.00000  Uiso   1.00
H727   H     0.60761   0.32492   0.98865   0.00000  Uiso   1.00
H728   H     0.33542   0.34204   0.97374   0.00000  Uiso   1.00
H729   H     0.62194   0.27756   0.92043   0.00000  Uiso   1.00
H730   H     0.64512   0.32386   0.89039   0.00000  Uiso   1.00
H731   H     0.56761   0.31050   0.84739   0.00000  Uiso   1.00
H732   H     0.55084   0.35314   0.88362   0.00000  Uiso   1.00
C733   C     0.40368   0.21957   0.51431   0.00000  Uiso   1.00
C734   C     0.35628   0.24039   0.53023   0.00000  Uiso   1.00
C735   C     0.64026   0.21548   0.50547   0.00000  Uiso   1.00
H736   H     0.63956   0.21283   0.96560   0.00000  Uiso   1.00
H737   H     0.63768   0.18166   0.51960   0.00000  Uiso   1.00
H738   H     0.60614   0.23312   0.51275   0.00000  Uiso   1.00
H739   H     0.35716   0.24006   0.57011   0.00000  Uiso   1.00
H740   H     0.35564   0.27552   0.51994   0.00000  Uiso   1.00
H741   H     0.40322   0.22939   0.97638   0.00000  Uiso   1.00
H742   H     0.39889   0.18299   0.51271   0.00000  Uiso   1.00
C743   C     0.50320   0.33871   0.96951   0.00000  Uiso   1.00
C744   C     0.44689   0.34711   0.97408   0.00000  Uiso   1.00
C745   C     0.44201   0.39378   0.99481   0.00000  Uiso   1.00
H746   H     0.46535   0.39828   0.53146   0.00000  Uiso   1.00
H747   H     0.45537   0.41885   0.97059   0.00000  Uiso   1.00
H748   H     0.40111   0.39925   0.99800   0.00000  Uiso   1.00
H749   H     0.42273   0.34312   0.93774   0.00000  Uiso   1.00
H750   H     0.43199   0.32297   0.99839   0.00000  Uiso   1.00
H751   H     0.52727   0.34386   0.50544   0.00000  Uiso   1.00
H752   H     0.51644   0.36492   0.94692   0.00000  Uiso   1.00
C753   C     0.83386   0.16496   0.74963   0.00000  Uiso   1.00
C754   C     0.83386   0.33482   0.75071   0.00000  Uiso   1.00
C755   C     0.86966   0.27524   0.56009   0.00000  Uiso   1.00
C756   C     0.81924   0.21437   0.94416   0.00000  Uiso   1.00
C757   C     0.86971   0.27461   0.61055   0.00000  Uiso   1.00
C758   C     0.81680   0.21388   0.89324   0.00000  Uiso   1.00
C759   C     0.79516   0.22615   0.59761   0.00000  Uiso   1.00
C760   C     0.85336   0.28698   0.89945   0.00000  Uiso   1.00
C761   C     0.78759   0.23427   0.54679   0.00000  Uiso   1.00
C762   C     0.84162   0.29254   0.94754   0.00000  Uiso   1.00
C763   C     0.82837   0.25535   0.52690   0.00000  Uiso   1.00
C764   C     0.82982   0.25432   0.97238   0.00000  Uiso   1.00
C765   C     0.73454   0.24992   0.73743   0.00000  Uiso   1.00
C766   C     0.93213   0.25017   0.76257   0.00000  Uiso   1.00
C767   C     0.67909   0.24997   0.73067   0.00000  Uiso   1.00
C768   C     0.98758   0.25024   0.76933   0.00000  Uiso   1.00
C769   C     0.81915   0.04825   0.78922   0.00000  Uiso   1.00
C770   C     0.87492   0.45216   0.73303   0.00000  Uiso   1.00
C771   C     0.81753   0.09401   0.78785   0.00000  Uiso   1.00
C772   C     0.87355   0.40616   0.73212   0.00000  Uiso   1.00
C773   C     0.83502   0.11665   0.74984   0.00000  Uiso   1.00
C774   C     0.83537   0.38274   0.75224   0.00000  Uiso   1.00
C775   C     0.85525   0.09290   0.71385   0.00000  Uiso   1.00
C776   C     0.79824   0.40520   0.77292   0.00000  Uiso   1.00
C777   C     0.85517   0.04692   0.71417   0.00000  Uiso   1.00
C778   C     0.79837   0.45114   0.77227   0.00000  Uiso   1.00
C779   C     0.83711   0.02404   0.75193   0.00000  Uiso   1.00
C780   C     0.83690   0.47521   0.75251   0.00000  Uiso   1.00
Cu781  Cu    0.83333   0.24999   0.79822   0.00000  Uiso   1.00
Cu782  Cu    0.83333   0.25000   0.70179   0.00000  Uiso   1.00
H783   H     0.99200   0.24976   0.69374   0.00000  Uiso   1.00
H784   H     0.67467   0.25048   0.80627   0.00000  Uiso   1.00
H785   H     0.80660   0.03202   0.81975   0.00000  Uiso   1.00
H786   H     0.90597   0.46950   0.71875   0.00000  Uiso   1.00
H787   H     0.80262   0.11167   0.81669   0.00000  Uiso   1.00
H788   H     0.90272   0.38883   0.71645   0.00000  Uiso   1.00
H789   H     0.87177   0.10977   0.68587   0.00000  Uiso   1.00
H790   H     0.76831   0.38711   0.78818   0.00000  Uiso   1.00
H791   H     0.86901   0.02949   0.68461   0.00000  Uiso   1.00
H792   H     0.76773   0.46757   0.78647   0.00000  Uiso   1.00
H793   H     0.90218   0.29156   0.54740   0.00000  Uiso   1.00
H794   H     0.80988   0.18398   0.96103   0.00000  Uiso   1.00
H795   H     0.90040   0.29240   0.63475   0.00000  Uiso   1.00
H796   H     0.80372   0.18377   0.87237   0.00000  Uiso   1.00
N797   N     0.83333   0.25001   0.62935   0.00000  Uiso   1.00
N798   N     0.83333   0.24999   0.87066   0.00000  Uiso   1.00
O799   O     0.83334   0.18572   0.79072   0.00000  Uiso   1.00
O800   O     0.83333   0.31427   0.70929   0.00000  Uiso   1.00
O801   O     0.83334   0.18573   0.70928   0.00000  Uiso   1.00
O802   O     0.83333   0.31427   0.79072   0.00000  Uiso   1.00
O803   O     0.75828   0.24999   0.78132   0.00000  Uiso   1.00
O804   O     0.90839   0.25000   0.71868   0.00000  Uiso   1.00
O805   O     0.75828   0.25000   0.69989   0.00000  Uiso   1.00
O806   O     0.90839   0.25000   0.80012   0.00000  Uiso   1.00
C807   C     0.76804   0.18487   0.61375   0.00000  Uiso   1.00
C808   C     0.80080   0.14420   0.61121   0.00000  Uiso   1.00
C809   C     0.79721   0.12321   0.56032   0.00000  Uiso   1.00
H810   H     0.75648   0.11372   0.54518   0.00000  Uiso   1.00
H811   H     0.81403   0.14623   0.53611   0.00000  Uiso   1.00
H812   H     0.81955   0.09283   0.56208   0.00000  Uiso   1.00
H813   H     0.84195   0.15355   0.62473   0.00000  Uiso   1.00
H814   H     0.78709   0.11875   0.63480   0.00000  Uiso   1.00
H815   H     0.75940   0.18905   0.65068   0.00000  Uiso   1.00
H816   H     0.72940   0.17715   0.59256   0.00000  Uiso   1.00
C817   C     0.89501   0.31817   0.88423   0.00000  Uiso   1.00
C818   C     0.94917   0.31295   0.91314   0.00000  Uiso   1.00
C819   C     0.96011   0.34060   0.96047   0.00000  Uiso   1.00
H820   H     0.94767   0.37493   0.95513   0.00000  Uiso   1.00
H821   H     0.94095   0.32492   0.98865   0.00000  Uiso   1.00
H822   H     0.66876   0.34204   0.97374   0.00000  Uiso   1.00
H823   H     0.95527   0.27756   0.92043   0.00000  Uiso   1.00
H824   H     0.97845   0.32386   0.89039   0.00000  Uiso   1.00
H825   H     0.90094   0.31050   0.84739   0.00000  Uiso   1.00
H826   H     0.88417   0.35314   0.88362   0.00000  Uiso   1.00
C827   C     0.73701   0.21957   0.51431   0.00000  Uiso   1.00
C828   C     0.68962   0.24039   0.53023   0.00000  Uiso   1.00
C829   C     0.97359   0.21548   0.50547   0.00000  Uiso   1.00
H830   H     0.97290   0.21283   0.96560   0.00000  Uiso   1.00
H831   H     0.97102   0.18166   0.51960   0.00000  Uiso   1.00
H832   H     0.93947   0.23312   0.51275   0.00000  Uiso   1.00
H833   H     0.69049   0.24006   0.57011   0.00000  Uiso   1.00
H834   H     0.68897   0.27552   0.51994   0.00000  Uiso   1.00
H835   H     0.73656   0.22939   0.97638   0.00000  Uiso   1.00
H836   H     0.73223   0.18299   0.51271   0.00000  Uiso   1.00
C837   C     0.83653   0.33871   0.96951   0.00000  Uiso   1.00
C838   C     0.78023   0.34711   0.97408   0.00000  Uiso   1.00
C839   C     0.77534   0.39378   0.99481   0.00000  Uiso   1.00
H840   H     0.79868   0.39828   0.53146   0.00000  Uiso   1.00
H841   H     0.78870   0.41885   0.97059   0.00000  Uiso   1.00
H842   H     0.73445   0.39925   0.99800   0.00000  Uiso   1.00
H843   H     0.75606   0.34312   0.93774   0.00000  Uiso   1.00
H844   H     0.76532   0.32297   0.99839   0.00000  Uiso   1.00
H845   H     0.86060   0.34386   0.50544   0.00000  Uiso   1.00
H846   H     0.84978   0.36492   0.94692   0.00000  Uiso   1.00
C847   C     0.16719   0.66496   0.74963   0.00000  Uiso   1.00
C848   C     0.16719   0.83482   0.75071   0.00000  Uiso   1.00
C849   C     0.20299   0.77524   0.56009   0.00000  Uiso   1.00
C850   C     0.15258   0.71437   0.94416   0.00000  Uiso   1.00
C851   C     0.20304   0.77461   0.61055   0.00000  Uiso   1.00
C852   C     0.15013   0.71388   0.89324   0.00000  Uiso   1.00
C853   C     0.12849   0.72615   0.59761   0.00000  Uiso   1.00
C854   C     0.18669   0.78698   0.89945   0.00000  Uiso   1.00
C855   C     0.12092   0.73427   0.54679   0.00000  Uiso   1.00
C856   C     0.17495   0.79254   0.94754   0.00000  Uiso   1.00
C857   C     0.16170   0.75535   0.52690   0.00000  Uiso   1.00
C858   C     0.16315   0.75432   0.97238   0.00000  Uiso   1.00
C859   C     0.06788   0.74992   0.73743   0.00000  Uiso   1.00
C860   C     0.26546   0.75017   0.76257   0.00000  Uiso   1.00
C861   C     0.01243   0.74997   0.73067   0.00000  Uiso   1.00
C862   C     0.32091   0.75024   0.76933   0.00000  Uiso   1.00
C863   C     0.15248   0.54825   0.78922   0.00000  Uiso   1.00
C864   C     0.20825   0.95216   0.73303   0.00000  Uiso   1.00
C865   C     0.15086   0.59401   0.78785   0.00000  Uiso   1.00
C866   C     0.20688   0.90616   0.73212   0.00000  Uiso   1.00
C867   C     0.16836   0.61665   0.74984   0.00000  Uiso   1.00
C868   C     0.16870   0.88274   0.75224   0.00000  Uiso   1.00
C869   C     0.18858   0.59290   0.71385   0.00000  Uiso   1.00
C870   C     0.13157   0.90520   0.77292   0.00000  Uiso   1.00
C871   C     0.18850   0.54692   0.71417   0.00000  Uiso   1.00
C872   C     0.13171   0.95114   0.77227   0.00000  Uiso   1.00
C873   C     0.17045   0.52404   0.75193   0.00000  Uiso   1.00
C874   C     0.17023   0.97521   0.75251   0.00000  Uiso   1.00
Cu875  Cu    0.16667   0.74999   0.79822   0.00000  Uiso   1.00
Cu876  Cu    0.16667   0.75000   0.70179   0.00000  Uiso   1.00
H877   H     0.32533   0.74976   0.69374   0.00000  Uiso   1.00
H878   H     0.00801   0.75048   0.80627   0.00000  Uiso   1.00
H879   H     0.13993   0.53202   0.81975   0.00000  Uiso   1.00
H880   H     0.23930   0.96950   0.71875   0.00000  Uiso   1.00
H881   H     0.13595   0.61167   0.81669   0.00000  Uiso   1.00
H882   H     0.23605   0.88883   0.71645   0.00000  Uiso   1.00
H883   H     0.20511   0.60977   0.68587   0.00000  Uiso   1.00
H884   H     0.10164   0.88711   0.78818   0.00000  Uiso   1.00
H885   H     0.20234   0.52949   0.68461   0.00000  Uiso   1.00
H886   H     0.10106   0.96757   0.78647   0.00000  Uiso   1.00
H887   H     0.23551   0.79156   0.54740   0.00000  Uiso   1.00
H888   H     0.14321   0.68398   0.96103   0.00000  Uiso   1.00
H889   H     0.23374   0.79240   0.63475   0.00000  Uiso   1.00
H890   H     0.13705   0.68377   0.87237   0.00000  Uiso   1.00
N891   N     0.16667   0.75001   0.62935   0.00000  Uiso   1.00
N892   N     0.16667   0.74999   0.87066   0.00000  Uiso   1.00
O893   O     0.16667   0.68572   0.79072   0.00000  Uiso   1.00
O894   O     0.16666   0.81427   0.70929   0.00000  Uiso   1.00
O895   O     0.16667   0.68573   0.70928   0.00000  Uiso   1.00
O896   O     0.16666   0.81427   0.79072   0.00000  Uiso   1.00
O897   O     0.09161   0.74999   0.78132   0.00000  Uiso   1.00
O898   O     0.24172   0.75000   0.71868   0.00000  Uiso   1.00
O899   O     0.09161   0.75000   0.69989   0.00000  Uiso   1.00
O900   O     0.24172   0.75000   0.80012   0.00000  Uiso   1.00
C901   C     0.10137   0.68487   0.61375   0.00000  Uiso   1.00
C902   C     0.13414   0.64420   0.61121   0.00000  Uiso   1.00
C903   C     0.13055   0.62321   0.56032   0.00000  Uiso   1.00
H904   H     0.08982   0.61372   0.54518   0.00000  Uiso   1.00
H905   H     0.14737   0.64623   0.53611   0.00000  Uiso   1.00
H906   H     0.15288   0.59283   0.56208   0.00000  Uiso   1.00
H907   H     0.17529   0.65355   0.62473   0.00000  Uiso   1.00
H908   H     0.12043   0.61875   0.63480   0.00000  Uiso   1.00
H909   H     0.09273   0.68905   0.65068   0.00000  Uiso   1.00
H910   H     0.06274   0.67715   0.59256   0.00000  Uiso   1.00
C911   C     0.22834   0.81817   0.88423   0.00000  Uiso   1.00
C912   C     0.28250   0.81295   0.91314   0.00000  Uiso   1.00
C913   C     0.29344   0.84060   0.96047   0.00000  Uiso   1.00
H914   H     0.28100   0.87493   0.95513   0.00000  Uiso   1.00
H915   H     0.27428   0.82492   0.98865   0.00000  Uiso   1.00
H916   H     0.00209   0.84204   0.97374   0.00000  Uiso   1.00
H917   H     0.28860   0.77756   0.92043   0.00000  Uiso   1.00
H918   H     0.31178   0.82386   0.89039   0.00000  Uiso   1.00
H919   H     0.23427   0.81050   0.84739   0.00000  Uiso   1.00
H920   H     0.21750   0.85314   0.88362   0.00000  Uiso   1.00
C921   C     0.07034   0.71957   0.51431   0.00000  Uiso   1.00
C922   C     0.02295   0.74039   0.53023   0.00000  Uiso   1.00
C923   C     0.30692   0.71548   0.50547   0.00000  Uiso   1.00
H924   H     0.30623   0.71283   0.96560   0.00000  Uiso   1.00
H925   H     0.30435   0.68166   0.51960   0.00000  Uiso   1.00
H926   H     0.27280   0.73312   0.51275   0.00000  Uiso   1.00
H927   H     0.02382   0.74006   0.57011   0.00000  Uiso   1.00
H928   H     0.02231   0.77552   0.51994   0.00000  Uiso   1.00
H929   H     0.06989   0.72939   0.97638   0.00000  Uiso   1.00
H930   H     0.06556   0.68299   0.51271   0.00000  Uiso   1.00
C931   C     0.16986   0.83871   0.96951   0.00000  Uiso   1.00
C932   C     0.11356   0.84711   0.97408   0.00000  Uiso   1.00
C933   C     0.10867   0.89378   0.99481   0.00000  Uiso   1.00
H934   H     0.13202   0.89828   0.53146   0.00000  Uiso   1.00
H935   H     0.12204   0.91885   0.97059   0.00000  Uiso   1.00
H936   H     0.06778   0.89925   0.99800   0.00000  Uiso   1.00
H937   H     0.08940   0.84312   0.93774   0.00000  Uiso   1.00
H938   H     0.09865   0.82297   0.99839   0.00000  Uiso   1.00
H939   H     0.19394   0.84386   0.50544   0.00000  Uiso   1.00
H940   H     0.18311   0.86492   0.94692   0.00000  Uiso   1.00
C941   C     0.50052   0.66496   0.74963   0.00000  Uiso   1.00
C942   C     0.50053   0.83482   0.75071   0.00000  Uiso   1.00
C943   C     0.53633   0.77524   0.56009   0.00000  Uiso   1.00
C944   C     0.48591   0.71437   0.94416   0.00000  Uiso   1.00
C945   C     0.53638   0.77461   0.61055   0.00000  Uiso   1.00
C946   C     0.48347   0.71388   0.89324   0.00000  Uiso   1.00
C947   C     0.46183   0.72615   0.59761   0.00000  Uiso   1.00
C948   C     0.52003   0.78698   0.89945   0.00000  Uiso   1.00
C949   C     0.45426   0.73427   0.54679   0.00000  Uiso   1.00
C950   C     0.50829   0.79254   0.94754   0.00000  Uiso   1.00
C951   C     0.49504   0.75535   0.52690   0.00000  Uiso   1.00
C952   C     0.49649   0.75432   0.97238   0.00000  Uiso   1.00
C953   C     0.40121   0.74992   0.73743   0.00000  Uiso   1.00
C954   C     0.59879   0.75017   0.76257   0.00000  Uiso   1.00
C955   C     0.34576   0.74997   0.73067   0.00000  Uiso   1.00
C956   C     0.65424   0.75024   0.76933   0.00000  Uiso   1.00
C957   C     0.48581   0.54825   0.78922   0.00000  Uiso   1.00
C958   C     0.54159   0.95216   0.73303   0.00000  Uiso   1.00
C959   C     0.48420   0.59401   0.78785   0.00000  Uiso   1.00
C960   C     0.54021   0.90616   0.73212   0.00000  Uiso   1.00
C961   C     0.50169   0.61665   0.74984   0.00000  Uiso   1.00
C962   C     0.50203   0.88274   0.75224   0.00000  Uiso   1.00
C963   C     0.52192   0.59290   0.71385   0.00000  Uiso   1.00
C964   C     0.46490   0.90520   0.77292   0.00000  Uiso   1.00
C965   C     0.52184   0.54692   0.71417   0.00000  Uiso   1.00
C966   C     0.46504   0.95114   0.77227   0.00000  Uiso   1.00
C967   C     0.50378   0.52404   0.75193   0.00000  Uiso   1.00
C968   C     0.50357   0.97521   0.75251   0.00000  Uiso   1.00
Cu969  Cu    0.50000   0.74999   0.79822   0.00000  Uiso   1.00
Cu970  Cu    0.50000   0.75000   0.70179   0.00000  Uiso   1.00
H971   H     0.65866   0.74976   0.69374   0.00000  Uiso   1.00
H972   H     0.34134   0.75048   0.80627   0.00000  Uiso   1.00
H973   H     0.47327   0.53202   0.81975   0.00000  Uiso   1.00
H974   H     0.57264   0.96950   0.71875   0.00000  Uiso   1.00
H975   H     0.46928   0.61167   0.81669   0.00000  Uiso   1.00
H976   H     0.56938   0.88883   0.71645   0.00000  Uiso   1.00
H977   H     0.53844   0.60977   0.68587   0.00000  Uiso   1.00
H978   H     0.43498   0.88711   0.78818   0.00000  Uiso   1.00
H979   H     0.53567   0.52949   0.68461   0.00000  Uiso   1.00
H980   H     0.43440   0.96757   0.78647   0.00000  Uiso   1.00
H981   H     0.56885   0.79156   0.54740   0.00000  Uiso   1.00
H982   H     0.47655   0.68398   0.96103   0.00000  Uiso   1.00
H983   H     0.56707   0.79240   0.63475   0.00000  Uiso   1.00
H984   H     0.47038   0.68377   0.87237   0.00000  Uiso   1.00
N985   N     0.50000   0.75001   0.62935   0.00000  Uiso   1.00
N986   N     0.50000   0.74999   0.87066   0.00000  Uiso   1.00
O987   O     0.50000   0.68572   0.79072   0.00000  Uiso   1.00
O988   O     0.50000   0.81427   0.70929   0.00000  Uiso   1.00
O989   O     0.50000   0.68573   0.70928   0.00000  Uiso   1.00
O990   O     0.50000   0.81427   0.79072   0.00000  Uiso   1.00
O991   O     0.42495   0.74999   0.78132   0.00000  Uiso   1.00
O992   O     0.57505   0.75000   0.71868   0.00000  Uiso   1.00
O993   O     0.42495   0.75000   0.69989   0.00000  Uiso   1.00
O994   O     0.57505   0.75000   0.80012   0.00000  Uiso   1.00
C995   C     0.43471   0.68487   0.61375   0.00000  Uiso   1.00
C996   C     0.46747   0.64420   0.61121   0.00000  Uiso   1.00
C997   C     0.46388   0.62321   0.56032   0.00000  Uiso   1.00
H998   H     0.42315   0.61372   0.54518   0.00000  Uiso   1.00
H999   H     0.48070   0.64623   0.53611   0.00000  Uiso   1.00
H1000  H     0.48622   0.59283   0.56208   0.00000  Uiso   1.00
H1001  H     0.50862   0.65355   0.62473   0.00000  Uiso   1.00
H1002  H     0.45376   0.61875   0.63480   0.00000  Uiso   1.00
H1003  H     0.42606   0.68905   0.65068   0.00000  Uiso   1.00
H1004  H     0.39607   0.67715   0.59256   0.00000  Uiso   1.00
C1005  C     0.56168   0.81817   0.88423   0.00000  Uiso   1.00
C1006  C     0.61584   0.81295   0.91314   0.00000  Uiso   1.00
C1007  C     0.62677   0.84060   0.96047   0.00000  Uiso   1.00
H1008  H     0.61434   0.87493   0.95513   0.00000  Uiso   1.00
H1009  H     0.60761   0.82492   0.98865   0.00000  Uiso   1.00
H1010  H     0.33542   0.84204   0.97374   0.00000  Uiso   1.00
H1011  H     0.62194   0.77756   0.92043   0.00000  Uiso   1.00
H1012  H     0.64512   0.82386   0.89039   0.00000  Uiso   1.00
H1013  H     0.56761   0.81050   0.84739   0.00000  Uiso   1.00
H1014  H     0.55084   0.85314   0.88362   0.00000  Uiso   1.00
C1015  C     0.40368   0.71957   0.51431   0.00000  Uiso   1.00
C1016  C     0.35628   0.74039   0.53023   0.00000  Uiso   1.00
C1017  C     0.64026   0.71548   0.50547   0.00000  Uiso   1.00
H1018  H     0.63956   0.71283   0.96560   0.00000  Uiso   1.00
H1019  H     0.63768   0.68166   0.51960   0.00000  Uiso   1.00
H1020  H     0.60614   0.73312   0.51275   0.00000  Uiso   1.00
H1021  H     0.35716   0.74006   0.57011   0.00000  Uiso   1.00
H1022  H     0.35564   0.77552   0.51994   0.00000  Uiso   1.00
H1023  H     0.40322   0.72939   0.97638   0.00000  Uiso   1.00
H1024  H     0.39889   0.68299   0.51271   0.00000  Uiso   1.00
C1025  C     0.50320   0.83871   0.96951   0.00000  Uiso   1.00
C1026  C     0.44689   0.84711   0.97408   0.00000  Uiso   1.00
C1027  C     0.44201   0.89378   0.99481   0.00000  Uiso   1.00
H1028  H     0.46535   0.89828   0.53146   0.00000  Uiso   1.00
H1029  H     0.45537   0.91885   0.97059   0.00000  Uiso   1.00
H1030  H     0.40111   0.89925   0.99800   0.00000  Uiso   1.00
H1031  H     0.42273   0.84312   0.93774   0.00000  Uiso   1.00
H1032  H     0.43199   0.82297   0.99839   0.00000  Uiso   1.00
H1033  H     0.52727   0.84386   0.50544   0.00000  Uiso   1.00
H1034  H     0.51644   0.86492   0.94692   0.00000  Uiso   1.00
C1035  C     0.83386   0.66496   0.74963   0.00000  Uiso   1.00
C1036  C     0.83386   0.83482   0.75071   0.00000  Uiso   1.00
C1037  C     0.86966   0.77524   0.56009   0.00000  Uiso   1.00
C1038  C     0.81924   0.71437   0.94416   0.00000  Uiso   1.00
C1039  C     0.86971   0.77461   0.61055   0.00000  Uiso   1.00
C1040  C     0.81680   0.71388   0.89324   0.00000  Uiso   1.00
C1041  C     0.79516   0.72615   0.59761   0.00000  Uiso   1.00
C1042  C     0.85336   0.78698   0.89945   0.00000  Uiso   1.00
C1043  C     0.78759   0.73427   0.54679   0.00000  Uiso   1.00
C1044  C     0.84162   0.79254   0.94754   0.00000  Uiso   1.00
C1045  C     0.82837   0.75535   0.52690   0.00000  Uiso   1.00
C1046  C     0.82982   0.75432   0.97238   0.00000  Uiso   1.00
C1047  C     0.73454   0.74992   0.73743   0.00000  Uiso   1.00
C1048  C     0.93213   0.75017   0.76257   0.00000  Uiso   1.00
C1049  C     0.67909   0.74997   0.73067   0.00000  Uiso   1.00
C1050  C     0.98758   0.75024   0.76933   0.00000  Uiso   1.00
C1051  C     0.81915   0.54825   0.78922   0.00000  Uiso   1.00
C1052  C     0.87492   0.95216   0.73303   0.00000  Uiso   1.00
C1053  C     0.81753   0.59401   0.78785   0.00000  Uiso   1.00
C1054  C     0.87355   0.90616   0.73212   0.00000  Uiso   1.00
C1055  C     0.83502   0.61665   0.74984   0.00000  Uiso   1.00
C1056  C     0.83537   0.88274   0.75224   0.00000  Uiso   1.00
C1057  C     0.85525   0.59290   0.71385   0.00000  Uiso   1.00
C1058  C     0.79824   0.90520   0.77292   0.00000  Uiso   1.00
C1059  C     0.85517   0.54692   0.71417   0.00000  Uiso   1.00
C1060  C     0.79837   0.95114   0.77227   0.00000  Uiso   1.00
C1061  C     0.83711   0.52404   0.75193   0.00000  Uiso   1.00
C1062  C     0.83690   0.97521   0.75251   0.00000  Uiso   1.00
Cu1063 Cu    0.83333   0.74999   0.79822   0.00000  Uiso   1.00
Cu1064 Cu    0.83333   0.75000   0.70179   0.00000  Uiso   1.00
H1065  H     0.99200   0.74976   0.69374   0.00000  Uiso   1.00
H1066  H     0.67467   0.75048   0.80627   0.00000  Uiso   1.00
H1067  H     0.80660   0.53202   0.81975   0.00000  Uiso   1.00
H1068  H     0.90597   0.96950   0.71875   0.00000  Uiso   1.00
H1069  H     0.80262   0.61167   0.81669   0.00000  Uiso   1.00
H1070  H     0.90272   0.88883   0.71645   0.00000  Uiso   1.00
H1071  H     0.87177   0.60977   0.68587   0.00000  Uiso   1.00
H1072  H     0.76831   0.88711   0.78818   0.00000  Uiso   1.00
H1073  H     0.86901   0.52949   0.68461   0.00000  Uiso   1.00
H1074  H     0.76773   0.96757   0.78647   0.00000  Uiso   1.00
H1075  H     0.90218   0.79156   0.54740   0.00000  Uiso   1.00
H1076  H     0.80988   0.68398   0.96103   0.00000  Uiso   1.00
H1077  H     0.90040   0.79240   0.63475   0.00000  Uiso   1.00
H1078  H     0.80372   0.68377   0.87237   0.00000  Uiso   1.00
N1079  N     0.83333   0.75001   0.62935   0.00000  Uiso   1.00
N1080  N     0.83333   0.74999   0.87066   0.00000  Uiso   1.00
O1081  O     0.83334   0.68572   0.79072   0.00000  Uiso   1.00
O1082  O     0.83333   0.81427   0.70929   0.00000  Uiso   1.00
O1083  O     0.83334   0.68573   0.70928   0.00000  Uiso   1.00
O1084  O     0.83333   0.81427   0.79072   0.00000  Uiso   1.00
O1085  O     0.75828   0.74999   0.78132   0.00000  Uiso   1.00
O1086  O     0.90839   0.75000   0.71868   0.00000  Uiso   1.00
O1087  O     0.75828   0.75000   0.69989   0.00000  Uiso   1.00
O1088  O     0.90839   0.75000   0.80012   0.00000  Uiso   1.00
C1089  C     0.76804   0.68487   0.61375   0.00000  Uiso   1.00
C1090  C     0.80080   0.64420   0.61121   0.00000  Uiso   1.00
C1091  C     0.79721   0.62321   0.56032   0.00000  Uiso   1.00
H1092  H     0.75648   0.61372   0.54518   0.00000  Uiso   1.00
H1093  H     0.81403   0.64623   0.53611   0.00000  Uiso   1.00
H1094  H     0.81955   0.59283   0.56208   0.00000  Uiso   1.00
H1095  H     0.84195   0.65355   0.62473   0.00000  Uiso   1.00
H1096  H     0.78709   0.61875   0.63480   0.00000  Uiso   1.00
H1097  H     0.75940   0.68905   0.65068   0.00000  Uiso   1.00
H1098  H     0.72940   0.67715   0.59256   0.00000  Uiso   1.00
C1099  C     0.89501   0.81817   0.88423   0.00000  Uiso   1.00
C1100  C     0.94917   0.81295   0.91314   0.00000  Uiso   1.00
C1101  C     0.96011   0.84060   0.96047   0.00000  Uiso   1.00
H1102  H     0.94767   0.87493   0.95513   0.00000  Uiso   1.00
H1103  H     0.94095   0.82492   0.98865   0.00000  Uiso   1.00
H1104  H     0.66876   0.84204   0.97374   0.00000  Uiso   1.00
H1105  H     0.95527   0.77756   0.92043   0.00000  Uiso   1.00
H1106  H     0.97845   0.82386   0.89039   0.00000  Uiso   1.00
H1107  H     0.90094   0.81050   0.84739   0.00000  Uiso   1.00
H1108  H     0.88417   0.85314   0.88362   0.00000  Uiso   1.00
C1109  C     0.73701   0.71957   0.51431   0.00000  Uiso   1.00
C1110  C     0.68962   0.74039   0.53023   0.00000  Uiso   1.00
C1111  C     0.97359   0.71548   0.50547   0.00000  Uiso   1.00
H1112  H     0.97290   0.71283   0.96560   0.00000  Uiso   1.00
H1113  H     0.97102   0.68166   0.51960   0.00000  Uiso   1.00
H1114  H     0.93947   0.73312   0.51275   0.00000  Uiso   1.00
H1115  H     0.69049   0.74006   0.57011   0.00000  Uiso   1.00
H1116  H     0.68897   0.77552   0.51994   0.00000  Uiso   1.00
H1117  H     0.73656   0.72939   0.97638   0.00000  Uiso   1.00
H1118  H     0.73223   0.68299   0.51271   0.00000  Uiso   1.00
C1119  C     0.83653   0.83871   0.96951   0.00000  Uiso   1.00
C1120  C     0.78023   0.84711   0.97408   0.00000  Uiso   1.00
C1121  C     0.77534   0.89378   0.99481   0.00000  Uiso   1.00
H1122  H     0.79868   0.89828   0.53146   0.00000  Uiso   1.00
H1123  H     0.78870   0.91885   0.97059   0.00000  Uiso   1.00
H1124  H     0.73445   0.89925   0.99800   0.00000  Uiso   1.00
H1125  H     0.75606   0.84312   0.93774   0.00000  Uiso   1.00
H1126  H     0.76532   0.82297   0.99839   0.00000  Uiso   1.00
H1127  H     0.86060   0.84386   0.50544   0.00000  Uiso   1.00
H1128  H     0.84978   0.86492   0.94692   0.00000  Uiso   1.00
loop_
_geom_bond_atom_site_label_1
_geom_bond_atom_site_label_2
_geom_bond_distance
_geom_bond_site_symmetry_2
_ccdc_geom_bond_type
C1     C21     1.464   .     S
C1     O47     1.292   .     A
C1     O49     1.304   .     A
C2     O50     1.296   .     A
C2     C22     1.448   .     S
C2     O48     1.293   .     A
C3     H41     1.078   .     S
C3     C5      1.408   .     A
C3     C11     1.414   .     A
C4     C12     1.416   .     A
C4     C6      1.412   .     A
C4     H42     1.081   .     S
C5     H43     1.082   .     S
C5     N45     1.361   .     A
C6     H44     1.080   .     S
C6     N46     1.364   .     A
C7     C55     1.524   .     S
C7     N45     1.392   .     A
C7     C9      1.432   .     A
C8     C65     1.529   .     S
C8     N46     1.393   .     A
C8     C10     1.428   .     A
C9     C11     1.414   .     A
C9     C75     1.530   .     S
C10    C85     1.528   .     S
C10    C12     1.413   .     A
C11    C576    1.527   1_554 S
C12    C575    1.527   .     S
C13    O51     1.287   .     A
C13    O53     1.297   .     A
C13    C15     1.439   .     S
C14    O52     1.287   .     A
C14    O54     1.297   .     A
C14    C16     1.439   .     S
C15    C204    1.342   1_455 S
C15    H219    1.087   1_455 S
C16    C109    1.342   .     S
C16    H126    1.087   .     S
C17    H33     1.082   .     S
C17    C27     1.405   .     A
C17    C19     1.389   .     A
C18    C28     1.407   .     A
C18    H34     1.082   .     S
C18    C20     1.390   .     A
C19    C21     1.403   .     A
C19    H35     1.083   .     S
C20    C22     1.397   .     A
C20    H36     1.084   .     S
C21    C23     1.399   .     A
C22    C24     1.396   .     A
C23    H37     1.079   .     S
C23    C25     1.392   .     A
C24    C26     1.391   .     A
C24    H38     1.084   .     S
C25    C27     1.407   .     A
C25    H39     1.082   .     S
C26    C28     1.409   .     A
C26    H40     1.082   .     S
C27    C310    1.478   1_545 S
C28    C309    1.478   .     S
Cu29   O47     1.950   .     S
Cu29   O54     1.963   .     S
Cu29   O50     1.963   .     S
Cu29   Cu30    2.690   .     S
Cu29   O51     1.955   .     S
Cu29   N46     2.021   .     S
Cu30   N45     2.021   .     S
Cu30   O48     1.950   .     S
Cu30   O53     1.963   .     S
Cu30   O49     1.963   .     S
Cu30   O52     1.955   .     S
H31    C109    1.087   .     S
H32    C204    1.087   1_455 S
C55    C56     1.538   .     S
C55    H63     1.093   .     S
C55    H64     1.106   .     S
C56    C57     1.526   .     S
C56    H62     1.111   .     S
C56    H61     1.110   .     S
C57    H59     1.108   .     S
C57    H60     1.110   .     S
C57    H58     1.110   .     S
C65    H73     1.082   .     S
C65    H74     1.108   .     S
C65    C66     1.542   .     S
C66    C67     1.524   .     S
C66    H72     1.114   .     S
C66    H71     1.110   .     S
C67    H68     1.110   .     S
C67    H69     1.103   .     S
C67    H164    1.107   .     S
H70    C255    1.107   1_455 S
C75    H84     1.107   .     S
C75    C76     1.536   .     S
C75    H647    1.106   1_554 S
C76    H82     1.110   .     S
C76    H81     1.110   .     S
C76    C265    1.528   1_455 S
C77    H79     1.111   .     S
C77    H80     1.104   .     S
C77    C170    1.528   .     S
C77    H642    1.110   1_554 S
H78    C641    1.110   .     S
H83    C639    1.106   .     S
C85    C86     1.534   .     S
C85    H94     1.104   .     S
C85    H657    1.104   .     S
C86    H91     1.112   .     S
C86    C87     1.528   .     S
C86    H92     1.110   .     S
C87    H90     1.109   .     S
C87    H89     1.111   .     S
C87    H652    1.111   .     S
H88    C651    1.111   1_554 S
H93    C649    1.104   1_554 S
C95    C115    1.464   .     S
C95    O141    1.292   .     A
C95    O143    1.304   .     A
C96    O144    1.296   .     A
C96    C116    1.448   .     S
C96    O142    1.293   .     A
C97    H135    1.078   .     S
C97    C99     1.408   .     A
C97    C105    1.414   .     A
C98    C106    1.416   .     A
C98    C100    1.412   .     A
C98    H136    1.081   .     S
C99    H137    1.082   .     S
C99    N139    1.361   .     A
C100   H138    1.080   .     S
C100   N140    1.364   .     A
C101   C149    1.524   .     S
C101   N139    1.392   .     A
C101   C103    1.432   .     A
C102   C159    1.529   .     S
C102   N140    1.393   .     A
C102   C104    1.428   .     A
C103   C105    1.414   .     A
C103   C169    1.530   .     S
C104   C179    1.528   .     S
C104   C106    1.413   .     A
C105   C670    1.527   1_554 S
C106   C669    1.527   .     S
C107   O145    1.287   .     A
C107   O147    1.297   .     A
C107   C109    1.439   .     S
C108   O146    1.287   .     A
C108   O148    1.297   .     A
C108   C110    1.439   .     S
C110   C203    1.342   .     S
C110   H220    1.087   .     S
C111   H127    1.082   .     S
C111   C121    1.405   .     A
C111   C113    1.389   .     A
C112   C122    1.407   .     A
C112   H128    1.082   .     S
C112   C114    1.390   .     A
C113   C115    1.403   .     A
C113   H129    1.083   .     S
C114   C116    1.397   .     A
C114   H130    1.084   .     S
C115   C117    1.399   .     A
C116   C118    1.396   .     A
C117   H131    1.079   .     S
C117   C119    1.392   .     A
C118   C120    1.391   .     A
C118   H132    1.084   .     S
C119   C121    1.407   .     A
C119   H133    1.082   .     S
C120   C122    1.409   .     A
C120   H134    1.082   .     S
C121   C404    1.478   1_545 S
C122   C403    1.478   .     S
Cu123  O141    1.950   .     S
Cu123  O148    1.963   .     S
Cu123  O144    1.963   .     S
Cu123  Cu124   2.690   .     S
Cu123  O145    1.955   .     S
Cu123  N140    2.021   .     S
Cu124  N139    2.021   .     S
Cu124  O142    1.950   .     S
Cu124  O147    1.963   .     S
Cu124  O143    1.963   .     S
Cu124  O146    1.955   .     S
H125   C203    1.087   .     S
C149   C150    1.538   .     S
C149   H157    1.093   .     S
C149   H158    1.106   .     S
C150   C151    1.526   .     S
C150   H156    1.111   .     S
C150   H155    1.110   .     S
C151   H153    1.108   .     S
C151   H154    1.110   .     S
C151   H152    1.110   .     S
C159   H167    1.082   .     S
C159   H168    1.108   .     S
C159   C160    1.542   .     S
C160   C161    1.524   .     S
C160   H166    1.114   .     S
C160   H165    1.110   .     S
C161   H162    1.110   .     S
C161   H163    1.103   .     S
C161   H258    1.107   .     S
C169   H178    1.107   .     S
C169   C170    1.536   .     S
C169   H741    1.106   1_554 S
C170   H176    1.110   .     S
C170   H175    1.110   .     S
C171   H173    1.111   .     S
C171   H174    1.104   .     S
C171   C264    1.528   .     S
C171   H736    1.110   1_554 S
H172   C735    1.110   .     S
H177   C733    1.106   .     S
C179   C180    1.534   .     S
C179   H188    1.104   .     S
C179   H751    1.104   .     S
C180   H185    1.112   .     S
C180   C181    1.528   .     S
C180   H186    1.110   .     S
C181   H184    1.109   .     S
C181   H183    1.111   .     S
C181   H746    1.111   .     S
H182   C745    1.111   1_554 S
H187   C743    1.104   1_554 S
C189   C209    1.464   .     S
C189   O235    1.292   .     A
C189   O237    1.304   .     A
C190   O238    1.296   .     A
C190   C210    1.448   .     S
C190   O236    1.293   .     A
C191   H229    1.078   .     S
C191   C193    1.408   .     A
C191   C199    1.414   .     A
C192   C200    1.416   .     A
C192   C194    1.412   .     A
C192   H230    1.081   .     S
C193   H231    1.082   .     S
C193   N233    1.361   .     A
C194   H232    1.080   .     S
C194   N234    1.364   .     A
C195   C243    1.524   .     S
C195   N233    1.392   .     A
C195   C197    1.432   .     A
C196   C253    1.529   .     S
C196   N234    1.393   .     A
C196   C198    1.428   .     A
C197   C199    1.414   .     A
C197   C263    1.530   .     S
C198   C273    1.528   .     S
C198   C200    1.413   .     A
C199   C764    1.527   1_554 S
C200   C763    1.527   .     S
C201   O239    1.287   .     A
C201   O241    1.297   .     A
C201   C203    1.439   .     S
C202   O240    1.287   .     A
C202   O242    1.297   .     A
C202   C204    1.439   .     S
C204   C15     1.342   1_655 S
C204   H32     1.087   1_655 S
C205   H221    1.082   .     S
C205   C215    1.405   .     A
C205   C207    1.389   .     A
C206   C216    1.407   .     A
C206   H222    1.082   .     S
C206   C208    1.390   .     A
C207   C209    1.403   .     A
C207   H223    1.083   .     S
C208   C210    1.397   .     A
C208   H224    1.084   .     S
C209   C211    1.399   .     A
C210   C212    1.396   .     A
C211   H225    1.079   .     S
C211   C213    1.392   .     A
C212   C214    1.391   .     A
C212   H226    1.084   .     S
C213   C215    1.407   .     A
C213   H227    1.082   .     S
C214   C216    1.409   .     A
C214   H228    1.082   .     S
C215   C498    1.478   1_545 S
C216   C497    1.478   .     S
Cu217  O235    1.950   .     S
Cu217  O242    1.963   .     S
Cu217  O238    1.963   .     S
Cu217  Cu218   2.690   .     S
Cu217  O239    1.955   .     S
Cu217  N234    2.021   .     S
Cu218  N233    2.021   .     S
Cu218  O236    1.950   .     S
Cu218  O241    1.963   .     S
Cu218  O237    1.963   .     S
Cu218  O240    1.955   .     S
H219   C15     1.087   1_655 S
C243   C244    1.538   .     S
C243   H251    1.093   .     S
C243   H252    1.106   .     S
C244   C245    1.526   .     S
C244   H250    1.111   .     S
C244   H249    1.110   .     S
C245   H247    1.108   .     S
C245   H248    1.110   .     S
C245   H246    1.110   .     S
C253   H261    1.082   .     S
C253   H262    1.108   .     S
C253   C254    1.542   .     S
C254   C255    1.524   .     S
C254   H260    1.114   .     S
C254   H259    1.110   .     S
C255   H256    1.110   .     S
C255   H257    1.103   .     S
C255   H70     1.107   1_655 S
C263   H272    1.107   .     S
C263   C264    1.536   .     S
C263   H835    1.106   1_554 S
C264   H270    1.110   .     S
C264   H269    1.110   .     S
C265   H267    1.111   .     S
C265   H268    1.104   .     S
C265   C76     1.528   1_655 S
C265   H830    1.110   1_554 S
H266   C829    1.110   .     S
H271   C827    1.106   .     S
C273   C274    1.534   .     S
C273   H282    1.104   .     S
C273   H845    1.104   .     S
C274   H279    1.112   .     S
C274   C275    1.528   .     S
C274   H280    1.110   .     S
C275   H278    1.109   .     S
C275   H277    1.111   .     S
C275   H840    1.111   .     S
H276   C839    1.111   1_554 S
H281   C837    1.104   1_554 S
C283   C303    1.464   .     S
C283   O329    1.292   .     A
C283   O331    1.304   .     A
C284   O332    1.296   .     A
C284   C304    1.448   .     S
C284   O330    1.293   .     A
C285   H323    1.078   .     S
C285   C287    1.408   .     A
C285   C293    1.414   .     A
C286   C294    1.416   .     A
C286   C288    1.412   .     A
C286   H324    1.081   .     S
C287   H325    1.082   .     S
C287   N327    1.361   .     A
C288   H326    1.080   .     S
C288   N328    1.364   .     A
C289   C337    1.524   .     S
C289   N327    1.392   .     A
C289   C291    1.432   .     A
C290   C347    1.529   .     S
C290   N328    1.393   .     A
C290   C292    1.428   .     A
C291   C293    1.414   .     A
C291   C357    1.530   .     S
C292   C367    1.528   .     S
C292   C294    1.413   .     A
C293   C858    1.527   1_554 S
C294   C857    1.527   .     S
C295   O333    1.287   .     A
C295   O335    1.297   .     A
C295   C297    1.439   .     S
C296   O334    1.287   .     A
C296   O336    1.297   .     A
C296   C298    1.439   .     S
C297   C486    1.342   1_455 S
C297   H501    1.087   1_455 S
C298   C391    1.342   .     S
C298   H408    1.087   .     S
C299   H315    1.082   .     S
C299   C309    1.405   .     A
C299   C301    1.389   .     A
C300   C310    1.407   .     A
C300   H316    1.082   .     S
C300   C302    1.390   .     A
C301   C303    1.403   .     A
C301   H317    1.083   .     S
C302   C304    1.397   .     A
C302   H318    1.084   .     S
C303   C305    1.399   .     A
C304   C306    1.396   .     A
C305   H319    1.079   .     S
C305   C307    1.392   .     A
C306   C308    1.391   .     A
C306   H320    1.084   .     S
C307   C309    1.407   .     A
C307   H321    1.082   .     S
C308   C310    1.409   .     A
C308   H322    1.082   .     S
C310   C27     1.478   1_565 S
Cu311  O329    1.950   .     S
Cu311  O336    1.963   .     S
Cu311  O332    1.963   .     S
Cu311  Cu312   2.690   .     S
Cu311  O333    1.955   .     S
Cu311  N328    2.021   .     S
Cu312  N327    2.021   .     S
Cu312  O330    1.950   .     S
Cu312  O335    1.963   .     S
Cu312  O331    1.963   .     S
Cu312  O334    1.955   .     S
H313   C391    1.087   .     S
H314   C486    1.087   1_455 S
C337   C338    1.538   .     S
C337   H345    1.093   .     S
C337   H346    1.106   .     S
C338   C339    1.526   .     S
C338   H344    1.111   .     S
C338   H343    1.110   .     S
C339   H341    1.108   .     S
C339   H342    1.110   .     S
C339   H340    1.110   .     S
C347   H355    1.082   .     S
C347   H356    1.108   .     S
C347   C348    1.542   .     S
C348   C349    1.524   .     S
C348   H354    1.114   .     S
C348   H353    1.110   .     S
C349   H350    1.110   .     S
C349   H351    1.103   .     S
C349   H446    1.107   .     S
H352   C537    1.107   1_455 S
C357   H366    1.107   .     S
C357   C358    1.536   .     S
C357   H929    1.106   1_554 S
C358   H364    1.110   .     S
C358   H363    1.110   .     S
C358   C547    1.528   1_455 S
C359   H361    1.111   .     S
C359   H362    1.104   .     S
C359   C452    1.528   .     S
C359   H924    1.110   1_554 S
H360   C923    1.110   .     S
H365   C921    1.106   .     S
C367   C368    1.534   .     S
C367   H376    1.104   .     S
C367   H939    1.104   .     S
C368   H373    1.112   .     S
C368   C369    1.528   .     S
C368   H374    1.110   .     S
C369   H372    1.109   .     S
C369   H371    1.111   .     S
C369   H934    1.111   .     S
H370   C933    1.111   1_554 S
H375   C931    1.104   1_554 S
C377   C397    1.464   .     S
C377   O423    1.292   .     A
C377   O425    1.304   .     A
C378   O426    1.296   .     A
C378   C398    1.448   .     S
C378   O424    1.293   .     A
C379   H417    1.078   .     S
C379   C381    1.408   .     A
C379   C387    1.414   .     A
C380   C388    1.416   .     A
C380   C382    1.412   .     A
C380   H418    1.081   .     S
C381   H419    1.082   .     S
C381   N421    1.361   .     A
C382   H420    1.080   .     S
C382   N422    1.364   .     A
C383   C431    1.524   .     S
C383   N421    1.392   .     A
C383   C385    1.432   .     A
C384   C441    1.529   .     S
C384   N422    1.393   .     A
C384   C386    1.428   .     A
C385   C387    1.414   .     A
C385   C451    1.530   .     S
C386   C461    1.528   .     S
C386   C388    1.413   .     A
C387   C952    1.527   1_554 S
C388   C951    1.527   .     S
C389   O427    1.287   .     A
C389   O429    1.297   .     A
C389   C391    1.439   .     S
C390   O428    1.287   .     A
C390   O430    1.297   .     A
C390   C392    1.439   .     S
C392   C485    1.342   .     S
C392   H502    1.087   .     S
C393   H409    1.082   .     S
C393   C403    1.405   .     A
C393   C395    1.389   .     A
C394   C404    1.407   .     A
C394   H410    1.082   .     S
C394   C396    1.390   .     A
C395   C397    1.403   .     A
C395   H411    1.083   .     S
C396   C398    1.397   .     A
C396   H412    1.084   .     S
C397   C399    1.399   .     A
C398   C400    1.396   .     A
C399   H413    1.079   .     S
C399   C401    1.392   .     A
C400   C402    1.391   .     A
C400   H414    1.084   .     S
C401   C403    1.407   .     A
C401   H415    1.082   .     S
C402   C404    1.409   .     A
C402   H416    1.082   .     S
C404   C121    1.478   1_565 S
Cu405  O423    1.950   .     S
Cu405  O430    1.963   .     S
Cu405  O426    1.963   .     S
Cu405  Cu406   2.690   .     S
Cu405  O427    1.955   .     S
Cu405  N422    2.021   .     S
Cu406  N421    2.021   .     S
Cu406  O424    1.950   .     S
Cu406  O429    1.963   .     S
Cu406  O425    1.963   .     S
Cu406  O428    1.955   .     S
H407   C485    1.087   .     S
C431   C432    1.538   .     S
C431   H439    1.093   .     S
C431   H440    1.106   .     S
C432   C433    1.526   .     S
C432   H438    1.111   .     S
C432   H437    1.110   .     S
C433   H435    1.108   .     S
C433   H436    1.110   .     S
C433   H434    1.110   .     S
C441   H449    1.082   .     S
C441   H450    1.108   .     S
C441   C442    1.542   .     S
C442   C443    1.524   .     S
C442   H448    1.114   .     S
C442   H447    1.110   .     S
C443   H444    1.110   .     S
C443   H445    1.103   .     S
C443   H540    1.107   .     S
C451   H460    1.107   .     S
C451   C452    1.536   .     S
C451   H1023   1.106   1_554 S
C452   H458    1.110   .     S
C452   H457    1.110   .     S
C453   H455    1.111   .     S
C453   H456    1.104   .     S
C453   C546    1.528   .     S
C453   H1018   1.110   1_554 S
H454   C1017   1.110   .     S
H459   C1015   1.106   .     S
C461   C462    1.534   .     S
C461   H470    1.104   .     S
C461   H1033   1.104   .     S
C462   H467    1.112   .     S
C462   C463    1.528   .     S
C462   H468    1.110   .     S
C463   H466    1.109   .     S
C463   H465    1.111   .     S
C463   H1028   1.111   .     S
H464   C1027   1.111   1_554 S
H469   C1025   1.104   1_554 S
C471   C491    1.464   .     S
C471   O517    1.292   .     A
C471   O519    1.304   .     A
C472   O520    1.296   .     A
C472   C492    1.448   .     S
C472   O518    1.293   .     A
C473   H511    1.078   .     S
C473   C475    1.408   .     A
C473   C481    1.414   .     A
C474   C482    1.416   .     A
C474   C476    1.412   .     A
C474   H512    1.081   .     S
C475   H513    1.082   .     S
C475   N515    1.361   .     A
C476   H514    1.080   .     S
C476   N516    1.364   .     A
C477   C525    1.524   .     S
C477   N515    1.392   .     A
C477   C479    1.432   .     A
C478   C535    1.529   .     S
C478   N516    1.393   .     A
C478   C480    1.428   .     A
C479   C481    1.414   .     A
C479   C545    1.530   .     S
C480   C555    1.528   .     S
C480   C482    1.413   .     A
C481   C1046   1.527   1_554 S
C482   C1045   1.527   .     S
C483   O521    1.287   .     A
C483   O523    1.297   .     A
C483   C485    1.439   .     S
C484   O522    1.287   .     A
C484   O524    1.297   .     A
C484   C486    1.439   .     S
C486   C297    1.342   1_655 S
C486   H314    1.087   1_655 S
C487   H503    1.082   .     S
C487   C497    1.405   .     A
C487   C489    1.389   .     A
C488   C498    1.407   .     A
C488   H504    1.082   .     S
C488   C490    1.390   .     A
C489   C491    1.403   .     A
C489   H505    1.083   .     S
C490   C492    1.397   .     A
C490   H506    1.084   .     S
C491   C493    1.399   .     A
C492   C494    1.396   .     A
C493   H507    1.079   .     S
C493   C495    1.392   .     A
C494   C496    1.391   .     A
C494   H508    1.084   .     S
C495   C497    1.407   .     A
C495   H509    1.082   .     S
C496   C498    1.409   .     A
C496   H510    1.082   .     S
C498   C215    1.478   1_565 S
Cu499  O517    1.950   .     S
Cu499  O524    1.963   .     S
Cu499  O520    1.963   .     S
Cu499  Cu500   2.690   .     S
Cu499  O521    1.955   .     S
Cu499  N516    2.021   .     S
Cu500  N515    2.021   .     S
Cu500  O518    1.950   .     S
Cu500  O523    1.963   .     S
Cu500  O519    1.963   .     S
Cu500  O522    1.955   .     S
H501   C297    1.087   1_655 S
C525   C526    1.538   .     S
C525   H533    1.093   .     S
C525   H534    1.106   .     S
C526   C527    1.526   .     S
C526   H532    1.111   .     S
C526   H531    1.110   .     S
C527   H529    1.108   .     S
C527   H530    1.110   .     S
C527   H528    1.110   .     S
C535   H543    1.082   .     S
C535   H544    1.108   .     S
C535   C536    1.542   .     S
C536   C537    1.524   .     S
C536   H542    1.114   .     S
C536   H541    1.110   .     S
C537   H538    1.110   .     S
C537   H539    1.103   .     S
C537   H352    1.107   1_655 S
C545   H554    1.107   .     S
C545   C546    1.536   .     S
C545   H1117   1.106   1_554 S
C546   H552    1.110   .     S
C546   H551    1.110   .     S
C547   H549    1.111   .     S
C547   H550    1.104   .     S
C547   C358    1.528   1_655 S
C547   H1112   1.110   1_554 S
H548   C1111   1.110   .     S
H553   C1109   1.106   .     S
C555   C556    1.534   .     S
C555   H564    1.104   .     S
C555   H1127   1.104   .     S
C556   H561    1.112   .     S
C556   C557    1.528   .     S
C556   H562    1.110   .     S
C557   H560    1.109   .     S
C557   H559    1.111   .     S
C557   H1122   1.111   .     S
H558   C1121   1.111   1_554 S
H563   C1119   1.104   1_554 S
C565   C585    1.464   .     S
C565   O611    1.292   .     A
C565   O613    1.304   .     A
C566   O614    1.296   .     A
C566   C586    1.448   .     S
C566   O612    1.293   .     A
C567   H605    1.078   .     S
C567   C569    1.408   .     A
C567   C575    1.414   .     A
C568   C576    1.416   .     A
C568   C570    1.412   .     A
C568   H606    1.081   .     S
C569   H607    1.082   .     S
C569   N609    1.361   .     A
C570   H608    1.080   .     S
C570   N610    1.364   .     A
C571   C619    1.524   .     S
C571   N609    1.392   .     A
C571   C573    1.432   .     A
C572   C629    1.529   .     S
C572   N610    1.393   .     A
C572   C574    1.428   .     A
C573   C575    1.414   .     A
C573   C639    1.530   .     S
C574   C649    1.528   .     S
C574   C576    1.413   .     A
C576   C11     1.527   1_556 S
C577   O615    1.287   .     A
C577   O617    1.297   .     A
C577   C579    1.439   .     S
C578   O616    1.287   .     A
C578   O618    1.297   .     A
C578   C580    1.439   .     S
C579   C768    1.342   1_455 S
C579   H783    1.087   1_455 S
C580   C673    1.342   .     S
C580   H690    1.087   .     S
C581   H597    1.082   .     S
C581   C591    1.405   .     A
C581   C583    1.389   .     A
C582   C592    1.407   .     A
C582   H598    1.082   .     S
C582   C584    1.390   .     A
C583   C585    1.403   .     A
C583   H599    1.083   .     S
C584   C586    1.397   .     A
C584   H600    1.084   .     S
C585   C587    1.399   .     A
C586   C588    1.396   .     A
C587   H601    1.079   .     S
C587   C589    1.392   .     A
C588   C590    1.391   .     A
C588   H602    1.084   .     S
C589   C591    1.407   .     A
C589   H603    1.082   .     S
C590   C592    1.409   .     A
C590   H604    1.082   .     S
C591   C874    1.478   1_545 S
C592   C873    1.478   .     S
Cu593  O611    1.950   .     S
Cu593  O618    1.963   .     S
Cu593  O614    1.963   .     S
Cu593  Cu594   2.690   .     S
Cu593  O615    1.955   .     S
Cu593  N610    2.021   .     S
Cu594  N609    2.021   .     S
Cu594  O612    1.950   .     S
Cu594  O617    1.963   .     S
Cu594  O613    1.963   .     S
Cu594  O616    1.955   .     S
H595   C673    1.087   .     S
H596   C768    1.087   1_455 S
C619   C620    1.538   .     S
C619   H627    1.093   .     S
C619   H628    1.106   .     S
C620   C621    1.526   .     S
C620   H626    1.111   .     S
C620   H625    1.110   .     S
C621   H623    1.108   .     S
C621   H624    1.110   .     S
C621   H622    1.110   .     S
C629   H637    1.082   .     S
C629   H638    1.108   .     S
C629   C630    1.542   .     S
C630   C631    1.524   .     S
C630   H636    1.114   .     S
C630   H635    1.110   .     S
C631   H632    1.110   .     S
C631   H633    1.103   .     S
C631   H728    1.107   .     S
H634   C819    1.107   1_455 S
C639   H648    1.107   .     S
C639   C640    1.536   .     S
C640   H646    1.110   .     S
C640   H645    1.110   .     S
C640   C829    1.528   1_455 S
C641   H643    1.111   .     S
C641   H644    1.104   .     S
C641   C734    1.528   .     S
H642   C77     1.110   1_556 S
H647   C75     1.106   1_556 S
C649   C650    1.534   .     S
C649   H658    1.104   .     S
C649   H93     1.104   1_556 S
C650   H655    1.112   .     S
C650   C651    1.528   .     S
C650   H656    1.110   .     S
C651   H654    1.109   .     S
C651   H653    1.111   .     S
C651   H88     1.111   1_556 S
C659   C679    1.464   .     S
C659   O705    1.292   .     A
C659   O707    1.304   .     A
C660   O708    1.296   .     A
C660   C680    1.448   .     S
C660   O706    1.293   .     A
C661   H699    1.078   .     S
C661   C663    1.408   .     A
C661   C669    1.414   .     A
C662   C670    1.416   .     A
C662   C664    1.412   .     A
C662   H700    1.081   .     S
C663   H701    1.082   .     S
C663   N703    1.361   .     A
C664   H702    1.080   .     S
C664   N704    1.364   .     A
C665   C713    1.524   .     S
C665   N703    1.392   .     A
C665   C667    1.432   .     A
C666   C723    1.529   .     S
C666   N704    1.393   .     A
C666   C668    1.428   .     A
C667   C669    1.414   .     A
C667   C733    1.530   .     S
C668   C743    1.528   .     S
C668   C670    1.413   .     A
C670   C105    1.527   1_556 S
C671   O709    1.287   .     A
C671   O711    1.297   .     A
C671   C673    1.439   .     S
C672   O710    1.287   .     A
C672   O712    1.297   .     A
C672   C674    1.439   .     S
C674   C767    1.342   .     S
C674   H784    1.087   .     S
C675   H691    1.082   .     S
C675   C685    1.405   .     A
C675   C677    1.389   .     A
C676   C686    1.407   .     A
C676   H692    1.082   .     S
C676   C678    1.390   .     A
C677   C679    1.403   .     A
C677   H693    1.083   .     S
C678   C680    1.397   .     A
C678   H694    1.084   .     S
C679   C681    1.399   .     A
C680   C682    1.396   .     A
C681   H695    1.079   .     S
C681   C683    1.392   .     A
C682   C684    1.391   .     A
C682   H696    1.084   .     S
C683   C685    1.407   .     A
C683   H697    1.082   .     S
C684   C686    1.409   .     A
C684   H698    1.082   .     S
C685   C968    1.478   1_545 S
C686   C967    1.478   .     S
Cu687  O705    1.950   .     S
Cu687  O712    1.963   .     S
Cu687  O708    1.963   .     S
Cu687  Cu688   2.690   .     S
Cu687  O709    1.955   .     S
Cu687  N704    2.021   .     S
Cu688  N703    2.021   .     S
Cu688  O706    1.950   .     S
Cu688  O711    1.963   .     S
Cu688  O707    1.963   .     S
Cu688  O710    1.955   .     S
H689   C767    1.087   .     S
C713   C714    1.538   .     S
C713   H721    1.093   .     S
C713   H722    1.106   .     S
C714   C715    1.526   .     S
C714   H720    1.111   .     S
C714   H719    1.110   .     S
C715   H717    1.108   .     S
C715   H718    1.110   .     S
C715   H716    1.110   .     S
C723   H731    1.082   .     S
C723   H732    1.108   .     S
C723   C724    1.542   .     S
C724   C725    1.524   .     S
C724   H730    1.114   .     S
C724   H729    1.110   .     S
C725   H726    1.110   .     S
C725   H727    1.103   .     S
C725   H822    1.107   .     S
C733   H742    1.107   .     S
C733   C734    1.536   .     S
C734   H740    1.110   .     S
C734   H739    1.110   .     S
C735   H737    1.111   .     S
C735   H738    1.104   .     S
C735   C828    1.528   .     S
H736   C171    1.110   1_556 S
H741   C169    1.106   1_556 S
C743   C744    1.534   .     S
C743   H752    1.104   .     S
C743   H187    1.104   1_556 S
C744   H749    1.112   .     S
C744   C745    1.528   .     S
C744   H750    1.110   .     S
C745   H748    1.109   .     S
C745   H747    1.111   .     S
C745   H182    1.111   1_556 S
C753   C773    1.464   .     S
C753   O799    1.292   .     A
C753   O801    1.304   .     A
C754   O802    1.296   .     A
C754   C774    1.448   .     S
C754   O800    1.293   .     A
C755   H793    1.078   .     S
C755   C757    1.408   .     A
C755   C763    1.414   .     A
C756   C764    1.416   .     A
C756   C758    1.412   .     A
C756   H794    1.081   .     S
C757   H795    1.082   .     S
C757   N797    1.361   .     A
C758   H796    1.080   .     S
C758   N798    1.364   .     A
C759   C807    1.524   .     S
C759   N797    1.392   .     A
C759   C761    1.432   .     A
C760   C817    1.529   .     S
C760   N798    1.393   .     A
C760   C762    1.428   .     A
C761   C763    1.414   .     A
C761   C827    1.530   .     S
C762   C837    1.528   .     S
C762   C764    1.413   .     A
C764   C199    1.527   1_556 S
C765   O803    1.287   .     A
C765   O805    1.297   .     A
C765   C767    1.439   .     S
C766   O804    1.287   .     A
C766   O806    1.297   .     A
C766   C768    1.439   .     S
C768   C579    1.342   1_655 S
C768   H596    1.087   1_655 S
C769   H785    1.082   .     S
C769   C779    1.405   .     A
C769   C771    1.389   .     A
C770   C780    1.407   .     A
C770   H786    1.082   .     S
C770   C772    1.390   .     A
C771   C773    1.403   .     A
C771   H787    1.083   .     S
C772   C774    1.397   .     A
C772   H788    1.084   .     S
C773   C775    1.399   .     A
C774   C776    1.396   .     A
C775   H789    1.079   .     S
C775   C777    1.392   .     A
C776   C778    1.391   .     A
C776   H790    1.084   .     S
C777   C779    1.407   .     A
C777   H791    1.082   .     S
C778   C780    1.409   .     A
C778   H792    1.082   .     S
C779   C1062   1.478   1_545 S
C780   C1061   1.478   .     S
Cu781  O799    1.950   .     S
Cu781  O806    1.963   .     S
Cu781  O802    1.963   .     S
Cu781  Cu782   2.690   .     S
Cu781  O803    1.955   .     S
Cu781  N798    2.021   .     S
Cu782  N797    2.021   .     S
Cu782  O800    1.950   .     S
Cu782  O805    1.963   .     S
Cu782  O801    1.963   .     S
Cu782  O804    1.955   .     S
H783   C579    1.087   1_655 S
C807   C808    1.538   .     S
C807   H815    1.093   .     S
C807   H816    1.106   .     S
C808   C809    1.526   .     S
C808   H814    1.111   .     S
C808   H813    1.110   .     S
C809   H811    1.108   .     S
C809   H812    1.110   .     S
C809   H810    1.110   .     S
C817   H825    1.082   .     S
C817   H826    1.108   .     S
C817   C818    1.542   .     S
C818   C819    1.524   .     S
C818   H824    1.114   .     S
C818   H823    1.110   .     S
C819   H820    1.110   .     S
C819   H821    1.103   .     S
C819   H634    1.107   1_655 S
C827   H836    1.107   .     S
C827   C828    1.536   .     S
C828   H834    1.110   .     S
C828   H833    1.110   .     S
C829   H831    1.111   .     S
C829   H832    1.104   .     S
C829   C640    1.528   1_655 S
H830   C265    1.110   1_556 S
H835   C263    1.106   1_556 S
C837   C838    1.534   .     S
C837   H846    1.104   .     S
C837   H281    1.104   1_556 S
C838   H843    1.112   .     S
C838   C839    1.528   .     S
C838   H844    1.110   .     S
C839   H842    1.109   .     S
C839   H841    1.111   .     S
C839   H276    1.111   1_556 S
C847   C867    1.464   .     S
C847   O893    1.292   .     A
C847   O895    1.304   .     A
C848   O896    1.296   .     A
C848   C868    1.448   .     S
C848   O894    1.293   .     A
C849   H887    1.078   .     S
C849   C851    1.408   .     A
C849   C857    1.414   .     A
C850   C858    1.416   .     A
C850   C852    1.412   .     A
C850   H888    1.081   .     S
C851   H889    1.082   .     S
C851   N891    1.361   .     A
C852   H890    1.080   .     S
C852   N892    1.364   .     A
C853   C901    1.524   .     S
C853   N891    1.392   .     A
C853   C855    1.432   .     A
C854   C911    1.529   .     S
C854   N892    1.393   .     A
C854   C856    1.428   .     A
C855   C857    1.414   .     A
C855   C921    1.530   .     S
C856   C931    1.528   .     S
C856   C858    1.413   .     A
C858   C293    1.527   1_556 S
C859   O897    1.287   .     A
C859   O899    1.297   .     A
C859   C861    1.439   .     S
C860   O898    1.287   .     A
C860   O900    1.297   .     A
C860   C862    1.439   .     S
C861   C1050   1.342   1_455 S
C861   H1065   1.087   1_455 S
C862   C955    1.342   .     S
C862   H972    1.087   .     S
C863   H879    1.082   .     S
C863   C873    1.405   .     A
C863   C865    1.389   .     A
C864   C874    1.407   .     A
C864   H880    1.082   .     S
C864   C866    1.390   .     A
C865   C867    1.403   .     A
C865   H881    1.083   .     S
C866   C868    1.397   .     A
C866   H882    1.084   .     S
C867   C869    1.399   .     A
C868   C870    1.396   .     A
C869   H883    1.079   .     S
C869   C871    1.392   .     A
C870   C872    1.391   .     A
C870   H884    1.084   .     S
C871   C873    1.407   .     A
C871   H885    1.082   .     S
C872   C874    1.409   .     A
C872   H886    1.082   .     S
C874   C591    1.478   1_565 S
Cu875  O893    1.950   .     S
Cu875  O900    1.963   .     S
Cu875  O896    1.963   .     S
Cu875  Cu876   2.690   .     S
Cu875  O897    1.955   .     S
Cu875  N892    2.021   .     S
Cu876  N891    2.021   .     S
Cu876  O894    1.950   .     S
Cu876  O899    1.963   .     S
Cu876  O895    1.963   .     S
Cu876  O898    1.955   .     S
H877   C955    1.087   .     S
H878   C1050   1.087   1_455 S
C901   C902    1.538   .     S
C901   H909    1.093   .     S
C901   H910    1.106   .     S
C902   C903    1.526   .     S
C902   H908    1.111   .     S
C902   H907    1.110   .     S
C903   H905    1.108   .     S
C903   H906    1.110   .     S
C903   H904    1.110   .     S
C911   H919    1.082   .     S
C911   H920    1.108   .     S
C911   C912    1.542   .     S
C912   C913    1.524   .     S
C912   H918    1.114   .     S
C912   H917    1.110   .     S
C913   H914    1.110   .     S
C913   H915    1.103   .     S
C913   H1010   1.107   .     S
H916   C1101   1.107   1_455 S
C921   H930    1.107   .     S
C921   C922    1.536   .     S
C922   H928    1.110   .     S
C922   H927    1.110   .     S
C922   C1111   1.528   1_455 S
C923   H925    1.111   .     S
C923   H926    1.104   .     S
C923   C1016   1.528   .     S
H924   C359    1.110   1_556 S
H929   C357    1.106   1_556 S
C931   C932    1.534   .     S
C931   H940    1.104   .     S
C931   H375    1.104   1_556 S
C932   H937    1.112   .     S
C932   C933    1.528   .     S
C932   H938    1.110   .     S
C933   H936    1.109   .     S
C933   H935    1.111   .     S
C933   H370    1.111   1_556 S
C941   C961    1.464   .     S
C941   O987    1.292   .     A
C941   O989    1.304   .     A
C942   O990    1.296   .     A
C942   C962    1.448   .     S
C942   O988    1.293   .     A
C943   H981    1.078   .     S
C943   C945    1.408   .     A
C943   C951    1.414   .     A
C944   C952    1.416   .     A
C944   C946    1.412   .     A
C944   H982    1.081   .     S
C945   H983    1.082   .     S
C945   N985    1.361   .     A
C946   H984    1.080   .     S
C946   N986    1.364   .     A
C947   C995    1.524   .     S
C947   N985    1.392   .     A
C947   C949    1.432   .     A
C948   C1005   1.529   .     S
C948   N986    1.393   .     A
C948   C950    1.428   .     A
C949   C951    1.414   .     A
C949   C1015   1.530   .     S
C950   C1025   1.528   .     S
C950   C952    1.413   .     A
C952   C387    1.527   1_556 S
C953   O991    1.287   .     A
C953   O993    1.297   .     A
C953   C955    1.439   .     S
C954   O992    1.287   .     A
C954   O994    1.297   .     A
C954   C956    1.439   .     S
C956   C1049   1.342   .     S
C956   H1066   1.087   .     S
C957   H973    1.082   .     S
C957   C967    1.405   .     A
C957   C959    1.389   .     A
C958   C968    1.407   .     A
C958   H974    1.082   .     S
C958   C960    1.390   .     A
C959   C961    1.403   .     A
C959   H975    1.083   .     S
C960   C962    1.397   .     A
C960   H976    1.084   .     S
C961   C963    1.399   .     A
C962   C964    1.396   .     A
C963   H977    1.079   .     S
C963   C965    1.392   .     A
C964   C966    1.391   .     A
C964   H978    1.084   .     S
C965   C967    1.407   .     A
C965   H979    1.082   .     S
C966   C968    1.409   .     A
C966   H980    1.082   .     S
C968   C685    1.478   1_565 S
Cu969  O987    1.950   .     S
Cu969  O994    1.963   .     S
Cu969  O990    1.963   .     S
Cu969  Cu970   2.690   .     S
Cu969  O991    1.955   .     S
Cu969  N986    2.021   .     S
Cu970  N985    2.021   .     S
Cu970  O988    1.950   .     S
Cu970  O993    1.963   .     S
Cu970  O989    1.963   .     S
Cu970  O992    1.955   .     S
H971   C1049   1.087   .     S
C995   C996    1.538   .     S
C995   H1003   1.093   .     S
C995   H1004   1.106   .     S
C996   C997    1.526   .     S
C996   H1002   1.111   .     S
C996   H1001   1.110   .     S
C997   H999    1.108   .     S
C997   H1000   1.110   .     S
C997   H998    1.110   .     S
C1005  H1013   1.082   .     S
C1005  H1014   1.108   .     S
C1005  C1006   1.542   .     S
C1006  C1007   1.524   .     S
C1006  H1012   1.114   .     S
C1006  H1011   1.110   .     S
C1007  H1008   1.110   .     S
C1007  H1009   1.103   .     S
C1007  H1104   1.107   .     S
C1015  H1024   1.107   .     S
C1015  C1016   1.536   .     S
C1016  H1022   1.110   .     S
C1016  H1021   1.110   .     S
C1017  H1019   1.111   .     S
C1017  H1020   1.104   .     S
C1017  C1110   1.528   .     S
H1018  C453    1.110   1_556 S
H1023  C451    1.106   1_556 S
C1025  C1026   1.534   .     S
C1025  H1034   1.104   .     S
C1025  H469    1.104   1_556 S
C1026  H1031   1.112   .     S
C1026  C1027   1.528   .     S
C1026  H1032   1.110   .     S
C1027  H1030   1.109   .     S
C1027  H1029   1.111   .     S
C1027  H464    1.111   1_556 S
C1035  C1055   1.464   .     S
C1035  O1081   1.292   .     A
C1035  O1083   1.304   .     A
C1036  O1084   1.296   .     A
C1036  C1056   1.448   .     S
C1036  O1082   1.293   .     A
C1037  H1075   1.078   .     S
C1037  C1039   1.408   .     A
C1037  C1045   1.414   .     A
C1038  C1046   1.416   .     A
C1038  C1040   1.412   .     A
C1038  H1076   1.081   .     S
C1039  H1077   1.082   .     S
C1039  N1079   1.361   .     A
C1040  H1078   1.080   .     S
C1040  N1080   1.364   .     A
C1041  C1089   1.524   .     S
C1041  N1079   1.392   .     A
C1041  C1043   1.432   .     A
C1042  C1099   1.529   .     S
C1042  N1080   1.393   .     A
C1042  C1044   1.428   .     A
C1043  C1045   1.414   .     A
C1043  C1109   1.530   .     S
C1044  C1119   1.528   .     S
C1044  C1046   1.413   .     A
C1046  C481    1.527   1_556 S
C1047  O1085   1.287   .     A
C1047  O1087   1.297   .     A
C1047  C1049   1.439   .     S
C1048  O1086   1.287   .     A
C1048  O1088   1.297   .     A
C1048  C1050   1.439   .     S
C1050  C861    1.342   1_655 S
C1050  H878    1.087   1_655 S
C1051  H1067   1.082   .     S
C1051  C1061   1.405   .     A
C1051  C1053   1.389   .     A
C1052  C1062   1.407   .     A
C1052  H1068   1.082   .     S
C1052  C1054   1.390   .     A
C1053  C1055   1.403   .     A
C1053  H1069   1.083   .     S
C1054  C1056   1.397   .     A
C1054  H1070   1.084   .     S
C1055  C1057   1.399   .     A
C1056  C1058   1.396   .     A
C1057  H1071   1.079   .     S
C1057  C1059   1.392   .     A
C1058  C1060   1.391   .     A
C1058  H1072   1.084   .     S
C1059  C1061   1.407   .     A
C1059  H1073   1.082   .     S
C1060  C1062   1.409   .     A
C1060  H1074   1.082   .     S
C1062  C779    1.478   1_565 S
Cu1063 O1081   1.950   .     S
Cu1063 O1088   1.963   .     S
Cu1063 O1084   1.963   .     S
Cu1063 Cu1064  2.690   .     S
Cu1063 O1085   1.955   .     S
Cu1063 N1080   2.021   .     S
Cu1064 N1079   2.021   .     S
Cu1064 O1082   1.950   .     S
Cu1064 O1087   1.963   .     S
Cu1064 O1083   1.963   .     S
Cu1064 O1086   1.955   .     S
H1065  C861    1.087   1_655 S
C1089  C1090   1.538   .     S
C1089  H1097   1.093   .     S
C1089  H1098   1.106   .     S
C1090  C1091   1.526   .     S
C1090  H1096   1.111   .     S
C1090  H1095   1.110   .     S
C1091  H1093   1.108   .     S
C1091  H1094   1.110   .     S
C1091  H1092   1.110   .     S
C1099  H1107   1.082   .     S
C1099  H1108   1.108   .     S
C1099  C1100   1.542   .     S
C1100  C1101   1.524   .     S
C1100  H1106   1.114   .     S
C1100  H1105   1.110   .     S
C1101  H1102   1.110   .     S
C1101  H1103   1.103   .     S
C1101  H916    1.107   1_655 S
C1109  H1118   1.107   .     S
C1109  C1110   1.536   .     S
C1110  H1116   1.110   .     S
C1110  H1115   1.110   .     S
C1111  H1113   1.111   .     S
C1111  H1114   1.104   .     S
C1111  C922    1.528   1_655 S
H1112  C547    1.110   1_556 S
H1117  C545    1.106   1_556 S
C1119  C1120   1.534   .     S
C1119  H1128   1.104   .     S
C1119  H563    1.104   1_556 S
C1120  H1125   1.112   .     S
C1120  C1121   1.528   .     S
C1120  H1126   1.110   .     S
C1121  H1124   1.109   .     S
C1121  H1123   1.111   .     S
C1121  H558    1.111   1_556 S
