data_str_m2_o1_o2_pcu_sym.103
_audit_creation_date              2020-01-03
_audit_creation_method            'Materials Studio'
_symmetry_space_group_name_H-M    'P1'
_symmetry_Int_Tables_number       1
_symmetry_cell_setting            triclinic
loop_
_symmetry_equiv_pos_as_xyz
  x,y,z
_cell_length_a                    32.5050
_cell_length_b                    28.5287
_cell_length_c                    30.3127
_cell_angle_alpha                 90.0000
_cell_angle_beta                  90.1711
_cell_angle_gamma                 90.0000
loop_
_atom_site_label
_atom_site_type_symbol
_atom_site_fract_x
_atom_site_fract_y
_atom_site_fract_z
_atom_site_U_iso_or_equiv
_atom_site_adp_type
_atom_site_occupancy
C1     C     0.08734   0.16667   0.24996   0.00000  Uiso   1.00
C2     C     0.24599   0.16667   0.25004   0.00000  Uiso   1.00
C3     C     0.16663   0.16667   0.16491   0.00000  Uiso   1.00
C4     C     0.16670   0.16667   0.33509   0.00000  Uiso   1.00
C5     C     0.14061   0.02482   0.22306   0.00000  Uiso   1.00
C6     C     0.19273   0.30852   0.27693   0.00000  Uiso   1.00
C7     C     0.19272   0.02482   0.27694   0.00000  Uiso   1.00
C8     C     0.14060   0.30852   0.22307   0.00000  Uiso   1.00
C9     C     0.02128   0.12407   0.24998   0.00000  Uiso   1.00
C10    C     0.31205   0.20926   0.25003   0.00000  Uiso   1.00
C11    C     0.31205   0.12407   0.25002   0.00000  Uiso   1.00
C12    C     0.02128   0.20926   0.24997   0.00000  Uiso   1.00
C13    C     0.15263   0.20602   0.04728   0.00000  Uiso   1.00
C14    C     0.15270   0.12727   0.45261   0.00000  Uiso   1.00
C15    C     0.18070   0.20602   0.45272   0.00000  Uiso   1.00
C16    C     0.18063   0.12727   0.04739   0.00000  Uiso   1.00
C17    C     0.15259   0.20618   0.09313   0.00000  Uiso   1.00
C18    C     0.15271   0.12711   0.40676   0.00000  Uiso   1.00
C19    C     0.18074   0.20618   0.40687   0.00000  Uiso   1.00
C20    C     0.18063   0.12711   0.09324   0.00000  Uiso   1.00
C21    C     0.16662   0.16665   0.11656   0.00000  Uiso   1.00
C22    C     0.16672   0.16665   0.38344   0.00000  Uiso   1.00
C23    C     0.16665   0.16665   0.02418   0.00000  Uiso   1.00
C24    C     0.16668   0.16665   0.47582   0.00000  Uiso   1.00
C25    C     0.29060   0.16667   0.25004   0.00000  Uiso   1.00
C26    C     0.04273   0.16667   0.24996   0.00000  Uiso   1.00
Cu27   Cu    0.16667   0.21355   0.25000   0.00000  Uiso   1.00
Cu28   Cu    0.16667   0.11978   0.25000   0.00000  Uiso   1.00
H29    H     0.03729   0.09077   0.24995   0.00000  Uiso   1.00
H30    H     0.29604   0.24257   0.25005   0.00000  Uiso   1.00
H31    H     0.29604   0.09077   0.25005   0.00000  Uiso   1.00
H32    H     0.03729   0.24257   0.24995   0.00000  Uiso   1.00
N33    N     0.16667   0.28402   0.25000   0.00000  Uiso   1.00
N34    N     0.16667   0.04931   0.25000   0.00000  Uiso   1.00
O35    O     0.10655   0.20625   0.25000   0.00000  Uiso   1.00
O36    O     0.22679   0.12709   0.25001   0.00000  Uiso   1.00
O37    O     0.22679   0.20625   0.25001   0.00000  Uiso   1.00
O38    O     0.10655   0.12709   0.25000   0.00000  Uiso   1.00
O39    O     0.16666   0.20626   0.18573   0.00000  Uiso   1.00
O40    O     0.16667   0.12707   0.31427   0.00000  Uiso   1.00
O41    O     0.16667   0.20626   0.31427   0.00000  Uiso   1.00
O42    O     0.16666   0.12707   0.18573   0.00000  Uiso   1.00
H43    H     0.11975   0.04355   0.20149   0.00000  Uiso   1.00
H44    H     0.21361   0.28979   0.29847   0.00000  Uiso   1.00
H45    H     0.21358   0.04355   0.29851   0.00000  Uiso   1.00
H46    H     0.11972   0.28979   0.20153   0.00000  Uiso   1.00
H47    H     0.14114   0.23646   0.02979   0.00000  Uiso   1.00
H48    H     0.14120   0.09683   0.47002   0.00000  Uiso   1.00
H49    H     0.19219   0.23646   0.47021   0.00000  Uiso   1.00
H50    H     0.19213   0.09683   0.02998   0.00000  Uiso   1.00
F51    F     0.13799   0.24463   0.11436   0.00000  Uiso   1.00
F52    F     0.13814   0.08866   0.38543   0.00000  Uiso   1.00
F53    F     0.19534   0.24463   0.38565   0.00000  Uiso   1.00
F54    F     0.19519   0.08866   0.11457   0.00000  Uiso   1.00
C55    C     0.42068   0.16667   0.24996   0.00000  Uiso   1.00
C56    C     0.57932   0.16667   0.25004   0.00000  Uiso   1.00
C57    C     0.49997   0.16667   0.16491   0.00000  Uiso   1.00
C58    C     0.50003   0.16667   0.33509   0.00000  Uiso   1.00
C59    C     0.47395   0.02482   0.22306   0.00000  Uiso   1.00
C60    C     0.52606   0.30852   0.27693   0.00000  Uiso   1.00
C61    C     0.52605   0.02482   0.27694   0.00000  Uiso   1.00
C62    C     0.47394   0.30852   0.22307   0.00000  Uiso   1.00
C63    C     0.35461   0.12407   0.24998   0.00000  Uiso   1.00
C64    C     0.64538   0.20926   0.25003   0.00000  Uiso   1.00
C65    C     0.64538   0.12407   0.25002   0.00000  Uiso   1.00
C66    C     0.35461   0.20926   0.24997   0.00000  Uiso   1.00
C67    C     0.48597   0.20602   0.04728   0.00000  Uiso   1.00
C68    C     0.48604   0.12727   0.45261   0.00000  Uiso   1.00
C69    C     0.51403   0.20602   0.45272   0.00000  Uiso   1.00
C70    C     0.51396   0.12727   0.04739   0.00000  Uiso   1.00
C71    C     0.48593   0.20618   0.09313   0.00000  Uiso   1.00
C72    C     0.48604   0.12711   0.40676   0.00000  Uiso   1.00
C73    C     0.51407   0.20618   0.40687   0.00000  Uiso   1.00
C74    C     0.51396   0.12711   0.09324   0.00000  Uiso   1.00
C75    C     0.49995   0.16665   0.11656   0.00000  Uiso   1.00
C76    C     0.50005   0.16665   0.38344   0.00000  Uiso   1.00
C77    C     0.49998   0.16665   0.02418   0.00000  Uiso   1.00
C78    C     0.50002   0.16665   0.47582   0.00000  Uiso   1.00
C79    C     0.62393   0.16667   0.25004   0.00000  Uiso   1.00
C80    C     0.37607   0.16667   0.24996   0.00000  Uiso   1.00
Cu81   Cu    0.50000   0.21355   0.25000   0.00000  Uiso   1.00
Cu82   Cu    0.50000   0.11978   0.25000   0.00000  Uiso   1.00
H83    H     0.37062   0.09077   0.24995   0.00000  Uiso   1.00
H84    H     0.62938   0.24257   0.25005   0.00000  Uiso   1.00
H85    H     0.62938   0.09077   0.25005   0.00000  Uiso   1.00
H86    H     0.37062   0.24257   0.24995   0.00000  Uiso   1.00
N87    N     0.50000   0.28402   0.25000   0.00000  Uiso   1.00
N88    N     0.50000   0.04931   0.25000   0.00000  Uiso   1.00
O89    O     0.43988   0.20625   0.25000   0.00000  Uiso   1.00
O90    O     0.56012   0.12709   0.25001   0.00000  Uiso   1.00
O91    O     0.56012   0.20625   0.25001   0.00000  Uiso   1.00
O92    O     0.43988   0.12709   0.25000   0.00000  Uiso   1.00
O93    O     0.50000   0.20626   0.18573   0.00000  Uiso   1.00
O94    O     0.50000   0.12707   0.31427   0.00000  Uiso   1.00
O95    O     0.50000   0.20626   0.31427   0.00000  Uiso   1.00
O96    O     0.50000   0.12707   0.18573   0.00000  Uiso   1.00
H97    H     0.45309   0.04355   0.20149   0.00000  Uiso   1.00
H98    H     0.54695   0.28979   0.29847   0.00000  Uiso   1.00
H99    H     0.54691   0.04355   0.29851   0.00000  Uiso   1.00
H100   H     0.45305   0.28979   0.20153   0.00000  Uiso   1.00
H101   H     0.47447   0.23646   0.02979   0.00000  Uiso   1.00
H102   H     0.47453   0.09683   0.47002   0.00000  Uiso   1.00
H103   H     0.52553   0.23646   0.47021   0.00000  Uiso   1.00
H104   H     0.52547   0.09683   0.02998   0.00000  Uiso   1.00
F105   F     0.47132   0.24463   0.11436   0.00000  Uiso   1.00
F106   F     0.47148   0.08866   0.38543   0.00000  Uiso   1.00
F107   F     0.52868   0.24463   0.38565   0.00000  Uiso   1.00
F108   F     0.52852   0.08866   0.11457   0.00000  Uiso   1.00
C109   C     0.75401   0.16667   0.24996   0.00000  Uiso   1.00
C110   C     0.91266   0.16667   0.25004   0.00000  Uiso   1.00
C111   C     0.83330   0.16667   0.16491   0.00000  Uiso   1.00
C112   C     0.83337   0.16667   0.33509   0.00000  Uiso   1.00
C113   C     0.80728   0.02482   0.22306   0.00000  Uiso   1.00
C114   C     0.85940   0.30852   0.27693   0.00000  Uiso   1.00
C115   C     0.85939   0.02482   0.27694   0.00000  Uiso   1.00
C116   C     0.80727   0.30852   0.22307   0.00000  Uiso   1.00
C117   C     0.68795   0.12407   0.24998   0.00000  Uiso   1.00
C118   C     0.97872   0.20926   0.25003   0.00000  Uiso   1.00
C119   C     0.97872   0.12407   0.25002   0.00000  Uiso   1.00
C120   C     0.68795   0.20926   0.24997   0.00000  Uiso   1.00
C121   C     0.81930   0.20602   0.04728   0.00000  Uiso   1.00
C122   C     0.81937   0.12727   0.45261   0.00000  Uiso   1.00
C123   C     0.84737   0.20602   0.45272   0.00000  Uiso   1.00
C124   C     0.84730   0.12727   0.04739   0.00000  Uiso   1.00
C125   C     0.81926   0.20618   0.09313   0.00000  Uiso   1.00
C126   C     0.81937   0.12711   0.40676   0.00000  Uiso   1.00
C127   C     0.84741   0.20618   0.40687   0.00000  Uiso   1.00
C128   C     0.84729   0.12711   0.09324   0.00000  Uiso   1.00
C129   C     0.83328   0.16665   0.11656   0.00000  Uiso   1.00
C130   C     0.83338   0.16665   0.38344   0.00000  Uiso   1.00
C131   C     0.83332   0.16665   0.02418   0.00000  Uiso   1.00
C132   C     0.83335   0.16665   0.47582   0.00000  Uiso   1.00
C133   C     0.95727   0.16667   0.25004   0.00000  Uiso   1.00
C134   C     0.70940   0.16667   0.24996   0.00000  Uiso   1.00
Cu135  Cu    0.83333   0.21355   0.25000   0.00000  Uiso   1.00
Cu136  Cu    0.83333   0.11978   0.25000   0.00000  Uiso   1.00
H137   H     0.70396   0.09077   0.24995   0.00000  Uiso   1.00
H138   H     0.96271   0.24257   0.25005   0.00000  Uiso   1.00
H139   H     0.96271   0.09077   0.25005   0.00000  Uiso   1.00
H140   H     0.70396   0.24257   0.24995   0.00000  Uiso   1.00
N141   N     0.83333   0.28402   0.25000   0.00000  Uiso   1.00
N142   N     0.83333   0.04931   0.25000   0.00000  Uiso   1.00
O143   O     0.77321   0.20625   0.25000   0.00000  Uiso   1.00
O144   O     0.89345   0.12709   0.25001   0.00000  Uiso   1.00
O145   O     0.89345   0.20625   0.25001   0.00000  Uiso   1.00
O146   O     0.77321   0.12709   0.25000   0.00000  Uiso   1.00
O147   O     0.83333   0.20626   0.18573   0.00000  Uiso   1.00
O148   O     0.83334   0.12707   0.31427   0.00000  Uiso   1.00
O149   O     0.83334   0.20626   0.31427   0.00000  Uiso   1.00
O150   O     0.83333   0.12707   0.18573   0.00000  Uiso   1.00
H151   H     0.78642   0.04355   0.20149   0.00000  Uiso   1.00
H152   H     0.88028   0.28979   0.29847   0.00000  Uiso   1.00
H153   H     0.88025   0.04355   0.29851   0.00000  Uiso   1.00
H154   H     0.78639   0.28979   0.20153   0.00000  Uiso   1.00
H155   H     0.80781   0.23646   0.02979   0.00000  Uiso   1.00
H156   H     0.80786   0.09683   0.47002   0.00000  Uiso   1.00
H157   H     0.85886   0.23646   0.47021   0.00000  Uiso   1.00
H158   H     0.85880   0.09683   0.02998   0.00000  Uiso   1.00
F159   F     0.80466   0.24463   0.11436   0.00000  Uiso   1.00
F160   F     0.80481   0.08866   0.38543   0.00000  Uiso   1.00
F161   F     0.86201   0.24463   0.38565   0.00000  Uiso   1.00
F162   F     0.86186   0.08866   0.11457   0.00000  Uiso   1.00
C163   C     0.08734   0.50000   0.24996   0.00000  Uiso   1.00
C164   C     0.24599   0.50000   0.25004   0.00000  Uiso   1.00
C165   C     0.16663   0.50000   0.16491   0.00000  Uiso   1.00
C166   C     0.16670   0.50000   0.33509   0.00000  Uiso   1.00
C167   C     0.14061   0.35815   0.22306   0.00000  Uiso   1.00
C168   C     0.19273   0.64185   0.27693   0.00000  Uiso   1.00
C169   C     0.19272   0.35815   0.27694   0.00000  Uiso   1.00
C170   C     0.14060   0.64185   0.22307   0.00000  Uiso   1.00
C171   C     0.02128   0.45740   0.24998   0.00000  Uiso   1.00
C172   C     0.31205   0.54260   0.25003   0.00000  Uiso   1.00
C173   C     0.31205   0.45740   0.25002   0.00000  Uiso   1.00
C174   C     0.02128   0.54260   0.24997   0.00000  Uiso   1.00
C175   C     0.15263   0.53935   0.04728   0.00000  Uiso   1.00
C176   C     0.15270   0.46061   0.45261   0.00000  Uiso   1.00
C177   C     0.18070   0.53935   0.45272   0.00000  Uiso   1.00
C178   C     0.18063   0.46061   0.04739   0.00000  Uiso   1.00
C179   C     0.15259   0.53952   0.09313   0.00000  Uiso   1.00
C180   C     0.15271   0.46045   0.40676   0.00000  Uiso   1.00
C181   C     0.18074   0.53952   0.40687   0.00000  Uiso   1.00
C182   C     0.18063   0.46045   0.09324   0.00000  Uiso   1.00
C183   C     0.16662   0.49999   0.11656   0.00000  Uiso   1.00
C184   C     0.16672   0.49999   0.38344   0.00000  Uiso   1.00
C185   C     0.16665   0.49998   0.02418   0.00000  Uiso   1.00
C186   C     0.16668   0.49998   0.47582   0.00000  Uiso   1.00
C187   C     0.29060   0.50000   0.25004   0.00000  Uiso   1.00
C188   C     0.04273   0.50000   0.24996   0.00000  Uiso   1.00
Cu189  Cu    0.16667   0.54689   0.25000   0.00000  Uiso   1.00
Cu190  Cu    0.16667   0.45311   0.25000   0.00000  Uiso   1.00
H191   H     0.03729   0.42410   0.24995   0.00000  Uiso   1.00
H192   H     0.29604   0.57590   0.25005   0.00000  Uiso   1.00
H193   H     0.29604   0.42410   0.25005   0.00000  Uiso   1.00
H194   H     0.03729   0.57590   0.24995   0.00000  Uiso   1.00
N195   N     0.16667   0.61736   0.25000   0.00000  Uiso   1.00
N196   N     0.16667   0.38264   0.25000   0.00000  Uiso   1.00
O197   O     0.10655   0.53958   0.25000   0.00000  Uiso   1.00
O198   O     0.22679   0.46042   0.25001   0.00000  Uiso   1.00
O199   O     0.22679   0.53958   0.25001   0.00000  Uiso   1.00
O200   O     0.10655   0.46042   0.25000   0.00000  Uiso   1.00
O201   O     0.16666   0.53959   0.18573   0.00000  Uiso   1.00
O202   O     0.16667   0.46041   0.31427   0.00000  Uiso   1.00
O203   O     0.16667   0.53959   0.31427   0.00000  Uiso   1.00
O204   O     0.16666   0.46041   0.18573   0.00000  Uiso   1.00
H205   H     0.11975   0.37688   0.20149   0.00000  Uiso   1.00
H206   H     0.21361   0.62312   0.29847   0.00000  Uiso   1.00
H207   H     0.21358   0.37688   0.29851   0.00000  Uiso   1.00
H208   H     0.11972   0.62312   0.20153   0.00000  Uiso   1.00
H209   H     0.14114   0.56979   0.02979   0.00000  Uiso   1.00
H210   H     0.14120   0.43016   0.47002   0.00000  Uiso   1.00
H211   H     0.19219   0.56979   0.47021   0.00000  Uiso   1.00
H212   H     0.19213   0.43016   0.02998   0.00000  Uiso   1.00
F213   F     0.13799   0.57796   0.11436   0.00000  Uiso   1.00
F214   F     0.13814   0.42199   0.38543   0.00000  Uiso   1.00
F215   F     0.19534   0.57796   0.38565   0.00000  Uiso   1.00
F216   F     0.19519   0.42199   0.11457   0.00000  Uiso   1.00
C217   C     0.42068   0.50000   0.24996   0.00000  Uiso   1.00
C218   C     0.57932   0.50000   0.25004   0.00000  Uiso   1.00
C219   C     0.49997   0.50000   0.16491   0.00000  Uiso   1.00
C220   C     0.50003   0.50000   0.33509   0.00000  Uiso   1.00
C221   C     0.47395   0.35815   0.22306   0.00000  Uiso   1.00
C222   C     0.52606   0.64185   0.27693   0.00000  Uiso   1.00
C223   C     0.52605   0.35815   0.27694   0.00000  Uiso   1.00
C224   C     0.47394   0.64185   0.22307   0.00000  Uiso   1.00
C225   C     0.35461   0.45740   0.24998   0.00000  Uiso   1.00
C226   C     0.64538   0.54260   0.25003   0.00000  Uiso   1.00
C227   C     0.64538   0.45740   0.25002   0.00000  Uiso   1.00
C228   C     0.35461   0.54260   0.24997   0.00000  Uiso   1.00
C229   C     0.48597   0.53935   0.04728   0.00000  Uiso   1.00
C230   C     0.48604   0.46061   0.45261   0.00000  Uiso   1.00
C231   C     0.51403   0.53935   0.45272   0.00000  Uiso   1.00
C232   C     0.51396   0.46061   0.04739   0.00000  Uiso   1.00
C233   C     0.48593   0.53952   0.09313   0.00000  Uiso   1.00
C234   C     0.48604   0.46045   0.40676   0.00000  Uiso   1.00
C235   C     0.51407   0.53952   0.40687   0.00000  Uiso   1.00
C236   C     0.51396   0.46045   0.09324   0.00000  Uiso   1.00
C237   C     0.49995   0.49999   0.11656   0.00000  Uiso   1.00
C238   C     0.50005   0.49999   0.38344   0.00000  Uiso   1.00
C239   C     0.49998   0.49998   0.02418   0.00000  Uiso   1.00
C240   C     0.50002   0.49998   0.47582   0.00000  Uiso   1.00
C241   C     0.62393   0.50000   0.25004   0.00000  Uiso   1.00
C242   C     0.37607   0.50000   0.24996   0.00000  Uiso   1.00
Cu243  Cu    0.50000   0.54689   0.25000   0.00000  Uiso   1.00
Cu244  Cu    0.50000   0.45311   0.25000   0.00000  Uiso   1.00
H245   H     0.37062   0.42410   0.24995   0.00000  Uiso   1.00
H246   H     0.62938   0.57590   0.25005   0.00000  Uiso   1.00
H247   H     0.62938   0.42410   0.25005   0.00000  Uiso   1.00
H248   H     0.37062   0.57590   0.24995   0.00000  Uiso   1.00
N249   N     0.50000   0.61736   0.25000   0.00000  Uiso   1.00
N250   N     0.50000   0.38264   0.25000   0.00000  Uiso   1.00
O251   O     0.43988   0.53958   0.25000   0.00000  Uiso   1.00
O252   O     0.56012   0.46042   0.25001   0.00000  Uiso   1.00
O253   O     0.56012   0.53958   0.25001   0.00000  Uiso   1.00
O254   O     0.43988   0.46042   0.25000   0.00000  Uiso   1.00
O255   O     0.50000   0.53959   0.18573   0.00000  Uiso   1.00
O256   O     0.50000   0.46041   0.31427   0.00000  Uiso   1.00
O257   O     0.50000   0.53959   0.31427   0.00000  Uiso   1.00
O258   O     0.50000   0.46041   0.18573   0.00000  Uiso   1.00
H259   H     0.45309   0.37688   0.20149   0.00000  Uiso   1.00
H260   H     0.54695   0.62312   0.29847   0.00000  Uiso   1.00
H261   H     0.54691   0.37688   0.29851   0.00000  Uiso   1.00
H262   H     0.45305   0.62312   0.20153   0.00000  Uiso   1.00
H263   H     0.47447   0.56979   0.02979   0.00000  Uiso   1.00
H264   H     0.47453   0.43016   0.47002   0.00000  Uiso   1.00
H265   H     0.52553   0.56979   0.47021   0.00000  Uiso   1.00
H266   H     0.52547   0.43016   0.02998   0.00000  Uiso   1.00
F267   F     0.47132   0.57796   0.11436   0.00000  Uiso   1.00
F268   F     0.47148   0.42199   0.38543   0.00000  Uiso   1.00
F269   F     0.52868   0.57796   0.38565   0.00000  Uiso   1.00
F270   F     0.52852   0.42199   0.11457   0.00000  Uiso   1.00
C271   C     0.75401   0.50000   0.24996   0.00000  Uiso   1.00
C272   C     0.91266   0.50000   0.25004   0.00000  Uiso   1.00
C273   C     0.83330   0.50000   0.16491   0.00000  Uiso   1.00
C274   C     0.83337   0.50000   0.33509   0.00000  Uiso   1.00
C275   C     0.80728   0.35815   0.22306   0.00000  Uiso   1.00
C276   C     0.85940   0.64185   0.27693   0.00000  Uiso   1.00
C277   C     0.85939   0.35815   0.27694   0.00000  Uiso   1.00
C278   C     0.80727   0.64185   0.22307   0.00000  Uiso   1.00
C279   C     0.68795   0.45740   0.24998   0.00000  Uiso   1.00
C280   C     0.97872   0.54260   0.25003   0.00000  Uiso   1.00
C281   C     0.97872   0.45740   0.25002   0.00000  Uiso   1.00
C282   C     0.68795   0.54260   0.24997   0.00000  Uiso   1.00
C283   C     0.81930   0.53935   0.04728   0.00000  Uiso   1.00
C284   C     0.81937   0.46061   0.45261   0.00000  Uiso   1.00
C285   C     0.84737   0.53935   0.45272   0.00000  Uiso   1.00
C286   C     0.84730   0.46061   0.04739   0.00000  Uiso   1.00
C287   C     0.81926   0.53952   0.09313   0.00000  Uiso   1.00
C288   C     0.81937   0.46045   0.40676   0.00000  Uiso   1.00
C289   C     0.84741   0.53952   0.40687   0.00000  Uiso   1.00
C290   C     0.84729   0.46045   0.09324   0.00000  Uiso   1.00
C291   C     0.83328   0.49999   0.11656   0.00000  Uiso   1.00
C292   C     0.83338   0.49999   0.38344   0.00000  Uiso   1.00
C293   C     0.83332   0.49998   0.02418   0.00000  Uiso   1.00
C294   C     0.83335   0.49998   0.47582   0.00000  Uiso   1.00
C295   C     0.95727   0.50000   0.25004   0.00000  Uiso   1.00
C296   C     0.70940   0.50000   0.24996   0.00000  Uiso   1.00
Cu297  Cu    0.83333   0.54689   0.25000   0.00000  Uiso   1.00
Cu298  Cu    0.83333   0.45311   0.25000   0.00000  Uiso   1.00
H299   H     0.70396   0.42410   0.24995   0.00000  Uiso   1.00
H300   H     0.96271   0.57590   0.25005   0.00000  Uiso   1.00
H301   H     0.96271   0.42410   0.25005   0.00000  Uiso   1.00
H302   H     0.70396   0.57590   0.24995   0.00000  Uiso   1.00
N303   N     0.83333   0.61736   0.25000   0.00000  Uiso   1.00
N304   N     0.83333   0.38264   0.25000   0.00000  Uiso   1.00
O305   O     0.77321   0.53958   0.25000   0.00000  Uiso   1.00
O306   O     0.89345   0.46042   0.25001   0.00000  Uiso   1.00
O307   O     0.89345   0.53958   0.25001   0.00000  Uiso   1.00
O308   O     0.77321   0.46042   0.25000   0.00000  Uiso   1.00
O309   O     0.83333   0.53959   0.18573   0.00000  Uiso   1.00
O310   O     0.83334   0.46041   0.31427   0.00000  Uiso   1.00
O311   O     0.83334   0.53959   0.31427   0.00000  Uiso   1.00
O312   O     0.83333   0.46041   0.18573   0.00000  Uiso   1.00
H313   H     0.78642   0.37688   0.20149   0.00000  Uiso   1.00
H314   H     0.88028   0.62312   0.29847   0.00000  Uiso   1.00
H315   H     0.88025   0.37688   0.29851   0.00000  Uiso   1.00
H316   H     0.78639   0.62312   0.20153   0.00000  Uiso   1.00
H317   H     0.80781   0.56979   0.02979   0.00000  Uiso   1.00
H318   H     0.80786   0.43016   0.47002   0.00000  Uiso   1.00
H319   H     0.85886   0.56979   0.47021   0.00000  Uiso   1.00
H320   H     0.85880   0.43016   0.02998   0.00000  Uiso   1.00
F321   F     0.80466   0.57796   0.11436   0.00000  Uiso   1.00
F322   F     0.80481   0.42199   0.38543   0.00000  Uiso   1.00
F323   F     0.86201   0.57796   0.38565   0.00000  Uiso   1.00
F324   F     0.86186   0.42199   0.11457   0.00000  Uiso   1.00
C325   C     0.08734   0.83333   0.24996   0.00000  Uiso   1.00
C326   C     0.24599   0.83333   0.25004   0.00000  Uiso   1.00
C327   C     0.16663   0.83333   0.16491   0.00000  Uiso   1.00
C328   C     0.16670   0.83333   0.33509   0.00000  Uiso   1.00
C329   C     0.14061   0.69148   0.22306   0.00000  Uiso   1.00
C330   C     0.19273   0.97518   0.27693   0.00000  Uiso   1.00
C331   C     0.19272   0.69148   0.27694   0.00000  Uiso   1.00
C332   C     0.14060   0.97518   0.22307   0.00000  Uiso   1.00
C333   C     0.02128   0.79074   0.24998   0.00000  Uiso   1.00
C334   C     0.31205   0.87593   0.25003   0.00000  Uiso   1.00
C335   C     0.31205   0.79074   0.25002   0.00000  Uiso   1.00
C336   C     0.02128   0.87593   0.24997   0.00000  Uiso   1.00
C337   C     0.15263   0.87269   0.04728   0.00000  Uiso   1.00
C338   C     0.15270   0.79394   0.45261   0.00000  Uiso   1.00
C339   C     0.18070   0.87269   0.45272   0.00000  Uiso   1.00
C340   C     0.18063   0.79394   0.04739   0.00000  Uiso   1.00
C341   C     0.15259   0.87285   0.09313   0.00000  Uiso   1.00
C342   C     0.15271   0.79378   0.40676   0.00000  Uiso   1.00
C343   C     0.18074   0.87285   0.40687   0.00000  Uiso   1.00
C344   C     0.18063   0.79378   0.09324   0.00000  Uiso   1.00
C345   C     0.16662   0.83332   0.11656   0.00000  Uiso   1.00
C346   C     0.16672   0.83332   0.38344   0.00000  Uiso   1.00
C347   C     0.16665   0.83331   0.02418   0.00000  Uiso   1.00
C348   C     0.16668   0.83331   0.47582   0.00000  Uiso   1.00
C349   C     0.29060   0.83333   0.25004   0.00000  Uiso   1.00
C350   C     0.04273   0.83333   0.24996   0.00000  Uiso   1.00
Cu351  Cu    0.16667   0.88022   0.25000   0.00000  Uiso   1.00
Cu352  Cu    0.16667   0.78645   0.25000   0.00000  Uiso   1.00
H353   H     0.03729   0.75743   0.24995   0.00000  Uiso   1.00
H354   H     0.29604   0.90923   0.25005   0.00000  Uiso   1.00
H355   H     0.29604   0.75743   0.25005   0.00000  Uiso   1.00
H356   H     0.03729   0.90923   0.24995   0.00000  Uiso   1.00
N357   N     0.16667   0.95069   0.25000   0.00000  Uiso   1.00
N358   N     0.16667   0.71598   0.25000   0.00000  Uiso   1.00
O359   O     0.10655   0.87291   0.25000   0.00000  Uiso   1.00
O360   O     0.22679   0.79375   0.25001   0.00000  Uiso   1.00
O361   O     0.22679   0.87291   0.25001   0.00000  Uiso   1.00
O362   O     0.10655   0.79375   0.25000   0.00000  Uiso   1.00
O363   O     0.16666   0.87293   0.18573   0.00000  Uiso   1.00
O364   O     0.16667   0.79374   0.31427   0.00000  Uiso   1.00
O365   O     0.16667   0.87293   0.31427   0.00000  Uiso   1.00
O366   O     0.16666   0.79374   0.18573   0.00000  Uiso   1.00
H367   H     0.11975   0.71021   0.20149   0.00000  Uiso   1.00
H368   H     0.21361   0.95646   0.29847   0.00000  Uiso   1.00
H369   H     0.21358   0.71021   0.29851   0.00000  Uiso   1.00
H370   H     0.11972   0.95646   0.20153   0.00000  Uiso   1.00
H371   H     0.14114   0.90312   0.02979   0.00000  Uiso   1.00
H372   H     0.14120   0.76350   0.47002   0.00000  Uiso   1.00
H373   H     0.19219   0.90312   0.47021   0.00000  Uiso   1.00
H374   H     0.19213   0.76350   0.02998   0.00000  Uiso   1.00
F375   F     0.13799   0.91129   0.11436   0.00000  Uiso   1.00
F376   F     0.13814   0.75532   0.38543   0.00000  Uiso   1.00
F377   F     0.19534   0.91129   0.38565   0.00000  Uiso   1.00
F378   F     0.19519   0.75532   0.11457   0.00000  Uiso   1.00
C379   C     0.42068   0.83333   0.24996   0.00000  Uiso   1.00
C380   C     0.57932   0.83333   0.25004   0.00000  Uiso   1.00
C381   C     0.49997   0.83333   0.16491   0.00000  Uiso   1.00
C382   C     0.50003   0.83333   0.33509   0.00000  Uiso   1.00
C383   C     0.47395   0.69148   0.22306   0.00000  Uiso   1.00
C384   C     0.52606   0.97518   0.27693   0.00000  Uiso   1.00
C385   C     0.52605   0.69148   0.27694   0.00000  Uiso   1.00
C386   C     0.47394   0.97518   0.22307   0.00000  Uiso   1.00
C387   C     0.35461   0.79074   0.24998   0.00000  Uiso   1.00
C388   C     0.64538   0.87593   0.25003   0.00000  Uiso   1.00
C389   C     0.64538   0.79074   0.25002   0.00000  Uiso   1.00
C390   C     0.35461   0.87593   0.24997   0.00000  Uiso   1.00
C391   C     0.48597   0.87269   0.04728   0.00000  Uiso   1.00
C392   C     0.48604   0.79394   0.45261   0.00000  Uiso   1.00
C393   C     0.51403   0.87269   0.45272   0.00000  Uiso   1.00
C394   C     0.51396   0.79394   0.04739   0.00000  Uiso   1.00
C395   C     0.48593   0.87285   0.09313   0.00000  Uiso   1.00
C396   C     0.48604   0.79378   0.40676   0.00000  Uiso   1.00
C397   C     0.51407   0.87285   0.40687   0.00000  Uiso   1.00
C398   C     0.51396   0.79378   0.09324   0.00000  Uiso   1.00
C399   C     0.49995   0.83332   0.11656   0.00000  Uiso   1.00
C400   C     0.50005   0.83332   0.38344   0.00000  Uiso   1.00
C401   C     0.49998   0.83331   0.02418   0.00000  Uiso   1.00
C402   C     0.50002   0.83331   0.47582   0.00000  Uiso   1.00
C403   C     0.62393   0.83333   0.25004   0.00000  Uiso   1.00
C404   C     0.37607   0.83333   0.24996   0.00000  Uiso   1.00
Cu405  Cu    0.50000   0.88022   0.25000   0.00000  Uiso   1.00
Cu406  Cu    0.50000   0.78645   0.25000   0.00000  Uiso   1.00
H407   H     0.37062   0.75743   0.24995   0.00000  Uiso   1.00
H408   H     0.62938   0.90923   0.25005   0.00000  Uiso   1.00
H409   H     0.62938   0.75743   0.25005   0.00000  Uiso   1.00
H410   H     0.37062   0.90923   0.24995   0.00000  Uiso   1.00
N411   N     0.50000   0.95069   0.25000   0.00000  Uiso   1.00
N412   N     0.50000   0.71598   0.25000   0.00000  Uiso   1.00
O413   O     0.43988   0.87291   0.25000   0.00000  Uiso   1.00
O414   O     0.56012   0.79375   0.25001   0.00000  Uiso   1.00
O415   O     0.56012   0.87291   0.25001   0.00000  Uiso   1.00
O416   O     0.43988   0.79375   0.25000   0.00000  Uiso   1.00
O417   O     0.50000   0.87293   0.18573   0.00000  Uiso   1.00
O418   O     0.50000   0.79374   0.31427   0.00000  Uiso   1.00
O419   O     0.50000   0.87293   0.31427   0.00000  Uiso   1.00
O420   O     0.50000   0.79374   0.18573   0.00000  Uiso   1.00
H421   H     0.45309   0.71021   0.20149   0.00000  Uiso   1.00
H422   H     0.54695   0.95646   0.29847   0.00000  Uiso   1.00
H423   H     0.54691   0.71021   0.29851   0.00000  Uiso   1.00
H424   H     0.45305   0.95646   0.20153   0.00000  Uiso   1.00
H425   H     0.47447   0.90312   0.02979   0.00000  Uiso   1.00
H426   H     0.47453   0.76350   0.47002   0.00000  Uiso   1.00
H427   H     0.52553   0.90312   0.47021   0.00000  Uiso   1.00
H428   H     0.52547   0.76350   0.02998   0.00000  Uiso   1.00
F429   F     0.47132   0.91129   0.11436   0.00000  Uiso   1.00
F430   F     0.47148   0.75532   0.38543   0.00000  Uiso   1.00
F431   F     0.52868   0.91129   0.38565   0.00000  Uiso   1.00
F432   F     0.52852   0.75532   0.11457   0.00000  Uiso   1.00
C433   C     0.75401   0.83333   0.24996   0.00000  Uiso   1.00
C434   C     0.91266   0.83333   0.25004   0.00000  Uiso   1.00
C435   C     0.83330   0.83333   0.16491   0.00000  Uiso   1.00
C436   C     0.83337   0.83333   0.33509   0.00000  Uiso   1.00
C437   C     0.80728   0.69148   0.22306   0.00000  Uiso   1.00
C438   C     0.85940   0.97518   0.27693   0.00000  Uiso   1.00
C439   C     0.85939   0.69148   0.27694   0.00000  Uiso   1.00
C440   C     0.80727   0.97518   0.22307   0.00000  Uiso   1.00
C441   C     0.68795   0.79074   0.24998   0.00000  Uiso   1.00
C442   C     0.97872   0.87593   0.25003   0.00000  Uiso   1.00
C443   C     0.97872   0.79074   0.25002   0.00000  Uiso   1.00
C444   C     0.68795   0.87593   0.24997   0.00000  Uiso   1.00
C445   C     0.81930   0.87269   0.04728   0.00000  Uiso   1.00
C446   C     0.81937   0.79394   0.45261   0.00000  Uiso   1.00
C447   C     0.84737   0.87269   0.45272   0.00000  Uiso   1.00
C448   C     0.84730   0.79394   0.04739   0.00000  Uiso   1.00
C449   C     0.81926   0.87285   0.09313   0.00000  Uiso   1.00
C450   C     0.81937   0.79378   0.40676   0.00000  Uiso   1.00
C451   C     0.84741   0.87285   0.40687   0.00000  Uiso   1.00
C452   C     0.84729   0.79378   0.09324   0.00000  Uiso   1.00
C453   C     0.83328   0.83332   0.11656   0.00000  Uiso   1.00
C454   C     0.83338   0.83332   0.38344   0.00000  Uiso   1.00
C455   C     0.83332   0.83331   0.02418   0.00000  Uiso   1.00
C456   C     0.83335   0.83331   0.47582   0.00000  Uiso   1.00
C457   C     0.95727   0.83333   0.25004   0.00000  Uiso   1.00
C458   C     0.70940   0.83333   0.24996   0.00000  Uiso   1.00
Cu459  Cu    0.83333   0.88022   0.25000   0.00000  Uiso   1.00
Cu460  Cu    0.83333   0.78645   0.25000   0.00000  Uiso   1.00
H461   H     0.70396   0.75743   0.24995   0.00000  Uiso   1.00
H462   H     0.96271   0.90923   0.25005   0.00000  Uiso   1.00
H463   H     0.96271   0.75743   0.25005   0.00000  Uiso   1.00
H464   H     0.70396   0.90923   0.24995   0.00000  Uiso   1.00
N465   N     0.83333   0.95069   0.25000   0.00000  Uiso   1.00
N466   N     0.83333   0.71598   0.25000   0.00000  Uiso   1.00
O467   O     0.77321   0.87291   0.25000   0.00000  Uiso   1.00
O468   O     0.89345   0.79375   0.25001   0.00000  Uiso   1.00
O469   O     0.89345   0.87291   0.25001   0.00000  Uiso   1.00
O470   O     0.77321   0.79375   0.25000   0.00000  Uiso   1.00
O471   O     0.83333   0.87293   0.18573   0.00000  Uiso   1.00
O472   O     0.83334   0.79374   0.31427   0.00000  Uiso   1.00
O473   O     0.83334   0.87293   0.31427   0.00000  Uiso   1.00
O474   O     0.83333   0.79374   0.18573   0.00000  Uiso   1.00
H475   H     0.78642   0.71021   0.20149   0.00000  Uiso   1.00
H476   H     0.88028   0.95646   0.29847   0.00000  Uiso   1.00
H477   H     0.88025   0.71021   0.29851   0.00000  Uiso   1.00
H478   H     0.78639   0.95646   0.20153   0.00000  Uiso   1.00
H479   H     0.80781   0.90312   0.02979   0.00000  Uiso   1.00
H480   H     0.80786   0.76350   0.47002   0.00000  Uiso   1.00
H481   H     0.85886   0.90312   0.47021   0.00000  Uiso   1.00
H482   H     0.85880   0.76350   0.02998   0.00000  Uiso   1.00
F483   F     0.80466   0.91129   0.11436   0.00000  Uiso   1.00
F484   F     0.80481   0.75532   0.38543   0.00000  Uiso   1.00
F485   F     0.86201   0.91129   0.38565   0.00000  Uiso   1.00
F486   F     0.86186   0.75532   0.11457   0.00000  Uiso   1.00
C487   C     0.08734   0.16667   0.74996   0.00000  Uiso   1.00
C488   C     0.24599   0.16667   0.75004   0.00000  Uiso   1.00
C489   C     0.16663   0.16667   0.66491   0.00000  Uiso   1.00
C490   C     0.16670   0.16667   0.83509   0.00000  Uiso   1.00
C491   C     0.14061   0.02482   0.72306   0.00000  Uiso   1.00
C492   C     0.19273   0.30852   0.77693   0.00000  Uiso   1.00
C493   C     0.19272   0.02482   0.77694   0.00000  Uiso   1.00
C494   C     0.14060   0.30852   0.72307   0.00000  Uiso   1.00
C495   C     0.02128   0.12407   0.74998   0.00000  Uiso   1.00
C496   C     0.31205   0.20926   0.75003   0.00000  Uiso   1.00
C497   C     0.31205   0.12407   0.75002   0.00000  Uiso   1.00
C498   C     0.02128   0.20926   0.74997   0.00000  Uiso   1.00
C499   C     0.15263   0.20602   0.54728   0.00000  Uiso   1.00
C500   C     0.15270   0.12727   0.95261   0.00000  Uiso   1.00
C501   C     0.18070   0.20602   0.95272   0.00000  Uiso   1.00
C502   C     0.18063   0.12727   0.54739   0.00000  Uiso   1.00
C503   C     0.15259   0.20618   0.59313   0.00000  Uiso   1.00
C504   C     0.15271   0.12711   0.90676   0.00000  Uiso   1.00
C505   C     0.18074   0.20618   0.90687   0.00000  Uiso   1.00
C506   C     0.18063   0.12711   0.59324   0.00000  Uiso   1.00
C507   C     0.16662   0.16665   0.61656   0.00000  Uiso   1.00
C508   C     0.16672   0.16665   0.88344   0.00000  Uiso   1.00
C509   C     0.16665   0.16665   0.52418   0.00000  Uiso   1.00
C510   C     0.16668   0.16665   0.97582   0.00000  Uiso   1.00
C511   C     0.29060   0.16667   0.75004   0.00000  Uiso   1.00
C512   C     0.04273   0.16667   0.74996   0.00000  Uiso   1.00
Cu513  Cu    0.16667   0.21355   0.75000   0.00000  Uiso   1.00
Cu514  Cu    0.16667   0.11978   0.75000   0.00000  Uiso   1.00
H515   H     0.03729   0.09077   0.74995   0.00000  Uiso   1.00
H516   H     0.29604   0.24257   0.75005   0.00000  Uiso   1.00
H517   H     0.29604   0.09077   0.75005   0.00000  Uiso   1.00
H518   H     0.03729   0.24257   0.74995   0.00000  Uiso   1.00
N519   N     0.16667   0.28402   0.75000   0.00000  Uiso   1.00
N520   N     0.16667   0.04931   0.75000   0.00000  Uiso   1.00
O521   O     0.10655   0.20625   0.75000   0.00000  Uiso   1.00
O522   O     0.22679   0.12709   0.75001   0.00000  Uiso   1.00
O523   O     0.22679   0.20625   0.75001   0.00000  Uiso   1.00
O524   O     0.10655   0.12709   0.75000   0.00000  Uiso   1.00
O525   O     0.16666   0.20626   0.68573   0.00000  Uiso   1.00
O526   O     0.16667   0.12707   0.81427   0.00000  Uiso   1.00
O527   O     0.16667   0.20626   0.81427   0.00000  Uiso   1.00
O528   O     0.16666   0.12707   0.68573   0.00000  Uiso   1.00
H529   H     0.11975   0.04355   0.70149   0.00000  Uiso   1.00
H530   H     0.21361   0.28979   0.79847   0.00000  Uiso   1.00
H531   H     0.21358   0.04355   0.79851   0.00000  Uiso   1.00
H532   H     0.11972   0.28979   0.70153   0.00000  Uiso   1.00
H533   H     0.14114   0.23646   0.52979   0.00000  Uiso   1.00
H534   H     0.14120   0.09683   0.97002   0.00000  Uiso   1.00
H535   H     0.19219   0.23646   0.97021   0.00000  Uiso   1.00
H536   H     0.19213   0.09683   0.52998   0.00000  Uiso   1.00
F537   F     0.13799   0.24463   0.61436   0.00000  Uiso   1.00
F538   F     0.13814   0.08866   0.88543   0.00000  Uiso   1.00
F539   F     0.19534   0.24463   0.88565   0.00000  Uiso   1.00
F540   F     0.19519   0.08866   0.61457   0.00000  Uiso   1.00
C541   C     0.42068   0.16667   0.74996   0.00000  Uiso   1.00
C542   C     0.57932   0.16667   0.75004   0.00000  Uiso   1.00
C543   C     0.49997   0.16667   0.66491   0.00000  Uiso   1.00
C544   C     0.50003   0.16667   0.83509   0.00000  Uiso   1.00
C545   C     0.47395   0.02482   0.72306   0.00000  Uiso   1.00
C546   C     0.52606   0.30852   0.77693   0.00000  Uiso   1.00
C547   C     0.52605   0.02482   0.77694   0.00000  Uiso   1.00
C548   C     0.47394   0.30852   0.72307   0.00000  Uiso   1.00
C549   C     0.35461   0.12407   0.74998   0.00000  Uiso   1.00
C550   C     0.64538   0.20926   0.75003   0.00000  Uiso   1.00
C551   C     0.64538   0.12407   0.75002   0.00000  Uiso   1.00
C552   C     0.35461   0.20926   0.74997   0.00000  Uiso   1.00
C553   C     0.48597   0.20602   0.54728   0.00000  Uiso   1.00
C554   C     0.48604   0.12727   0.95261   0.00000  Uiso   1.00
C555   C     0.51403   0.20602   0.95272   0.00000  Uiso   1.00
C556   C     0.51396   0.12727   0.54739   0.00000  Uiso   1.00
C557   C     0.48593   0.20618   0.59313   0.00000  Uiso   1.00
C558   C     0.48604   0.12711   0.90676   0.00000  Uiso   1.00
C559   C     0.51407   0.20618   0.90687   0.00000  Uiso   1.00
C560   C     0.51396   0.12711   0.59324   0.00000  Uiso   1.00
C561   C     0.49995   0.16665   0.61656   0.00000  Uiso   1.00
C562   C     0.50005   0.16665   0.88344   0.00000  Uiso   1.00
C563   C     0.49998   0.16665   0.52418   0.00000  Uiso   1.00
C564   C     0.50002   0.16665   0.97582   0.00000  Uiso   1.00
C565   C     0.62393   0.16667   0.75004   0.00000  Uiso   1.00
C566   C     0.37607   0.16667   0.74996   0.00000  Uiso   1.00
Cu567  Cu    0.50000   0.21355   0.75000   0.00000  Uiso   1.00
Cu568  Cu    0.50000   0.11978   0.75000   0.00000  Uiso   1.00
H569   H     0.37062   0.09077   0.74995   0.00000  Uiso   1.00
H570   H     0.62938   0.24257   0.75005   0.00000  Uiso   1.00
H571   H     0.62938   0.09077   0.75005   0.00000  Uiso   1.00
H572   H     0.37062   0.24257   0.74995   0.00000  Uiso   1.00
N573   N     0.50000   0.28402   0.75000   0.00000  Uiso   1.00
N574   N     0.50000   0.04931   0.75000   0.00000  Uiso   1.00
O575   O     0.43988   0.20625   0.75000   0.00000  Uiso   1.00
O576   O     0.56012   0.12709   0.75001   0.00000  Uiso   1.00
O577   O     0.56012   0.20625   0.75001   0.00000  Uiso   1.00
O578   O     0.43988   0.12709   0.75000   0.00000  Uiso   1.00
O579   O     0.50000   0.20626   0.68573   0.00000  Uiso   1.00
O580   O     0.50000   0.12707   0.81427   0.00000  Uiso   1.00
O581   O     0.50000   0.20626   0.81427   0.00000  Uiso   1.00
O582   O     0.50000   0.12707   0.68573   0.00000  Uiso   1.00
H583   H     0.45309   0.04355   0.70149   0.00000  Uiso   1.00
H584   H     0.54695   0.28979   0.79847   0.00000  Uiso   1.00
H585   H     0.54691   0.04355   0.79851   0.00000  Uiso   1.00
H586   H     0.45305   0.28979   0.70153   0.00000  Uiso   1.00
H587   H     0.47447   0.23646   0.52979   0.00000  Uiso   1.00
H588   H     0.47453   0.09683   0.97002   0.00000  Uiso   1.00
H589   H     0.52553   0.23646   0.97021   0.00000  Uiso   1.00
H590   H     0.52547   0.09683   0.52998   0.00000  Uiso   1.00
F591   F     0.47132   0.24463   0.61436   0.00000  Uiso   1.00
F592   F     0.47148   0.08866   0.88543   0.00000  Uiso   1.00
F593   F     0.52868   0.24463   0.88565   0.00000  Uiso   1.00
F594   F     0.52852   0.08866   0.61457   0.00000  Uiso   1.00
C595   C     0.75401   0.16667   0.74996   0.00000  Uiso   1.00
C596   C     0.91266   0.16667   0.75004   0.00000  Uiso   1.00
C597   C     0.83330   0.16667   0.66491   0.00000  Uiso   1.00
C598   C     0.83337   0.16667   0.83509   0.00000  Uiso   1.00
C599   C     0.80728   0.02482   0.72306   0.00000  Uiso   1.00
C600   C     0.85940   0.30852   0.77693   0.00000  Uiso   1.00
C601   C     0.85939   0.02482   0.77694   0.00000  Uiso   1.00
C602   C     0.80727   0.30852   0.72307   0.00000  Uiso   1.00
C603   C     0.68795   0.12407   0.74998   0.00000  Uiso   1.00
C604   C     0.97872   0.20926   0.75003   0.00000  Uiso   1.00
C605   C     0.97872   0.12407   0.75002   0.00000  Uiso   1.00
C606   C     0.68795   0.20926   0.74997   0.00000  Uiso   1.00
C607   C     0.81930   0.20602   0.54728   0.00000  Uiso   1.00
C608   C     0.81937   0.12727   0.95261   0.00000  Uiso   1.00
C609   C     0.84737   0.20602   0.95272   0.00000  Uiso   1.00
C610   C     0.84730   0.12727   0.54739   0.00000  Uiso   1.00
C611   C     0.81926   0.20618   0.59313   0.00000  Uiso   1.00
C612   C     0.81937   0.12711   0.90676   0.00000  Uiso   1.00
C613   C     0.84741   0.20618   0.90687   0.00000  Uiso   1.00
C614   C     0.84729   0.12711   0.59324   0.00000  Uiso   1.00
C615   C     0.83328   0.16665   0.61656   0.00000  Uiso   1.00
C616   C     0.83338   0.16665   0.88344   0.00000  Uiso   1.00
C617   C     0.83332   0.16665   0.52418   0.00000  Uiso   1.00
C618   C     0.83335   0.16665   0.97582   0.00000  Uiso   1.00
C619   C     0.95727   0.16667   0.75004   0.00000  Uiso   1.00
C620   C     0.70940   0.16667   0.74996   0.00000  Uiso   1.00
Cu621  Cu    0.83333   0.21355   0.75000   0.00000  Uiso   1.00
Cu622  Cu    0.83333   0.11978   0.75000   0.00000  Uiso   1.00
H623   H     0.70396   0.09077   0.74995   0.00000  Uiso   1.00
H624   H     0.96271   0.24257   0.75005   0.00000  Uiso   1.00
H625   H     0.96271   0.09077   0.75005   0.00000  Uiso   1.00
H626   H     0.70396   0.24257   0.74995   0.00000  Uiso   1.00
N627   N     0.83333   0.28402   0.75000   0.00000  Uiso   1.00
N628   N     0.83333   0.04931   0.75000   0.00000  Uiso   1.00
O629   O     0.77321   0.20625   0.75000   0.00000  Uiso   1.00
O630   O     0.89345   0.12709   0.75001   0.00000  Uiso   1.00
O631   O     0.89345   0.20625   0.75001   0.00000  Uiso   1.00
O632   O     0.77321   0.12709   0.75000   0.00000  Uiso   1.00
O633   O     0.83333   0.20626   0.68573   0.00000  Uiso   1.00
O634   O     0.83334   0.12707   0.81427   0.00000  Uiso   1.00
O635   O     0.83334   0.20626   0.81427   0.00000  Uiso   1.00
O636   O     0.83333   0.12707   0.68573   0.00000  Uiso   1.00
H637   H     0.78642   0.04355   0.70149   0.00000  Uiso   1.00
H638   H     0.88028   0.28979   0.79847   0.00000  Uiso   1.00
H639   H     0.88025   0.04355   0.79851   0.00000  Uiso   1.00
H640   H     0.78639   0.28979   0.70153   0.00000  Uiso   1.00
H641   H     0.80781   0.23646   0.52979   0.00000  Uiso   1.00
H642   H     0.80786   0.09683   0.97002   0.00000  Uiso   1.00
H643   H     0.85886   0.23646   0.97021   0.00000  Uiso   1.00
H644   H     0.85880   0.09683   0.52998   0.00000  Uiso   1.00
F645   F     0.80466   0.24463   0.61436   0.00000  Uiso   1.00
F646   F     0.80481   0.08866   0.88543   0.00000  Uiso   1.00
F647   F     0.86201   0.24463   0.88565   0.00000  Uiso   1.00
F648   F     0.86186   0.08866   0.61457   0.00000  Uiso   1.00
C649   C     0.08734   0.50000   0.74996   0.00000  Uiso   1.00
C650   C     0.24599   0.50000   0.75004   0.00000  Uiso   1.00
C651   C     0.16663   0.50000   0.66491   0.00000  Uiso   1.00
C652   C     0.16670   0.50000   0.83509   0.00000  Uiso   1.00
C653   C     0.14061   0.35815   0.72306   0.00000  Uiso   1.00
C654   C     0.19273   0.64185   0.77693   0.00000  Uiso   1.00
C655   C     0.19272   0.35815   0.77694   0.00000  Uiso   1.00
C656   C     0.14060   0.64185   0.72307   0.00000  Uiso   1.00
C657   C     0.02128   0.45740   0.74998   0.00000  Uiso   1.00
C658   C     0.31205   0.54260   0.75003   0.00000  Uiso   1.00
C659   C     0.31205   0.45740   0.75002   0.00000  Uiso   1.00
C660   C     0.02128   0.54260   0.74997   0.00000  Uiso   1.00
C661   C     0.15263   0.53935   0.54728   0.00000  Uiso   1.00
C662   C     0.15270   0.46061   0.95261   0.00000  Uiso   1.00
C663   C     0.18070   0.53935   0.95272   0.00000  Uiso   1.00
C664   C     0.18063   0.46061   0.54739   0.00000  Uiso   1.00
C665   C     0.15259   0.53952   0.59313   0.00000  Uiso   1.00
C666   C     0.15271   0.46045   0.90676   0.00000  Uiso   1.00
C667   C     0.18074   0.53952   0.90687   0.00000  Uiso   1.00
C668   C     0.18063   0.46045   0.59324   0.00000  Uiso   1.00
C669   C     0.16662   0.49999   0.61656   0.00000  Uiso   1.00
C670   C     0.16672   0.49999   0.88344   0.00000  Uiso   1.00
C671   C     0.16665   0.49998   0.52418   0.00000  Uiso   1.00
C672   C     0.16668   0.49998   0.97582   0.00000  Uiso   1.00
C673   C     0.29060   0.50000   0.75004   0.00000  Uiso   1.00
C674   C     0.04273   0.50000   0.74996   0.00000  Uiso   1.00
Cu675  Cu    0.16667   0.54689   0.75000   0.00000  Uiso   1.00
Cu676  Cu    0.16667   0.45311   0.75000   0.00000  Uiso   1.00
H677   H     0.03729   0.42410   0.74995   0.00000  Uiso   1.00
H678   H     0.29604   0.57590   0.75005   0.00000  Uiso   1.00
H679   H     0.29604   0.42410   0.75005   0.00000  Uiso   1.00
H680   H     0.03729   0.57590   0.74995   0.00000  Uiso   1.00
N681   N     0.16667   0.61736   0.75000   0.00000  Uiso   1.00
N682   N     0.16667   0.38264   0.75000   0.00000  Uiso   1.00
O683   O     0.10655   0.53958   0.75000   0.00000  Uiso   1.00
O684   O     0.22679   0.46042   0.75001   0.00000  Uiso   1.00
O685   O     0.22679   0.53958   0.75001   0.00000  Uiso   1.00
O686   O     0.10655   0.46042   0.75000   0.00000  Uiso   1.00
O687   O     0.16666   0.53959   0.68573   0.00000  Uiso   1.00
O688   O     0.16667   0.46041   0.81427   0.00000  Uiso   1.00
O689   O     0.16667   0.53959   0.81427   0.00000  Uiso   1.00
O690   O     0.16666   0.46041   0.68573   0.00000  Uiso   1.00
H691   H     0.11975   0.37688   0.70149   0.00000  Uiso   1.00
H692   H     0.21361   0.62312   0.79847   0.00000  Uiso   1.00
H693   H     0.21358   0.37688   0.79851   0.00000  Uiso   1.00
H694   H     0.11972   0.62312   0.70153   0.00000  Uiso   1.00
H695   H     0.14114   0.56979   0.52979   0.00000  Uiso   1.00
H696   H     0.14120   0.43016   0.97002   0.00000  Uiso   1.00
H697   H     0.19219   0.56979   0.97021   0.00000  Uiso   1.00
H698   H     0.19213   0.43016   0.52998   0.00000  Uiso   1.00
F699   F     0.13799   0.57796   0.61436   0.00000  Uiso   1.00
F700   F     0.13814   0.42199   0.88543   0.00000  Uiso   1.00
F701   F     0.19534   0.57796   0.88565   0.00000  Uiso   1.00
F702   F     0.19519   0.42199   0.61457   0.00000  Uiso   1.00
C703   C     0.42068   0.50000   0.74996   0.00000  Uiso   1.00
C704   C     0.57932   0.50000   0.75004   0.00000  Uiso   1.00
C705   C     0.49997   0.50000   0.66491   0.00000  Uiso   1.00
C706   C     0.50003   0.50000   0.83509   0.00000  Uiso   1.00
C707   C     0.47395   0.35815   0.72306   0.00000  Uiso   1.00
C708   C     0.52606   0.64185   0.77693   0.00000  Uiso   1.00
C709   C     0.52605   0.35815   0.77694   0.00000  Uiso   1.00
C710   C     0.47394   0.64185   0.72307   0.00000  Uiso   1.00
C711   C     0.35461   0.45740   0.74998   0.00000  Uiso   1.00
C712   C     0.64538   0.54260   0.75003   0.00000  Uiso   1.00
C713   C     0.64538   0.45740   0.75002   0.00000  Uiso   1.00
C714   C     0.35461   0.54260   0.74997   0.00000  Uiso   1.00
C715   C     0.48597   0.53935   0.54728   0.00000  Uiso   1.00
C716   C     0.48604   0.46061   0.95261   0.00000  Uiso   1.00
C717   C     0.51403   0.53935   0.95272   0.00000  Uiso   1.00
C718   C     0.51396   0.46061   0.54739   0.00000  Uiso   1.00
C719   C     0.48593   0.53952   0.59313   0.00000  Uiso   1.00
C720   C     0.48604   0.46045   0.90676   0.00000  Uiso   1.00
C721   C     0.51407   0.53952   0.90687   0.00000  Uiso   1.00
C722   C     0.51396   0.46045   0.59324   0.00000  Uiso   1.00
C723   C     0.49995   0.49999   0.61656   0.00000  Uiso   1.00
C724   C     0.50005   0.49999   0.88344   0.00000  Uiso   1.00
C725   C     0.49998   0.49998   0.52418   0.00000  Uiso   1.00
C726   C     0.50002   0.49998   0.97582   0.00000  Uiso   1.00
C727   C     0.62393   0.50000   0.75004   0.00000  Uiso   1.00
C728   C     0.37607   0.50000   0.74996   0.00000  Uiso   1.00
Cu729  Cu    0.50000   0.54689   0.75000   0.00000  Uiso   1.00
Cu730  Cu    0.50000   0.45311   0.75000   0.00000  Uiso   1.00
H731   H     0.37062   0.42410   0.74995   0.00000  Uiso   1.00
H732   H     0.62938   0.57590   0.75005   0.00000  Uiso   1.00
H733   H     0.62938   0.42410   0.75005   0.00000  Uiso   1.00
H734   H     0.37062   0.57590   0.74995   0.00000  Uiso   1.00
N735   N     0.50000   0.61736   0.75000   0.00000  Uiso   1.00
N736   N     0.50000   0.38264   0.75000   0.00000  Uiso   1.00
O737   O     0.43988   0.53958   0.75000   0.00000  Uiso   1.00
O738   O     0.56012   0.46042   0.75001   0.00000  Uiso   1.00
O739   O     0.56012   0.53958   0.75001   0.00000  Uiso   1.00
O740   O     0.43988   0.46042   0.75000   0.00000  Uiso   1.00
O741   O     0.50000   0.53959   0.68573   0.00000  Uiso   1.00
O742   O     0.50000   0.46041   0.81427   0.00000  Uiso   1.00
O743   O     0.50000   0.53959   0.81427   0.00000  Uiso   1.00
O744   O     0.50000   0.46041   0.68573   0.00000  Uiso   1.00
H745   H     0.45309   0.37688   0.70149   0.00000  Uiso   1.00
H746   H     0.54695   0.62312   0.79847   0.00000  Uiso   1.00
H747   H     0.54691   0.37688   0.79851   0.00000  Uiso   1.00
H748   H     0.45305   0.62312   0.70153   0.00000  Uiso   1.00
H749   H     0.47447   0.56979   0.52979   0.00000  Uiso   1.00
H750   H     0.47453   0.43016   0.97002   0.00000  Uiso   1.00
H751   H     0.52553   0.56979   0.97021   0.00000  Uiso   1.00
H752   H     0.52547   0.43016   0.52998   0.00000  Uiso   1.00
F753   F     0.47132   0.57796   0.61436   0.00000  Uiso   1.00
F754   F     0.47148   0.42199   0.88543   0.00000  Uiso   1.00
F755   F     0.52868   0.57796   0.88565   0.00000  Uiso   1.00
F756   F     0.52852   0.42199   0.61457   0.00000  Uiso   1.00
C757   C     0.75401   0.50000   0.74996   0.00000  Uiso   1.00
C758   C     0.91266   0.50000   0.75004   0.00000  Uiso   1.00
C759   C     0.83330   0.50000   0.66491   0.00000  Uiso   1.00
C760   C     0.83337   0.50000   0.83509   0.00000  Uiso   1.00
C761   C     0.80728   0.35815   0.72306   0.00000  Uiso   1.00
C762   C     0.85940   0.64185   0.77693   0.00000  Uiso   1.00
C763   C     0.85939   0.35815   0.77694   0.00000  Uiso   1.00
C764   C     0.80727   0.64185   0.72307   0.00000  Uiso   1.00
C765   C     0.68795   0.45740   0.74998   0.00000  Uiso   1.00
C766   C     0.97872   0.54260   0.75003   0.00000  Uiso   1.00
C767   C     0.97872   0.45740   0.75002   0.00000  Uiso   1.00
C768   C     0.68795   0.54260   0.74997   0.00000  Uiso   1.00
C769   C     0.81930   0.53935   0.54728   0.00000  Uiso   1.00
C770   C     0.81937   0.46061   0.95261   0.00000  Uiso   1.00
C771   C     0.84737   0.53935   0.95272   0.00000  Uiso   1.00
C772   C     0.84730   0.46061   0.54739   0.00000  Uiso   1.00
C773   C     0.81926   0.53952   0.59313   0.00000  Uiso   1.00
C774   C     0.81937   0.46045   0.90676   0.00000  Uiso   1.00
C775   C     0.84741   0.53952   0.90687   0.00000  Uiso   1.00
C776   C     0.84729   0.46045   0.59324   0.00000  Uiso   1.00
C777   C     0.83328   0.49999   0.61656   0.00000  Uiso   1.00
C778   C     0.83338   0.49999   0.88344   0.00000  Uiso   1.00
C779   C     0.83332   0.49998   0.52418   0.00000  Uiso   1.00
C780   C     0.83335   0.49998   0.97582   0.00000  Uiso   1.00
C781   C     0.95727   0.50000   0.75004   0.00000  Uiso   1.00
C782   C     0.70940   0.50000   0.74996   0.00000  Uiso   1.00
Cu783  Cu    0.83333   0.54689   0.75000   0.00000  Uiso   1.00
Cu784  Cu    0.83333   0.45311   0.75000   0.00000  Uiso   1.00
H785   H     0.70396   0.42410   0.74995   0.00000  Uiso   1.00
H786   H     0.96271   0.57590   0.75005   0.00000  Uiso   1.00
H787   H     0.96271   0.42410   0.75005   0.00000  Uiso   1.00
H788   H     0.70396   0.57590   0.74995   0.00000  Uiso   1.00
N789   N     0.83333   0.61736   0.75000   0.00000  Uiso   1.00
N790   N     0.83333   0.38264   0.75000   0.00000  Uiso   1.00
O791   O     0.77321   0.53958   0.75000   0.00000  Uiso   1.00
O792   O     0.89345   0.46042   0.75001   0.00000  Uiso   1.00
O793   O     0.89345   0.53958   0.75001   0.00000  Uiso   1.00
O794   O     0.77321   0.46042   0.75000   0.00000  Uiso   1.00
O795   O     0.83333   0.53959   0.68573   0.00000  Uiso   1.00
O796   O     0.83334   0.46041   0.81427   0.00000  Uiso   1.00
O797   O     0.83334   0.53959   0.81427   0.00000  Uiso   1.00
O798   O     0.83333   0.46041   0.68573   0.00000  Uiso   1.00
H799   H     0.78642   0.37688   0.70149   0.00000  Uiso   1.00
H800   H     0.88028   0.62312   0.79847   0.00000  Uiso   1.00
H801   H     0.88025   0.37688   0.79851   0.00000  Uiso   1.00
H802   H     0.78639   0.62312   0.70153   0.00000  Uiso   1.00
H803   H     0.80781   0.56979   0.52979   0.00000  Uiso   1.00
H804   H     0.80786   0.43016   0.97002   0.00000  Uiso   1.00
H805   H     0.85886   0.56979   0.97021   0.00000  Uiso   1.00
H806   H     0.85880   0.43016   0.52998   0.00000  Uiso   1.00
F807   F     0.80466   0.57796   0.61436   0.00000  Uiso   1.00
F808   F     0.80481   0.42199   0.88543   0.00000  Uiso   1.00
F809   F     0.86201   0.57796   0.88565   0.00000  Uiso   1.00
F810   F     0.86186   0.42199   0.61457   0.00000  Uiso   1.00
C811   C     0.08734   0.83333   0.74996   0.00000  Uiso   1.00
C812   C     0.24599   0.83333   0.75004   0.00000  Uiso   1.00
C813   C     0.16663   0.83333   0.66491   0.00000  Uiso   1.00
C814   C     0.16670   0.83333   0.83509   0.00000  Uiso   1.00
C815   C     0.14061   0.69148   0.72306   0.00000  Uiso   1.00
C816   C     0.19273   0.97518   0.77693   0.00000  Uiso   1.00
C817   C     0.19272   0.69148   0.77694   0.00000  Uiso   1.00
C818   C     0.14060   0.97518   0.72307   0.00000  Uiso   1.00
C819   C     0.02128   0.79074   0.74998   0.00000  Uiso   1.00
C820   C     0.31205   0.87593   0.75003   0.00000  Uiso   1.00
C821   C     0.31205   0.79074   0.75002   0.00000  Uiso   1.00
C822   C     0.02128   0.87593   0.74997   0.00000  Uiso   1.00
C823   C     0.15263   0.87269   0.54728   0.00000  Uiso   1.00
C824   C     0.15270   0.79394   0.95261   0.00000  Uiso   1.00
C825   C     0.18070   0.87269   0.95272   0.00000  Uiso   1.00
C826   C     0.18063   0.79394   0.54739   0.00000  Uiso   1.00
C827   C     0.15259   0.87285   0.59313   0.00000  Uiso   1.00
C828   C     0.15271   0.79378   0.90676   0.00000  Uiso   1.00
C829   C     0.18074   0.87285   0.90687   0.00000  Uiso   1.00
C830   C     0.18063   0.79378   0.59324   0.00000  Uiso   1.00
C831   C     0.16662   0.83332   0.61656   0.00000  Uiso   1.00
C832   C     0.16672   0.83332   0.88344   0.00000  Uiso   1.00
C833   C     0.16665   0.83331   0.52418   0.00000  Uiso   1.00
C834   C     0.16668   0.83331   0.97582   0.00000  Uiso   1.00
C835   C     0.29060   0.83333   0.75004   0.00000  Uiso   1.00
C836   C     0.04273   0.83333   0.74996   0.00000  Uiso   1.00
Cu837  Cu    0.16667   0.88022   0.75000   0.00000  Uiso   1.00
Cu838  Cu    0.16667   0.78645   0.75000   0.00000  Uiso   1.00
H839   H     0.03729   0.75743   0.74995   0.00000  Uiso   1.00
H840   H     0.29604   0.90923   0.75005   0.00000  Uiso   1.00
H841   H     0.29604   0.75743   0.75005   0.00000  Uiso   1.00
H842   H     0.03729   0.90923   0.74995   0.00000  Uiso   1.00
N843   N     0.16667   0.95069   0.75000   0.00000  Uiso   1.00
N844   N     0.16667   0.71598   0.75000   0.00000  Uiso   1.00
O845   O     0.10655   0.87291   0.75000   0.00000  Uiso   1.00
O846   O     0.22679   0.79375   0.75001   0.00000  Uiso   1.00
O847   O     0.22679   0.87291   0.75001   0.00000  Uiso   1.00
O848   O     0.10655   0.79375   0.75000   0.00000  Uiso   1.00
O849   O     0.16666   0.87293   0.68573   0.00000  Uiso   1.00
O850   O     0.16667   0.79374   0.81427   0.00000  Uiso   1.00
O851   O     0.16667   0.87293   0.81427   0.00000  Uiso   1.00
O852   O     0.16666   0.79374   0.68573   0.00000  Uiso   1.00
H853   H     0.11975   0.71021   0.70149   0.00000  Uiso   1.00
H854   H     0.21361   0.95646   0.79847   0.00000  Uiso   1.00
H855   H     0.21358   0.71021   0.79851   0.00000  Uiso   1.00
H856   H     0.11972   0.95646   0.70153   0.00000  Uiso   1.00
H857   H     0.14114   0.90312   0.52979   0.00000  Uiso   1.00
H858   H     0.14120   0.76350   0.97002   0.00000  Uiso   1.00
H859   H     0.19219   0.90312   0.97021   0.00000  Uiso   1.00
H860   H     0.19213   0.76350   0.52998   0.00000  Uiso   1.00
F861   F     0.13799   0.91129   0.61436   0.00000  Uiso   1.00
F862   F     0.13814   0.75532   0.88543   0.00000  Uiso   1.00
F863   F     0.19534   0.91129   0.88565   0.00000  Uiso   1.00
F864   F     0.19519   0.75532   0.61457   0.00000  Uiso   1.00
C865   C     0.42068   0.83333   0.74996   0.00000  Uiso   1.00
C866   C     0.57932   0.83333   0.75004   0.00000  Uiso   1.00
C867   C     0.49997   0.83333   0.66491   0.00000  Uiso   1.00
C868   C     0.50003   0.83333   0.83509   0.00000  Uiso   1.00
C869   C     0.47395   0.69148   0.72306   0.00000  Uiso   1.00
C870   C     0.52606   0.97518   0.77693   0.00000  Uiso   1.00
C871   C     0.52605   0.69148   0.77694   0.00000  Uiso   1.00
C872   C     0.47394   0.97518   0.72307   0.00000  Uiso   1.00
C873   C     0.35461   0.79074   0.74998   0.00000  Uiso   1.00
C874   C     0.64538   0.87593   0.75003   0.00000  Uiso   1.00
C875   C     0.64538   0.79074   0.75002   0.00000  Uiso   1.00
C876   C     0.35461   0.87593   0.74997   0.00000  Uiso   1.00
C877   C     0.48597   0.87269   0.54728   0.00000  Uiso   1.00
C878   C     0.48604   0.79394   0.95261   0.00000  Uiso   1.00
C879   C     0.51403   0.87269   0.95272   0.00000  Uiso   1.00
C880   C     0.51396   0.79394   0.54739   0.00000  Uiso   1.00
C881   C     0.48593   0.87285   0.59313   0.00000  Uiso   1.00
C882   C     0.48604   0.79378   0.90676   0.00000  Uiso   1.00
C883   C     0.51407   0.87285   0.90687   0.00000  Uiso   1.00
C884   C     0.51396   0.79378   0.59324   0.00000  Uiso   1.00
C885   C     0.49995   0.83332   0.61656   0.00000  Uiso   1.00
C886   C     0.50005   0.83332   0.88344   0.00000  Uiso   1.00
C887   C     0.49998   0.83331   0.52418   0.00000  Uiso   1.00
C888   C     0.50002   0.83331   0.97582   0.00000  Uiso   1.00
C889   C     0.62393   0.83333   0.75004   0.00000  Uiso   1.00
C890   C     0.37607   0.83333   0.74996   0.00000  Uiso   1.00
Cu891  Cu    0.50000   0.88022   0.75000   0.00000  Uiso   1.00
Cu892  Cu    0.50000   0.78645   0.75000   0.00000  Uiso   1.00
H893   H     0.37062   0.75743   0.74995   0.00000  Uiso   1.00
H894   H     0.62938   0.90923   0.75005   0.00000  Uiso   1.00
H895   H     0.62938   0.75743   0.75005   0.00000  Uiso   1.00
H896   H     0.37062   0.90923   0.74995   0.00000  Uiso   1.00
N897   N     0.50000   0.95069   0.75000   0.00000  Uiso   1.00
N898   N     0.50000   0.71598   0.75000   0.00000  Uiso   1.00
O899   O     0.43988   0.87291   0.75000   0.00000  Uiso   1.00
O900   O     0.56012   0.79375   0.75001   0.00000  Uiso   1.00
O901   O     0.56012   0.87291   0.75001   0.00000  Uiso   1.00
O902   O     0.43988   0.79375   0.75000   0.00000  Uiso   1.00
O903   O     0.50000   0.87293   0.68573   0.00000  Uiso   1.00
O904   O     0.50000   0.79374   0.81427   0.00000  Uiso   1.00
O905   O     0.50000   0.87293   0.81427   0.00000  Uiso   1.00
O906   O     0.50000   0.79374   0.68573   0.00000  Uiso   1.00
H907   H     0.45309   0.71021   0.70149   0.00000  Uiso   1.00
H908   H     0.54695   0.95646   0.79847   0.00000  Uiso   1.00
H909   H     0.54691   0.71021   0.79851   0.00000  Uiso   1.00
H910   H     0.45305   0.95646   0.70153   0.00000  Uiso   1.00
H911   H     0.47447   0.90312   0.52979   0.00000  Uiso   1.00
H912   H     0.47453   0.76350   0.97002   0.00000  Uiso   1.00
H913   H     0.52553   0.90312   0.97021   0.00000  Uiso   1.00
H914   H     0.52547   0.76350   0.52998   0.00000  Uiso   1.00
F915   F     0.47132   0.91129   0.61436   0.00000  Uiso   1.00
F916   F     0.47148   0.75532   0.88543   0.00000  Uiso   1.00
F917   F     0.52868   0.91129   0.88565   0.00000  Uiso   1.00
F918   F     0.52852   0.75532   0.61457   0.00000  Uiso   1.00
C919   C     0.75401   0.83333   0.74996   0.00000  Uiso   1.00
C920   C     0.91266   0.83333   0.75004   0.00000  Uiso   1.00
C921   C     0.83330   0.83333   0.66491   0.00000  Uiso   1.00
C922   C     0.83337   0.83333   0.83509   0.00000  Uiso   1.00
C923   C     0.80728   0.69148   0.72306   0.00000  Uiso   1.00
C924   C     0.85940   0.97518   0.77693   0.00000  Uiso   1.00
C925   C     0.85939   0.69148   0.77694   0.00000  Uiso   1.00
C926   C     0.80727   0.97518   0.72307   0.00000  Uiso   1.00
C927   C     0.68795   0.79074   0.74998   0.00000  Uiso   1.00
C928   C     0.97872   0.87593   0.75003   0.00000  Uiso   1.00
C929   C     0.97872   0.79074   0.75002   0.00000  Uiso   1.00
C930   C     0.68795   0.87593   0.74997   0.00000  Uiso   1.00
C931   C     0.81930   0.87269   0.54728   0.00000  Uiso   1.00
C932   C     0.81937   0.79394   0.95261   0.00000  Uiso   1.00
C933   C     0.84737   0.87269   0.95272   0.00000  Uiso   1.00
C934   C     0.84730   0.79394   0.54739   0.00000  Uiso   1.00
C935   C     0.81926   0.87285   0.59313   0.00000  Uiso   1.00
C936   C     0.81937   0.79378   0.90676   0.00000  Uiso   1.00
C937   C     0.84741   0.87285   0.90687   0.00000  Uiso   1.00
C938   C     0.84729   0.79378   0.59324   0.00000  Uiso   1.00
C939   C     0.83328   0.83332   0.61656   0.00000  Uiso   1.00
C940   C     0.83338   0.83332   0.88344   0.00000  Uiso   1.00
C941   C     0.83332   0.83331   0.52418   0.00000  Uiso   1.00
C942   C     0.83335   0.83331   0.97582   0.00000  Uiso   1.00
C943   C     0.95727   0.83333   0.75004   0.00000  Uiso   1.00
C944   C     0.70940   0.83333   0.74996   0.00000  Uiso   1.00
Cu945  Cu    0.83333   0.88022   0.75000   0.00000  Uiso   1.00
Cu946  Cu    0.83333   0.78645   0.75000   0.00000  Uiso   1.00
H947   H     0.70396   0.75743   0.74995   0.00000  Uiso   1.00
H948   H     0.96271   0.90923   0.75005   0.00000  Uiso   1.00
H949   H     0.96271   0.75743   0.75005   0.00000  Uiso   1.00
H950   H     0.70396   0.90923   0.74995   0.00000  Uiso   1.00
N951   N     0.83333   0.95069   0.75000   0.00000  Uiso   1.00
N952   N     0.83333   0.71598   0.75000   0.00000  Uiso   1.00
O953   O     0.77321   0.87291   0.75000   0.00000  Uiso   1.00
O954   O     0.89345   0.79375   0.75001   0.00000  Uiso   1.00
O955   O     0.89345   0.87291   0.75001   0.00000  Uiso   1.00
O956   O     0.77321   0.79375   0.75000   0.00000  Uiso   1.00
O957   O     0.83333   0.87293   0.68573   0.00000  Uiso   1.00
O958   O     0.83334   0.79374   0.81427   0.00000  Uiso   1.00
O959   O     0.83334   0.87293   0.81427   0.00000  Uiso   1.00
O960   O     0.83333   0.79374   0.68573   0.00000  Uiso   1.00
H961   H     0.78642   0.71021   0.70149   0.00000  Uiso   1.00
H962   H     0.88028   0.95646   0.79847   0.00000  Uiso   1.00
H963   H     0.88025   0.71021   0.79851   0.00000  Uiso   1.00
H964   H     0.78639   0.95646   0.70153   0.00000  Uiso   1.00
H965   H     0.80781   0.90312   0.52979   0.00000  Uiso   1.00
H966   H     0.80786   0.76350   0.97002   0.00000  Uiso   1.00
H967   H     0.85886   0.90312   0.97021   0.00000  Uiso   1.00
H968   H     0.85880   0.76350   0.52998   0.00000  Uiso   1.00
F969   F     0.80466   0.91129   0.61436   0.00000  Uiso   1.00
F970   F     0.80481   0.75532   0.88543   0.00000  Uiso   1.00
F971   F     0.86201   0.91129   0.88565   0.00000  Uiso   1.00
F972   F     0.86186   0.75532   0.61457   0.00000  Uiso   1.00
loop_
_geom_bond_atom_site_label_1
_geom_bond_atom_site_label_2
_geom_bond_distance
_geom_bond_site_symmetry_2
_ccdc_geom_bond_type
C1     O38     1.290   .     A
C1     C26     1.450   .     S
C1     O35     1.290   .     A
C2     O37     1.290   .     A
C2     C25     1.450   .     S
C2     O36     1.290   .     A
C3     O42     1.294   .     A
C3     C21     1.465   .     S
C3     O39     1.294   .     A
C4     C22     1.465   .     S
C4     O41     1.294   .     A
C4     O40     1.294   .     A
C5     N34     1.367   .     A
C5     H43     1.082   .     S
C5     C332    1.416   1_545 S
C6     N33     1.367   .     A
C6     H44     1.082   .     S
C6     C169    1.416   .     S
C7     H45     1.082   .     S
C7     N34     1.367   .     A
C7     C330    1.416   1_545 S
C8     N33     1.367   .     A
C8     H46     1.082   .     S
C8     C167    1.416   .     S
C9     H29     1.083   .     S
C9     C26     1.401   .     A
C9     C119    1.384   1_455 S
C10    H30     1.083   .     S
C10    C25     1.401   .     A
C10    C66     1.384   .     S
C11    H31     1.083   .     S
C11    C25     1.401   .     A
C11    C63     1.384   .     S
C12    H32     1.083   .     S
C12    C26     1.401   .     A
C12    C118    1.384   1_455 S
C13    C17     1.390   .     A
C13    C23     1.401   .     A
C13    H47     1.083   .     S
C14    C24     1.401   .     A
C14    H48     1.083   .     S
C14    C18     1.390   .     A
C15    H49     1.083   .     S
C15    C19     1.390   .     A
C15    C24     1.401   .     A
C16    C23     1.401   .     A
C16    C20     1.390   .     A
C16    H50     1.083   .     S
C17    F51     1.358   .     S
C17    C21     1.408   .     A
C18    F52     1.358   .     S
C18    C22     1.408   .     A
C19    F53     1.358   .     S
C19    C22     1.408   .     A
C20    C21     1.408   .     A
C20    F54     1.358   .     S
C23    C510    1.466   1_554 S
C24    C509    1.466   .     S
Cu27   O37     1.965   .     S
Cu27   O39     1.959   .     S
Cu27   Cu28    2.675   .     S
Cu27   O35     1.965   .     S
Cu27   N33     2.010   .     S
Cu27   O41     1.959   .     S
Cu28   O38     1.965   .     S
Cu28   O42     1.959   .     S
Cu28   N34     2.010   .     S
Cu28   O40     1.959   .     S
Cu28   O36     1.965   .     S
C55    O92     1.290   .     A
C55    C80     1.450   .     S
C55    O89     1.290   .     A
C56    O91     1.290   .     A
C56    C79     1.450   .     S
C56    O90     1.290   .     A
C57    O96     1.294   .     A
C57    C75     1.465   .     S
C57    O93     1.294   .     A
C58    C76     1.465   .     S
C58    O95     1.294   .     A
C58    O94     1.294   .     A
C59    N88     1.367   .     A
C59    H97     1.082   .     S
C59    C386    1.416   1_545 S
C60    N87     1.367   .     A
C60    H98     1.082   .     S
C60    C223    1.416   .     S
C61    H99     1.082   .     S
C61    N88     1.367   .     A
C61    C384    1.416   1_545 S
C62    N87     1.367   .     A
C62    H100    1.082   .     S
C62    C221    1.416   .     S
C63    H83     1.083   .     S
C63    C80     1.401   .     A
C64    H84     1.083   .     S
C64    C79     1.401   .     A
C64    C120    1.384   .     S
C65    H85     1.083   .     S
C65    C79     1.401   .     A
C65    C117    1.384   .     S
C66    H86     1.083   .     S
C66    C80     1.401   .     A
C67    C71     1.390   .     A
C67    C77     1.401   .     A
C67    H101    1.083   .     S
C68    C78     1.401   .     A
C68    H102    1.083   .     S
C68    C72     1.390   .     A
C69    H103    1.083   .     S
C69    C73     1.390   .     A
C69    C78     1.401   .     A
C70    C77     1.401   .     A
C70    C74     1.390   .     A
C70    H104    1.083   .     S
C71    F105    1.358   .     S
C71    C75     1.408   .     A
C72    F106    1.358   .     S
C72    C76     1.408   .     A
C73    F107    1.358   .     S
C73    C76     1.408   .     A
C74    C75     1.408   .     A
C74    F108    1.358   .     S
C77    C564    1.466   1_554 S
C78    C563    1.466   .     S
Cu81   O91     1.965   .     S
Cu81   O93     1.959   .     S
Cu81   Cu82    2.675   .     S
Cu81   O89     1.965   .     S
Cu81   N87     2.010   .     S
Cu81   O95     1.959   .     S
Cu82   O92     1.965   .     S
Cu82   O96     1.959   .     S
Cu82   N88     2.010   .     S
Cu82   O94     1.959   .     S
Cu82   O90     1.965   .     S
C109   O146    1.290   .     A
C109   C134    1.450   .     S
C109   O143    1.290   .     A
C110   O145    1.290   .     A
C110   C133    1.450   .     S
C110   O144    1.290   .     A
C111   O150    1.294   .     A
C111   C129    1.465   .     S
C111   O147    1.294   .     A
C112   C130    1.465   .     S
C112   O149    1.294   .     A
C112   O148    1.294   .     A
C113   N142    1.367   .     A
C113   H151    1.082   .     S
C113   C440    1.416   1_545 S
C114   N141    1.367   .     A
C114   H152    1.082   .     S
C114   C277    1.416   .     S
C115   H153    1.082   .     S
C115   N142    1.367   .     A
C115   C438    1.416   1_545 S
C116   N141    1.367   .     A
C116   H154    1.082   .     S
C116   C275    1.416   .     S
C117   H137    1.083   .     S
C117   C134    1.401   .     A
C118   H138    1.083   .     S
C118   C133    1.401   .     A
C118   C12     1.384   1_655 S
C119   H139    1.083   .     S
C119   C133    1.401   .     A
C119   C9      1.384   1_655 S
C120   H140    1.083   .     S
C120   C134    1.401   .     A
C121   C125    1.390   .     A
C121   C131    1.401   .     A
C121   H155    1.083   .     S
C122   C132    1.401   .     A
C122   H156    1.083   .     S
C122   C126    1.390   .     A
C123   H157    1.083   .     S
C123   C127    1.390   .     A
C123   C132    1.401   .     A
C124   C131    1.401   .     A
C124   C128    1.390   .     A
C124   H158    1.083   .     S
C125   F159    1.358   .     S
C125   C129    1.408   .     A
C126   F160    1.358   .     S
C126   C130    1.408   .     A
C127   F161    1.358   .     S
C127   C130    1.408   .     A
C128   C129    1.408   .     A
C128   F162    1.358   .     S
C131   C618    1.466   1_554 S
C132   C617    1.466   .     S
Cu135  O145    1.965   .     S
Cu135  O147    1.959   .     S
Cu135  Cu136   2.675   .     S
Cu135  O143    1.965   .     S
Cu135  N141    2.010   .     S
Cu135  O149    1.959   .     S
Cu136  O146    1.965   .     S
Cu136  O150    1.959   .     S
Cu136  N142    2.010   .     S
Cu136  O148    1.959   .     S
Cu136  O144    1.965   .     S
C163   O200    1.290   .     A
C163   C188    1.450   .     S
C163   O197    1.290   .     A
C164   O199    1.290   .     A
C164   C187    1.450   .     S
C164   O198    1.290   .     A
C165   O204    1.294   .     A
C165   C183    1.465   .     S
C165   O201    1.294   .     A
C166   C184    1.465   .     S
C166   O203    1.294   .     A
C166   O202    1.294   .     A
C167   N196    1.367   .     A
C167   H205    1.082   .     S
C168   N195    1.367   .     A
C168   H206    1.082   .     S
C168   C331    1.416   .     S
C169   H207    1.082   .     S
C169   N196    1.367   .     A
C170   N195    1.367   .     A
C170   H208    1.082   .     S
C170   C329    1.416   .     S
C171   H191    1.083   .     S
C171   C188    1.401   .     A
C171   C281    1.384   1_455 S
C172   H192    1.083   .     S
C172   C187    1.401   .     A
C172   C228    1.384   .     S
C173   H193    1.083   .     S
C173   C187    1.401   .     A
C173   C225    1.384   .     S
C174   H194    1.083   .     S
C174   C188    1.401   .     A
C174   C280    1.384   1_455 S
C175   C179    1.390   .     A
C175   C185    1.401   .     A
C175   H209    1.083   .     S
C176   C186    1.401   .     A
C176   H210    1.083   .     S
C176   C180    1.390   .     A
C177   H211    1.083   .     S
C177   C181    1.390   .     A
C177   C186    1.401   .     A
C178   C185    1.401   .     A
C178   C182    1.390   .     A
C178   H212    1.083   .     S
C179   F213    1.358   .     S
C179   C183    1.408   .     A
C180   F214    1.358   .     S
C180   C184    1.408   .     A
C181   F215    1.358   .     S
C181   C184    1.408   .     A
C182   C183    1.408   .     A
C182   F216    1.358   .     S
C185   C672    1.466   1_554 S
C186   C671    1.466   .     S
Cu189  O199    1.965   .     S
Cu189  O201    1.959   .     S
Cu189  Cu190   2.675   .     S
Cu189  O197    1.965   .     S
Cu189  N195    2.010   .     S
Cu189  O203    1.959   .     S
Cu190  O200    1.965   .     S
Cu190  O204    1.959   .     S
Cu190  N196    2.010   .     S
Cu190  O202    1.959   .     S
Cu190  O198    1.965   .     S
C217   O254    1.290   .     A
C217   C242    1.450   .     S
C217   O251    1.290   .     A
C218   O253    1.290   .     A
C218   C241    1.450   .     S
C218   O252    1.290   .     A
C219   O258    1.294   .     A
C219   C237    1.465   .     S
C219   O255    1.294   .     A
C220   C238    1.465   .     S
C220   O257    1.294   .     A
C220   O256    1.294   .     A
C221   N250    1.367   .     A
C221   H259    1.082   .     S
C222   N249    1.367   .     A
C222   H260    1.082   .     S
C222   C385    1.416   .     S
C223   H261    1.082   .     S
C223   N250    1.367   .     A
C224   N249    1.367   .     A
C224   H262    1.082   .     S
C224   C383    1.416   .     S
C225   H245    1.083   .     S
C225   C242    1.401   .     A
C226   H246    1.083   .     S
C226   C241    1.401   .     A
C226   C282    1.384   .     S
C227   H247    1.083   .     S
C227   C241    1.401   .     A
C227   C279    1.384   .     S
C228   H248    1.083   .     S
C228   C242    1.401   .     A
C229   C233    1.390   .     A
C229   C239    1.401   .     A
C229   H263    1.083   .     S
C230   C240    1.401   .     A
C230   H264    1.083   .     S
C230   C234    1.390   .     A
C231   H265    1.083   .     S
C231   C235    1.390   .     A
C231   C240    1.401   .     A
C232   C239    1.401   .     A
C232   C236    1.390   .     A
C232   H266    1.083   .     S
C233   F267    1.358   .     S
C233   C237    1.408   .     A
C234   F268    1.358   .     S
C234   C238    1.408   .     A
C235   F269    1.358   .     S
C235   C238    1.408   .     A
C236   C237    1.408   .     A
C236   F270    1.358   .     S
C239   C726    1.466   1_554 S
C240   C725    1.466   .     S
Cu243  O253    1.965   .     S
Cu243  O255    1.959   .     S
Cu243  Cu244   2.675   .     S
Cu243  O251    1.965   .     S
Cu243  N249    2.010   .     S
Cu243  O257    1.959   .     S
Cu244  O254    1.965   .     S
Cu244  O258    1.959   .     S
Cu244  N250    2.010   .     S
Cu244  O256    1.959   .     S
Cu244  O252    1.965   .     S
C271   O308    1.290   .     A
C271   C296    1.450   .     S
C271   O305    1.290   .     A
C272   O307    1.290   .     A
C272   C295    1.450   .     S
C272   O306    1.290   .     A
C273   O312    1.294   .     A
C273   C291    1.465   .     S
C273   O309    1.294   .     A
C274   C292    1.465   .     S
C274   O311    1.294   .     A
C274   O310    1.294   .     A
C275   N304    1.367   .     A
C275   H313    1.082   .     S
C276   N303    1.367   .     A
C276   H314    1.082   .     S
C276   C439    1.416   .     S
C277   H315    1.082   .     S
C277   N304    1.367   .     A
C278   N303    1.367   .     A
C278   H316    1.082   .     S
C278   C437    1.416   .     S
C279   H299    1.083   .     S
C279   C296    1.401   .     A
C280   H300    1.083   .     S
C280   C295    1.401   .     A
C280   C174    1.384   1_655 S
C281   H301    1.083   .     S
C281   C295    1.401   .     A
C281   C171    1.384   1_655 S
C282   H302    1.083   .     S
C282   C296    1.401   .     A
C283   C287    1.390   .     A
C283   C293    1.401   .     A
C283   H317    1.083   .     S
C284   C294    1.401   .     A
C284   H318    1.083   .     S
C284   C288    1.390   .     A
C285   H319    1.083   .     S
C285   C289    1.390   .     A
C285   C294    1.401   .     A
C286   C293    1.401   .     A
C286   C290    1.390   .     A
C286   H320    1.083   .     S
C287   F321    1.358   .     S
C287   C291    1.408   .     A
C288   F322    1.358   .     S
C288   C292    1.408   .     A
C289   F323    1.358   .     S
C289   C292    1.408   .     A
C290   C291    1.408   .     A
C290   F324    1.358   .     S
C293   C780    1.466   1_554 S
C294   C779    1.466   .     S
Cu297  O307    1.965   .     S
Cu297  O309    1.959   .     S
Cu297  Cu298   2.675   .     S
Cu297  O305    1.965   .     S
Cu297  N303    2.010   .     S
Cu297  O311    1.959   .     S
Cu298  O308    1.965   .     S
Cu298  O312    1.959   .     S
Cu298  N304    2.010   .     S
Cu298  O310    1.959   .     S
Cu298  O306    1.965   .     S
C325   O362    1.290   .     A
C325   C350    1.450   .     S
C325   O359    1.290   .     A
C326   O361    1.290   .     A
C326   C349    1.450   .     S
C326   O360    1.290   .     A
C327   O366    1.294   .     A
C327   C345    1.465   .     S
C327   O363    1.294   .     A
C328   C346    1.465   .     S
C328   O365    1.294   .     A
C328   O364    1.294   .     A
C329   N358    1.367   .     A
C329   H367    1.082   .     S
C330   N357    1.367   .     A
C330   H368    1.082   .     S
C330   C7      1.416   1_565 S
C331   H369    1.082   .     S
C331   N358    1.367   .     A
C332   N357    1.367   .     A
C332   H370    1.082   .     S
C332   C5      1.416   1_565 S
C333   H353    1.083   .     S
C333   C350    1.401   .     A
C333   C443    1.384   1_455 S
C334   H354    1.083   .     S
C334   C349    1.401   .     A
C334   C390    1.384   .     S
C335   H355    1.083   .     S
C335   C349    1.401   .     A
C335   C387    1.384   .     S
C336   H356    1.083   .     S
C336   C350    1.401   .     A
C336   C442    1.384   1_455 S
C337   C341    1.390   .     A
C337   C347    1.401   .     A
C337   H371    1.083   .     S
C338   C348    1.401   .     A
C338   H372    1.083   .     S
C338   C342    1.390   .     A
C339   H373    1.083   .     S
C339   C343    1.390   .     A
C339   C348    1.401   .     A
C340   C347    1.401   .     A
C340   C344    1.390   .     A
C340   H374    1.083   .     S
C341   F375    1.358   .     S
C341   C345    1.408   .     A
C342   F376    1.358   .     S
C342   C346    1.408   .     A
C343   F377    1.358   .     S
C343   C346    1.408   .     A
C344   C345    1.408   .     A
C344   F378    1.358   .     S
C347   C834    1.466   1_554 S
C348   C833    1.466   .     S
Cu351  O361    1.965   .     S
Cu351  O363    1.959   .     S
Cu351  Cu352   2.675   .     S
Cu351  O359    1.965   .     S
Cu351  N357    2.010   .     S
Cu351  O365    1.959   .     S
Cu352  O362    1.965   .     S
Cu352  O366    1.959   .     S
Cu352  N358    2.010   .     S
Cu352  O364    1.959   .     S
Cu352  O360    1.965   .     S
C379   O416    1.290   .     A
C379   C404    1.450   .     S
C379   O413    1.290   .     A
C380   O415    1.290   .     A
C380   C403    1.450   .     S
C380   O414    1.290   .     A
C381   O420    1.294   .     A
C381   C399    1.465   .     S
C381   O417    1.294   .     A
C382   C400    1.465   .     S
C382   O419    1.294   .     A
C382   O418    1.294   .     A
C383   N412    1.367   .     A
C383   H421    1.082   .     S
C384   N411    1.367   .     A
C384   H422    1.082   .     S
C384   C61     1.416   1_565 S
C385   H423    1.082   .     S
C385   N412    1.367   .     A
C386   N411    1.367   .     A
C386   H424    1.082   .     S
C386   C59     1.416   1_565 S
C387   H407    1.083   .     S
C387   C404    1.401   .     A
C388   H408    1.083   .     S
C388   C403    1.401   .     A
C388   C444    1.384   .     S
C389   H409    1.083   .     S
C389   C403    1.401   .     A
C389   C441    1.384   .     S
C390   H410    1.083   .     S
C390   C404    1.401   .     A
C391   C395    1.390   .     A
C391   C401    1.401   .     A
C391   H425    1.083   .     S
C392   C402    1.401   .     A
C392   H426    1.083   .     S
C392   C396    1.390   .     A
C393   H427    1.083   .     S
C393   C397    1.390   .     A
C393   C402    1.401   .     A
C394   C401    1.401   .     A
C394   C398    1.390   .     A
C394   H428    1.083   .     S
C395   F429    1.358   .     S
C395   C399    1.408   .     A
C396   F430    1.358   .     S
C396   C400    1.408   .     A
C397   F431    1.358   .     S
C397   C400    1.408   .     A
C398   C399    1.408   .     A
C398   F432    1.358   .     S
C401   C888    1.466   1_554 S
C402   C887    1.466   .     S
Cu405  O415    1.965   .     S
Cu405  O417    1.959   .     S
Cu405  Cu406   2.675   .     S
Cu405  O413    1.965   .     S
Cu405  N411    2.010   .     S
Cu405  O419    1.959   .     S
Cu406  O416    1.965   .     S
Cu406  O420    1.959   .     S
Cu406  N412    2.010   .     S
Cu406  O418    1.959   .     S
Cu406  O414    1.965   .     S
C433   O470    1.290   .     A
C433   C458    1.450   .     S
C433   O467    1.290   .     A
C434   O469    1.290   .     A
C434   C457    1.450   .     S
C434   O468    1.290   .     A
C435   O474    1.294   .     A
C435   C453    1.465   .     S
C435   O471    1.294   .     A
C436   C454    1.465   .     S
C436   O473    1.294   .     A
C436   O472    1.294   .     A
C437   N466    1.367   .     A
C437   H475    1.082   .     S
C438   N465    1.367   .     A
C438   H476    1.082   .     S
C438   C115    1.416   1_565 S
C439   H477    1.082   .     S
C439   N466    1.367   .     A
C440   N465    1.367   .     A
C440   H478    1.082   .     S
C440   C113    1.416   1_565 S
C441   H461    1.083   .     S
C441   C458    1.401   .     A
C442   H462    1.083   .     S
C442   C457    1.401   .     A
C442   C336    1.384   1_655 S
C443   H463    1.083   .     S
C443   C457    1.401   .     A
C443   C333    1.384   1_655 S
C444   H464    1.083   .     S
C444   C458    1.401   .     A
C445   C449    1.390   .     A
C445   C455    1.401   .     A
C445   H479    1.083   .     S
C446   C456    1.401   .     A
C446   H480    1.083   .     S
C446   C450    1.390   .     A
C447   H481    1.083   .     S
C447   C451    1.390   .     A
C447   C456    1.401   .     A
C448   C455    1.401   .     A
C448   C452    1.390   .     A
C448   H482    1.083   .     S
C449   F483    1.358   .     S
C449   C453    1.408   .     A
C450   F484    1.358   .     S
C450   C454    1.408   .     A
C451   F485    1.358   .     S
C451   C454    1.408   .     A
C452   C453    1.408   .     A
C452   F486    1.358   .     S
C455   C942    1.466   1_554 S
C456   C941    1.466   .     S
Cu459  O469    1.965   .     S
Cu459  O471    1.959   .     S
Cu459  Cu460   2.675   .     S
Cu459  O467    1.965   .     S
Cu459  N465    2.010   .     S
Cu459  O473    1.959   .     S
Cu460  O470    1.965   .     S
Cu460  O474    1.959   .     S
Cu460  N466    2.010   .     S
Cu460  O472    1.959   .     S
Cu460  O468    1.965   .     S
C487   O524    1.290   .     A
C487   C512    1.450   .     S
C487   O521    1.290   .     A
C488   O523    1.290   .     A
C488   C511    1.450   .     S
C488   O522    1.290   .     A
C489   O528    1.294   .     A
C489   C507    1.465   .     S
C489   O525    1.294   .     A
C490   C508    1.465   .     S
C490   O527    1.294   .     A
C490   O526    1.294   .     A
C491   N520    1.367   .     A
C491   H529    1.082   .     S
C491   C818    1.416   1_545 S
C492   N519    1.367   .     A
C492   H530    1.082   .     S
C492   C655    1.416   .     S
C493   H531    1.082   .     S
C493   N520    1.367   .     A
C493   C816    1.416   1_545 S
C494   N519    1.367   .     A
C494   H532    1.082   .     S
C494   C653    1.416   .     S
C495   H515    1.083   .     S
C495   C512    1.401   .     A
C495   C605    1.384   1_455 S
C496   H516    1.083   .     S
C496   C511    1.401   .     A
C496   C552    1.384   .     S
C497   H517    1.083   .     S
C497   C511    1.401   .     A
C497   C549    1.384   .     S
C498   H518    1.083   .     S
C498   C512    1.401   .     A
C498   C604    1.384   1_455 S
C499   C503    1.390   .     A
C499   C509    1.401   .     A
C499   H533    1.083   .     S
C500   C510    1.401   .     A
C500   H534    1.083   .     S
C500   C504    1.390   .     A
C501   H535    1.083   .     S
C501   C505    1.390   .     A
C501   C510    1.401   .     A
C502   C509    1.401   .     A
C502   C506    1.390   .     A
C502   H536    1.083   .     S
C503   F537    1.358   .     S
C503   C507    1.408   .     A
C504   F538    1.358   .     S
C504   C508    1.408   .     A
C505   F539    1.358   .     S
C505   C508    1.408   .     A
C506   C507    1.408   .     A
C506   F540    1.358   .     S
C510   C23     1.466   1_556 S
Cu513  O523    1.965   .     S
Cu513  O525    1.959   .     S
Cu513  Cu514   2.675   .     S
Cu513  O521    1.965   .     S
Cu513  N519    2.010   .     S
Cu513  O527    1.959   .     S
Cu514  O524    1.965   .     S
Cu514  O528    1.959   .     S
Cu514  N520    2.010   .     S
Cu514  O526    1.959   .     S
Cu514  O522    1.965   .     S
C541   O578    1.290   .     A
C541   C566    1.450   .     S
C541   O575    1.290   .     A
C542   O577    1.290   .     A
C542   C565    1.450   .     S
C542   O576    1.290   .     A
C543   O582    1.294   .     A
C543   C561    1.465   .     S
C543   O579    1.294   .     A
C544   C562    1.465   .     S
C544   O581    1.294   .     A
C544   O580    1.294   .     A
C545   N574    1.367   .     A
C545   H583    1.082   .     S
C545   C872    1.416   1_545 S
C546   N573    1.367   .     A
C546   H584    1.082   .     S
C546   C709    1.416   .     S
C547   H585    1.082   .     S
C547   N574    1.367   .     A
C547   C870    1.416   1_545 S
C548   N573    1.367   .     A
C548   H586    1.082   .     S
C548   C707    1.416   .     S
C549   H569    1.083   .     S
C549   C566    1.401   .     A
C550   H570    1.083   .     S
C550   C565    1.401   .     A
C550   C606    1.384   .     S
C551   H571    1.083   .     S
C551   C565    1.401   .     A
C551   C603    1.384   .     S
C552   H572    1.083   .     S
C552   C566    1.401   .     A
C553   C557    1.390   .     A
C553   C563    1.401   .     A
C553   H587    1.083   .     S
C554   C564    1.401   .     A
C554   H588    1.083   .     S
C554   C558    1.390   .     A
C555   H589    1.083   .     S
C555   C559    1.390   .     A
C555   C564    1.401   .     A
C556   C563    1.401   .     A
C556   C560    1.390   .     A
C556   H590    1.083   .     S
C557   F591    1.358   .     S
C557   C561    1.408   .     A
C558   F592    1.358   .     S
C558   C562    1.408   .     A
C559   F593    1.358   .     S
C559   C562    1.408   .     A
C560   C561    1.408   .     A
C560   F594    1.358   .     S
C564   C77     1.466   1_556 S
Cu567  O577    1.965   .     S
Cu567  O579    1.959   .     S
Cu567  Cu568   2.675   .     S
Cu567  O575    1.965   .     S
Cu567  N573    2.010   .     S
Cu567  O581    1.959   .     S
Cu568  O578    1.965   .     S
Cu568  O582    1.959   .     S
Cu568  N574    2.010   .     S
Cu568  O580    1.959   .     S
Cu568  O576    1.965   .     S
C595   O632    1.290   .     A
C595   C620    1.450   .     S
C595   O629    1.290   .     A
C596   O631    1.290   .     A
C596   C619    1.450   .     S
C596   O630    1.290   .     A
C597   O636    1.294   .     A
C597   C615    1.465   .     S
C597   O633    1.294   .     A
C598   C616    1.465   .     S
C598   O635    1.294   .     A
C598   O634    1.294   .     A
C599   N628    1.367   .     A
C599   H637    1.082   .     S
C599   C926    1.416   1_545 S
C600   N627    1.367   .     A
C600   H638    1.082   .     S
C600   C763    1.416   .     S
C601   H639    1.082   .     S
C601   N628    1.367   .     A
C601   C924    1.416   1_545 S
C602   N627    1.367   .     A
C602   H640    1.082   .     S
C602   C761    1.416   .     S
C603   H623    1.083   .     S
C603   C620    1.401   .     A
C604   H624    1.083   .     S
C604   C619    1.401   .     A
C604   C498    1.384   1_655 S
C605   H625    1.083   .     S
C605   C619    1.401   .     A
C605   C495    1.384   1_655 S
C606   H626    1.083   .     S
C606   C620    1.401   .     A
C607   C611    1.390   .     A
C607   C617    1.401   .     A
C607   H641    1.083   .     S
C608   C618    1.401   .     A
C608   H642    1.083   .     S
C608   C612    1.390   .     A
C609   H643    1.083   .     S
C609   C613    1.390   .     A
C609   C618    1.401   .     A
C610   C617    1.401   .     A
C610   C614    1.390   .     A
C610   H644    1.083   .     S
C611   F645    1.358   .     S
C611   C615    1.408   .     A
C612   F646    1.358   .     S
C612   C616    1.408   .     A
C613   F647    1.358   .     S
C613   C616    1.408   .     A
C614   C615    1.408   .     A
C614   F648    1.358   .     S
C618   C131    1.466   1_556 S
Cu621  O631    1.965   .     S
Cu621  O633    1.959   .     S
Cu621  Cu622   2.675   .     S
Cu621  O629    1.965   .     S
Cu621  N627    2.010   .     S
Cu621  O635    1.959   .     S
Cu622  O632    1.965   .     S
Cu622  O636    1.959   .     S
Cu622  N628    2.010   .     S
Cu622  O634    1.959   .     S
Cu622  O630    1.965   .     S
C649   O686    1.290   .     A
C649   C674    1.450   .     S
C649   O683    1.290   .     A
C650   O685    1.290   .     A
C650   C673    1.450   .     S
C650   O684    1.290   .     A
C651   O690    1.294   .     A
C651   C669    1.465   .     S
C651   O687    1.294   .     A
C652   C670    1.465   .     S
C652   O689    1.294   .     A
C652   O688    1.294   .     A
C653   N682    1.367   .     A
C653   H691    1.082   .     S
C654   N681    1.367   .     A
C654   H692    1.082   .     S
C654   C817    1.416   .     S
C655   H693    1.082   .     S
C655   N682    1.367   .     A
C656   N681    1.367   .     A
C656   H694    1.082   .     S
C656   C815    1.416   .     S
C657   H677    1.083   .     S
C657   C674    1.401   .     A
C657   C767    1.384   1_455 S
C658   H678    1.083   .     S
C658   C673    1.401   .     A
C658   C714    1.384   .     S
C659   H679    1.083   .     S
C659   C673    1.401   .     A
C659   C711    1.384   .     S
C660   H680    1.083   .     S
C660   C674    1.401   .     A
C660   C766    1.384   1_455 S
C661   C665    1.390   .     A
C661   C671    1.401   .     A
C661   H695    1.083   .     S
C662   C672    1.401   .     A
C662   H696    1.083   .     S
C662   C666    1.390   .     A
C663   H697    1.083   .     S
C663   C667    1.390   .     A
C663   C672    1.401   .     A
C664   C671    1.401   .     A
C664   C668    1.390   .     A
C664   H698    1.083   .     S
C665   F699    1.358   .     S
C665   C669    1.408   .     A
C666   F700    1.358   .     S
C666   C670    1.408   .     A
C667   F701    1.358   .     S
C667   C670    1.408   .     A
C668   C669    1.408   .     A
C668   F702    1.358   .     S
C672   C185    1.466   1_556 S
Cu675  O685    1.965   .     S
Cu675  O687    1.959   .     S
Cu675  Cu676   2.675   .     S
Cu675  O683    1.965   .     S
Cu675  N681    2.010   .     S
Cu675  O689    1.959   .     S
Cu676  O686    1.965   .     S
Cu676  O690    1.959   .     S
Cu676  N682    2.010   .     S
Cu676  O688    1.959   .     S
Cu676  O684    1.965   .     S
C703   O740    1.290   .     A
C703   C728    1.450   .     S
C703   O737    1.290   .     A
C704   O739    1.290   .     A
C704   C727    1.450   .     S
C704   O738    1.290   .     A
C705   O744    1.294   .     A
C705   C723    1.465   .     S
C705   O741    1.294   .     A
C706   C724    1.465   .     S
C706   O743    1.294   .     A
C706   O742    1.294   .     A
C707   N736    1.367   .     A
C707   H745    1.082   .     S
C708   N735    1.367   .     A
C708   H746    1.082   .     S
C708   C871    1.416   .     S
C709   H747    1.082   .     S
C709   N736    1.367   .     A
C710   N735    1.367   .     A
C710   H748    1.082   .     S
C710   C869    1.416   .     S
C711   H731    1.083   .     S
C711   C728    1.401   .     A
C712   H732    1.083   .     S
C712   C727    1.401   .     A
C712   C768    1.384   .     S
C713   H733    1.083   .     S
C713   C727    1.401   .     A
C713   C765    1.384   .     S
C714   H734    1.083   .     S
C714   C728    1.401   .     A
C715   C719    1.390   .     A
C715   C725    1.401   .     A
C715   H749    1.083   .     S
C716   C726    1.401   .     A
C716   H750    1.083   .     S
C716   C720    1.390   .     A
C717   H751    1.083   .     S
C717   C721    1.390   .     A
C717   C726    1.401   .     A
C718   C725    1.401   .     A
C718   C722    1.390   .     A
C718   H752    1.083   .     S
C719   F753    1.358   .     S
C719   C723    1.408   .     A
C720   F754    1.358   .     S
C720   C724    1.408   .     A
C721   F755    1.358   .     S
C721   C724    1.408   .     A
C722   C723    1.408   .     A
C722   F756    1.358   .     S
C726   C239    1.466   1_556 S
Cu729  O739    1.965   .     S
Cu729  O741    1.959   .     S
Cu729  Cu730   2.675   .     S
Cu729  O737    1.965   .     S
Cu729  N735    2.010   .     S
Cu729  O743    1.959   .     S
Cu730  O740    1.965   .     S
Cu730  O744    1.959   .     S
Cu730  N736    2.010   .     S
Cu730  O742    1.959   .     S
Cu730  O738    1.965   .     S
C757   O794    1.290   .     A
C757   C782    1.450   .     S
C757   O791    1.290   .     A
C758   O793    1.290   .     A
C758   C781    1.450   .     S
C758   O792    1.290   .     A
C759   O798    1.294   .     A
C759   C777    1.465   .     S
C759   O795    1.294   .     A
C760   C778    1.465   .     S
C760   O797    1.294   .     A
C760   O796    1.294   .     A
C761   N790    1.367   .     A
C761   H799    1.082   .     S
C762   N789    1.367   .     A
C762   H800    1.082   .     S
C762   C925    1.416   .     S
C763   H801    1.082   .     S
C763   N790    1.367   .     A
C764   N789    1.367   .     A
C764   H802    1.082   .     S
C764   C923    1.416   .     S
C765   H785    1.083   .     S
C765   C782    1.401   .     A
C766   H786    1.083   .     S
C766   C781    1.401   .     A
C766   C660    1.384   1_655 S
C767   H787    1.083   .     S
C767   C781    1.401   .     A
C767   C657    1.384   1_655 S
C768   H788    1.083   .     S
C768   C782    1.401   .     A
C769   C773    1.390   .     A
C769   C779    1.401   .     A
C769   H803    1.083   .     S
C770   C780    1.401   .     A
C770   H804    1.083   .     S
C770   C774    1.390   .     A
C771   H805    1.083   .     S
C771   C775    1.390   .     A
C771   C780    1.401   .     A
C772   C779    1.401   .     A
C772   C776    1.390   .     A
C772   H806    1.083   .     S
C773   F807    1.358   .     S
C773   C777    1.408   .     A
C774   F808    1.358   .     S
C774   C778    1.408   .     A
C775   F809    1.358   .     S
C775   C778    1.408   .     A
C776   C777    1.408   .     A
C776   F810    1.358   .     S
C780   C293    1.466   1_556 S
Cu783  O793    1.965   .     S
Cu783  O795    1.959   .     S
Cu783  Cu784   2.675   .     S
Cu783  O791    1.965   .     S
Cu783  N789    2.010   .     S
Cu783  O797    1.959   .     S
Cu784  O794    1.965   .     S
Cu784  O798    1.959   .     S
Cu784  N790    2.010   .     S
Cu784  O796    1.959   .     S
Cu784  O792    1.965   .     S
C811   O848    1.290   .     A
C811   C836    1.450   .     S
C811   O845    1.290   .     A
C812   O847    1.290   .     A
C812   C835    1.450   .     S
C812   O846    1.290   .     A
C813   O852    1.294   .     A
C813   C831    1.465   .     S
C813   O849    1.294   .     A
C814   C832    1.465   .     S
C814   O851    1.294   .     A
C814   O850    1.294   .     A
C815   N844    1.367   .     A
C815   H853    1.082   .     S
C816   N843    1.367   .     A
C816   H854    1.082   .     S
C816   C493    1.416   1_565 S
C817   H855    1.082   .     S
C817   N844    1.367   .     A
C818   N843    1.367   .     A
C818   H856    1.082   .     S
C818   C491    1.416   1_565 S
C819   H839    1.083   .     S
C819   C836    1.401   .     A
C819   C929    1.384   1_455 S
C820   H840    1.083   .     S
C820   C835    1.401   .     A
C820   C876    1.384   .     S
C821   H841    1.083   .     S
C821   C835    1.401   .     A
C821   C873    1.384   .     S
C822   H842    1.083   .     S
C822   C836    1.401   .     A
C822   C928    1.384   1_455 S
C823   C827    1.390   .     A
C823   C833    1.401   .     A
C823   H857    1.083   .     S
C824   C834    1.401   .     A
C824   H858    1.083   .     S
C824   C828    1.390   .     A
C825   H859    1.083   .     S
C825   C829    1.390   .     A
C825   C834    1.401   .     A
C826   C833    1.401   .     A
C826   C830    1.390   .     A
C826   H860    1.083   .     S
C827   F861    1.358   .     S
C827   C831    1.408   .     A
C828   F862    1.358   .     S
C828   C832    1.408   .     A
C829   F863    1.358   .     S
C829   C832    1.408   .     A
C830   C831    1.408   .     A
C830   F864    1.358   .     S
C834   C347    1.466   1_556 S
Cu837  O847    1.965   .     S
Cu837  O849    1.959   .     S
Cu837  Cu838   2.675   .     S
Cu837  O845    1.965   .     S
Cu837  N843    2.010   .     S
Cu837  O851    1.959   .     S
Cu838  O848    1.965   .     S
Cu838  O852    1.959   .     S
Cu838  N844    2.010   .     S
Cu838  O850    1.959   .     S
Cu838  O846    1.965   .     S
C865   O902    1.290   .     A
C865   C890    1.450   .     S
C865   O899    1.290   .     A
C866   O901    1.290   .     A
C866   C889    1.450   .     S
C866   O900    1.290   .     A
C867   O906    1.294   .     A
C867   C885    1.465   .     S
C867   O903    1.294   .     A
C868   C886    1.465   .     S
C868   O905    1.294   .     A
C868   O904    1.294   .     A
C869   N898    1.367   .     A
C869   H907    1.082   .     S
C870   N897    1.367   .     A
C870   H908    1.082   .     S
C870   C547    1.416   1_565 S
C871   H909    1.082   .     S
C871   N898    1.367   .     A
C872   N897    1.367   .     A
C872   H910    1.082   .     S
C872   C545    1.416   1_565 S
C873   H893    1.083   .     S
C873   C890    1.401   .     A
C874   H894    1.083   .     S
C874   C889    1.401   .     A
C874   C930    1.384   .     S
C875   H895    1.083   .     S
C875   C889    1.401   .     A
C875   C927    1.384   .     S
C876   H896    1.083   .     S
C876   C890    1.401   .     A
C877   C881    1.390   .     A
C877   C887    1.401   .     A
C877   H911    1.083   .     S
C878   C888    1.401   .     A
C878   H912    1.083   .     S
C878   C882    1.390   .     A
C879   H913    1.083   .     S
C879   C883    1.390   .     A
C879   C888    1.401   .     A
C880   C887    1.401   .     A
C880   C884    1.390   .     A
C880   H914    1.083   .     S
C881   F915    1.358   .     S
C881   C885    1.408   .     A
C882   F916    1.358   .     S
C882   C886    1.408   .     A
C883   F917    1.358   .     S
C883   C886    1.408   .     A
C884   C885    1.408   .     A
C884   F918    1.358   .     S
C888   C401    1.466   1_556 S
Cu891  O901    1.965   .     S
Cu891  O903    1.959   .     S
Cu891  Cu892   2.675   .     S
Cu891  O899    1.965   .     S
Cu891  N897    2.010   .     S
Cu891  O905    1.959   .     S
Cu892  O902    1.965   .     S
Cu892  O906    1.959   .     S
Cu892  N898    2.010   .     S
Cu892  O904    1.959   .     S
Cu892  O900    1.965   .     S
C919   O956    1.290   .     A
C919   C944    1.450   .     S
C919   O953    1.290   .     A
C920   O955    1.290   .     A
C920   C943    1.450   .     S
C920   O954    1.290   .     A
C921   O960    1.294   .     A
C921   C939    1.465   .     S
C921   O957    1.294   .     A
C922   C940    1.465   .     S
C922   O959    1.294   .     A
C922   O958    1.294   .     A
C923   N952    1.367   .     A
C923   H961    1.082   .     S
C924   N951    1.367   .     A
C924   H962    1.082   .     S
C924   C601    1.416   1_565 S
C925   H963    1.082   .     S
C925   N952    1.367   .     A
C926   N951    1.367   .     A
C926   H964    1.082   .     S
C926   C599    1.416   1_565 S
C927   H947    1.083   .     S
C927   C944    1.401   .     A
C928   H948    1.083   .     S
C928   C943    1.401   .     A
C928   C822    1.384   1_655 S
C929   H949    1.083   .     S
C929   C943    1.401   .     A
C929   C819    1.384   1_655 S
C930   H950    1.083   .     S
C930   C944    1.401   .     A
C931   C935    1.390   .     A
C931   C941    1.401   .     A
C931   H965    1.083   .     S
C932   C942    1.401   .     A
C932   H966    1.083   .     S
C932   C936    1.390   .     A
C933   H967    1.083   .     S
C933   C937    1.390   .     A
C933   C942    1.401   .     A
C934   C941    1.401   .     A
C934   C938    1.390   .     A
C934   H968    1.083   .     S
C935   F969    1.358   .     S
C935   C939    1.408   .     A
C936   F970    1.358   .     S
C936   C940    1.408   .     A
C937   F971    1.358   .     S
C937   C940    1.408   .     A
C938   C939    1.408   .     A
C938   F972    1.358   .     S
C942   C455    1.466   1_556 S
Cu945  O955    1.965   .     S
Cu945  O957    1.959   .     S
Cu945  Cu946   2.675   .     S
Cu945  O953    1.965   .     S
Cu945  N951    2.010   .     S
Cu945  O959    1.959   .     S
Cu946  O956    1.965   .     S
Cu946  O960    1.959   .     S
Cu946  N952    2.010   .     S
Cu946  O958    1.959   .     S
Cu946  O954    1.965   .     S
