data_str_m2_o2_o10_pcu_sym.235
_audit_creation_date              2020-01-03
_audit_creation_method            'Materials Studio'
_symmetry_space_group_name_H-M    'P1'
_symmetry_Int_Tables_number       1
_symmetry_cell_setting            triclinic
loop_
_symmetry_equiv_pos_as_xyz
  x,y,z
_cell_length_a                    26.3078
_cell_length_b                    30.3446
_cell_length_c                    28.0129
_cell_angle_alpha                 89.7355
_cell_angle_beta                  97.2895
_cell_angle_gamma                 92.5564
loop_
_atom_site_label
_atom_site_type_symbol
_atom_site_fract_x
_atom_site_fract_y
_atom_site_fract_z
_atom_site_U_iso_or_equiv
_atom_site_adp_type
_atom_site_occupancy
C1     C     0.16818   0.16505   0.25053   0.00000  Uiso   1.00
C2     C     0.16516   0.33495   0.24948   0.00000  Uiso   1.00
C3     C     0.19900   0.28202   0.05927   0.00000  Uiso   1.00
C4     C     0.13435   0.21799   0.44074   0.00000  Uiso   1.00
C5     C     0.19897   0.27885   0.10963   0.00000  Uiso   1.00
C6     C     0.13438   0.22115   0.39038   0.00000  Uiso   1.00
C7     C     0.12981   0.22593   0.09881   0.00000  Uiso   1.00
C8     C     0.20352   0.27409   0.40119   0.00000  Uiso   1.00
C9     C     0.12883   0.22947   0.04898   0.00000  Uiso   1.00
C10    C     0.20449   0.27056   0.45102   0.00000  Uiso   1.00
C11    C     0.16657   0.25243   0.02739   0.00000  Uiso   1.00
C12    C     0.16677   0.24759   0.47261   0.00000  Uiso   1.00
C13    C     0.06832   0.25107   0.23826   0.00000  Uiso   1.00
C14    C     0.26501   0.24894   0.26174   0.00000  Uiso   1.00
C15    C     0.01502   0.26050   0.23500   0.00000  Uiso   1.00
C16    C     0.31832   0.23951   0.26500   0.00000  Uiso   1.00
C17    C     0.18159   0.04735   0.29395   0.00000  Uiso   1.00
C18    C     0.15160   0.45268   0.20619   0.00000  Uiso   1.00
C19    C     0.17885   0.09285   0.29548   0.00000  Uiso   1.00
C20    C     0.15436   0.40718   0.20459   0.00000  Uiso   1.00
C21    C     0.17282   0.11689   0.25191   0.00000  Uiso   1.00
C22    C     0.16052   0.38311   0.24813   0.00000  Uiso   1.00
C23    C     0.17713   0.09470   0.20898   0.00000  Uiso   1.00
C24    C     0.15634   0.40526   0.29112   0.00000  Uiso   1.00
C25    C     0.18269   0.04918   0.20847   0.00000  Uiso   1.00
C26    C     0.15073   0.45076   0.29171   0.00000  Uiso   1.00
C27    C     0.17413   0.02428   0.25027   0.00000  Uiso   1.00
C28    C     0.15919   0.47571   0.24990   0.00000  Uiso   1.00
Cu29   Cu    0.16667   0.25000   0.29822   0.00000  Uiso   1.00
Cu30   Cu    0.16667   0.25001   0.20179   0.00000  Uiso   1.00
H31    H     0.18927   0.03027   0.32754   0.00000  Uiso   1.00
H32    H     0.14390   0.46979   0.17262   0.00000  Uiso   1.00
H33    H     0.18011   0.11320   0.17620   0.00000  Uiso   1.00
H34    H     0.15353   0.38673   0.32391   0.00000  Uiso   1.00
H35    H     0.22217   0.30202   0.13312   0.00000  Uiso   1.00
H36    H     0.11118   0.19797   0.36690   0.00000  Uiso   1.00
H37    H     0.09483   0.21744   0.02710   0.00000  Uiso   1.00
H38    H     0.23849   0.28261   0.47289   0.00000  Uiso   1.00
N39    N     0.16667   0.25001   0.12935   0.00000  Uiso   1.00
N40    N     0.16667   0.24999   0.37066   0.00000  Uiso   1.00
O41    O     0.16667   0.18573   0.29072   0.00000  Uiso   1.00
O42    O     0.16666   0.31428   0.20929   0.00000  Uiso   1.00
O43    O     0.16667   0.18573   0.20928   0.00000  Uiso   1.00
O44    O     0.16666   0.31427   0.29072   0.00000  Uiso   1.00
O45    O     0.09161   0.25000   0.28132   0.00000  Uiso   1.00
O46    O     0.24172   0.25001   0.21868   0.00000  Uiso   1.00
O47    O     0.09161   0.25000   0.19989   0.00000  Uiso   1.00
O48    O     0.24172   0.25000   0.30012   0.00000  Uiso   1.00
S49    S     0.33148   0.30917   0.20180   0.00000  Uiso   1.00
O50    O     0.31575   0.29694   0.15003   0.00000  Uiso   1.00
O51    O     0.28887   0.33222   0.22097   0.00000  Uiso   1.00
O52    O     0.04975   0.34417   0.20494   0.00000  Uiso   1.00
H53    H     0.03823   0.36987   0.18517   0.00000  Uiso   1.00
S54    S     0.00185   0.19085   0.29822   0.00000  Uiso   1.00
O55    O     0.04444   0.16778   0.27902   0.00000  Uiso   1.00
O56    O     0.01762   0.20310   0.34998   0.00000  Uiso   1.00
O57    O     0.28357   0.15587   0.29512   0.00000  Uiso   1.00
H58    H     0.29505   0.13022   0.31499   0.00000  Uiso   1.00
Cl59   Cl    0.18371   0.11658   0.35344   0.00000  Uiso   1.00
Cl60   Cl    0.14947   0.38349   0.14662   0.00000  Uiso   1.00
S61    S     0.21666   0.02989   0.16224   0.00000  Uiso   1.00
O62    O     0.17992   0.02098   0.11734   0.00000  Uiso   1.00
O63    O     0.25568   0.06499   0.15130   0.00000  Uiso   1.00
O64    O     0.24763   0.48399   0.17947   0.00000  Uiso   1.00
H65    H     0.25994   0.47298   0.14994   0.00000  Uiso   1.00
S66    S     0.11715   0.46996   0.33829   0.00000  Uiso   1.00
O67    O     0.08880   0.01060   0.32278   0.00000  Uiso   1.00
O68    O     0.07894   0.43453   0.35013   0.00000  Uiso   1.00
O69    O     0.15872   0.48068   0.38804   0.00000  Uiso   1.00
H70    H     0.13785   0.49315   0.41131   0.00000  Uiso   1.00
Cl71   Cl    0.23084   0.33058   0.04131   0.00000  Uiso   1.00
Cl72   Cl    0.10253   0.16942   0.45872   0.00000  Uiso   1.00
S73    S     0.07479   0.19485   0.11501   0.00000  Uiso   1.00
O74    O     0.03202   0.22606   0.11466   0.00000  Uiso   1.00
O75    O     0.05860   0.16067   0.07671   0.00000  Uiso   1.00
O76    O     0.08090   0.16779   0.16752   0.00000  Uiso   1.00
H77    H     0.04569   0.15698   0.17186   0.00000  Uiso   1.00
S78    S     0.25853   0.30516   0.38498   0.00000  Uiso   1.00
O79    O     0.27471   0.33937   0.42326   0.00000  Uiso   1.00
O80    O     0.30131   0.27396   0.38536   0.00000  Uiso   1.00
O81    O     0.25244   0.33221   0.33246   0.00000  Uiso   1.00
H82    H     0.28765   0.34303   0.32813   0.00000  Uiso   1.00
C83    C     0.50151   0.16505   0.25053   0.00000  Uiso   1.00
C84    C     0.49850   0.33495   0.24948   0.00000  Uiso   1.00
C85    C     0.53233   0.28202   0.05927   0.00000  Uiso   1.00
C86    C     0.46769   0.21799   0.44074   0.00000  Uiso   1.00
C87    C     0.53230   0.27885   0.10963   0.00000  Uiso   1.00
C88    C     0.46771   0.22115   0.39038   0.00000  Uiso   1.00
C89    C     0.46314   0.22593   0.09881   0.00000  Uiso   1.00
C90    C     0.53685   0.27409   0.40119   0.00000  Uiso   1.00
C91    C     0.46217   0.22947   0.04898   0.00000  Uiso   1.00
C92    C     0.53782   0.27056   0.45102   0.00000  Uiso   1.00
C93    C     0.49991   0.25243   0.02739   0.00000  Uiso   1.00
C94    C     0.50010   0.24759   0.47261   0.00000  Uiso   1.00
C95    C     0.40166   0.25107   0.23826   0.00000  Uiso   1.00
C96    C     0.59834   0.24894   0.26174   0.00000  Uiso   1.00
C97    C     0.34835   0.26050   0.23500   0.00000  Uiso   1.00
C98    C     0.65165   0.23951   0.26500   0.00000  Uiso   1.00
C99    C     0.51492   0.04735   0.29395   0.00000  Uiso   1.00
C100   C     0.48494   0.45268   0.20619   0.00000  Uiso   1.00
C101   C     0.51219   0.09285   0.29548   0.00000  Uiso   1.00
C102   C     0.48769   0.40718   0.20459   0.00000  Uiso   1.00
C103   C     0.50615   0.11689   0.25191   0.00000  Uiso   1.00
C104   C     0.49385   0.38311   0.24813   0.00000  Uiso   1.00
C105   C     0.51046   0.09470   0.20898   0.00000  Uiso   1.00
C106   C     0.48967   0.40526   0.29112   0.00000  Uiso   1.00
C107   C     0.51603   0.04918   0.20847   0.00000  Uiso   1.00
C108   C     0.48407   0.45076   0.29171   0.00000  Uiso   1.00
C109   C     0.50746   0.02428   0.25027   0.00000  Uiso   1.00
C110   C     0.49253   0.47571   0.24990   0.00000  Uiso   1.00
Cu111  Cu    0.50000   0.25000   0.29822   0.00000  Uiso   1.00
Cu112  Cu    0.50000   0.25001   0.20179   0.00000  Uiso   1.00
H113   H     0.52260   0.03027   0.32754   0.00000  Uiso   1.00
H114   H     0.47723   0.46979   0.17262   0.00000  Uiso   1.00
H115   H     0.51345   0.11320   0.17620   0.00000  Uiso   1.00
H116   H     0.48686   0.38673   0.32391   0.00000  Uiso   1.00
H117   H     0.55550   0.30202   0.13312   0.00000  Uiso   1.00
H118   H     0.44451   0.19797   0.36690   0.00000  Uiso   1.00
H119   H     0.42816   0.21744   0.02710   0.00000  Uiso   1.00
H120   H     0.57182   0.28261   0.47289   0.00000  Uiso   1.00
N121   N     0.50000   0.25001   0.12935   0.00000  Uiso   1.00
N122   N     0.50000   0.24999   0.37066   0.00000  Uiso   1.00
O123   O     0.50000   0.18573   0.29072   0.00000  Uiso   1.00
O124   O     0.50000   0.31428   0.20929   0.00000  Uiso   1.00
O125   O     0.50000   0.18573   0.20928   0.00000  Uiso   1.00
O126   O     0.50000   0.31427   0.29072   0.00000  Uiso   1.00
O127   O     0.42495   0.25000   0.28132   0.00000  Uiso   1.00
O128   O     0.57505   0.25001   0.21868   0.00000  Uiso   1.00
O129   O     0.42495   0.25000   0.19989   0.00000  Uiso   1.00
O130   O     0.57505   0.25000   0.30012   0.00000  Uiso   1.00
S131   S     0.66481   0.30917   0.20180   0.00000  Uiso   1.00
O132   O     0.64908   0.29694   0.15003   0.00000  Uiso   1.00
O133   O     0.62220   0.33222   0.22097   0.00000  Uiso   1.00
O134   O     0.38309   0.34417   0.20494   0.00000  Uiso   1.00
H135   H     0.37156   0.36987   0.18517   0.00000  Uiso   1.00
S136   S     0.33519   0.19085   0.29822   0.00000  Uiso   1.00
O137   O     0.37778   0.16778   0.27902   0.00000  Uiso   1.00
O138   O     0.35095   0.20310   0.34998   0.00000  Uiso   1.00
O139   O     0.61690   0.15587   0.29512   0.00000  Uiso   1.00
H140   H     0.62839   0.13022   0.31499   0.00000  Uiso   1.00
Cl141  Cl    0.51704   0.11658   0.35344   0.00000  Uiso   1.00
Cl142  Cl    0.48280   0.38349   0.14662   0.00000  Uiso   1.00
S143   S     0.55000   0.02989   0.16224   0.00000  Uiso   1.00
O144   O     0.51326   0.02098   0.11734   0.00000  Uiso   1.00
O145   O     0.58901   0.06499   0.15130   0.00000  Uiso   1.00
O146   O     0.58097   0.48399   0.17947   0.00000  Uiso   1.00
H147   H     0.59328   0.47298   0.14994   0.00000  Uiso   1.00
S148   S     0.45049   0.46996   0.33829   0.00000  Uiso   1.00
O149   O     0.42214   0.01060   0.32278   0.00000  Uiso   1.00
O150   O     0.41227   0.43453   0.35013   0.00000  Uiso   1.00
O151   O     0.49206   0.48068   0.38804   0.00000  Uiso   1.00
H152   H     0.47118   0.49315   0.41131   0.00000  Uiso   1.00
Cl153  Cl    0.56418   0.33058   0.04131   0.00000  Uiso   1.00
Cl154  Cl    0.43587   0.16942   0.45872   0.00000  Uiso   1.00
S155   S     0.40813   0.19485   0.11501   0.00000  Uiso   1.00
O156   O     0.36535   0.22606   0.11466   0.00000  Uiso   1.00
O157   O     0.39193   0.16067   0.07671   0.00000  Uiso   1.00
O158   O     0.41423   0.16779   0.16752   0.00000  Uiso   1.00
H159   H     0.37903   0.15698   0.17186   0.00000  Uiso   1.00
S160   S     0.59186   0.30516   0.38498   0.00000  Uiso   1.00
O161   O     0.60804   0.33937   0.42326   0.00000  Uiso   1.00
O162   O     0.63464   0.27396   0.38536   0.00000  Uiso   1.00
O163   O     0.58577   0.33221   0.33246   0.00000  Uiso   1.00
H164   H     0.62098   0.34303   0.32813   0.00000  Uiso   1.00
C165   C     0.83484   0.16505   0.25053   0.00000  Uiso   1.00
C166   C     0.83183   0.33495   0.24948   0.00000  Uiso   1.00
C167   C     0.86566   0.28202   0.05927   0.00000  Uiso   1.00
C168   C     0.80102   0.21799   0.44074   0.00000  Uiso   1.00
C169   C     0.86563   0.27885   0.10963   0.00000  Uiso   1.00
C170   C     0.80104   0.22115   0.39038   0.00000  Uiso   1.00
C171   C     0.79647   0.22593   0.09881   0.00000  Uiso   1.00
C172   C     0.87019   0.27409   0.40119   0.00000  Uiso   1.00
C173   C     0.79550   0.22947   0.04898   0.00000  Uiso   1.00
C174   C     0.87116   0.27056   0.45102   0.00000  Uiso   1.00
C175   C     0.83324   0.25243   0.02739   0.00000  Uiso   1.00
C176   C     0.83343   0.24759   0.47261   0.00000  Uiso   1.00
C177   C     0.73499   0.25107   0.23826   0.00000  Uiso   1.00
C178   C     0.93167   0.24894   0.26174   0.00000  Uiso   1.00
C179   C     0.68168   0.26050   0.23500   0.00000  Uiso   1.00
C180   C     0.98498   0.23951   0.26500   0.00000  Uiso   1.00
C181   C     0.84825   0.04735   0.29395   0.00000  Uiso   1.00
C182   C     0.81827   0.45268   0.20619   0.00000  Uiso   1.00
C183   C     0.84552   0.09285   0.29548   0.00000  Uiso   1.00
C184   C     0.82103   0.40718   0.20459   0.00000  Uiso   1.00
C185   C     0.83948   0.11689   0.25191   0.00000  Uiso   1.00
C186   C     0.82718   0.38311   0.24813   0.00000  Uiso   1.00
C187   C     0.84379   0.09470   0.20898   0.00000  Uiso   1.00
C188   C     0.82300   0.40526   0.29112   0.00000  Uiso   1.00
C189   C     0.84936   0.04918   0.20847   0.00000  Uiso   1.00
C190   C     0.81740   0.45076   0.29171   0.00000  Uiso   1.00
C191   C     0.84079   0.02428   0.25027   0.00000  Uiso   1.00
C192   C     0.82586   0.47571   0.24990   0.00000  Uiso   1.00
Cu193  Cu    0.83333   0.25000   0.29822   0.00000  Uiso   1.00
Cu194  Cu    0.83333   0.25001   0.20179   0.00000  Uiso   1.00
H195   H     0.85594   0.03027   0.32754   0.00000  Uiso   1.00
H196   H     0.81057   0.46979   0.17262   0.00000  Uiso   1.00
H197   H     0.84678   0.11320   0.17620   0.00000  Uiso   1.00
H198   H     0.82020   0.38673   0.32391   0.00000  Uiso   1.00
H199   H     0.88884   0.30202   0.13312   0.00000  Uiso   1.00
H200   H     0.77785   0.19797   0.36690   0.00000  Uiso   1.00
H201   H     0.76150   0.21744   0.02710   0.00000  Uiso   1.00
H202   H     0.90516   0.28261   0.47289   0.00000  Uiso   1.00
N203   N     0.83333   0.25001   0.12935   0.00000  Uiso   1.00
N204   N     0.83333   0.24999   0.37066   0.00000  Uiso   1.00
O205   O     0.83334   0.18573   0.29072   0.00000  Uiso   1.00
O206   O     0.83333   0.31428   0.20929   0.00000  Uiso   1.00
O207   O     0.83334   0.18573   0.20928   0.00000  Uiso   1.00
O208   O     0.83333   0.31427   0.29072   0.00000  Uiso   1.00
O209   O     0.75828   0.25000   0.28132   0.00000  Uiso   1.00
O210   O     0.90839   0.25001   0.21868   0.00000  Uiso   1.00
O211   O     0.75828   0.25000   0.19989   0.00000  Uiso   1.00
O212   O     0.90839   0.25000   0.30012   0.00000  Uiso   1.00
S213   S     0.99814   0.30917   0.20180   0.00000  Uiso   1.00
O214   O     0.98241   0.29694   0.15003   0.00000  Uiso   1.00
O215   O     0.95553   0.33222   0.22097   0.00000  Uiso   1.00
O216   O     0.71642   0.34417   0.20494   0.00000  Uiso   1.00
H217   H     0.70490   0.36987   0.18517   0.00000  Uiso   1.00
S218   S     0.66852   0.19085   0.29822   0.00000  Uiso   1.00
O219   O     0.71111   0.16778   0.27902   0.00000  Uiso   1.00
O220   O     0.68429   0.20310   0.34998   0.00000  Uiso   1.00
O221   O     0.95024   0.15587   0.29512   0.00000  Uiso   1.00
H222   H     0.96172   0.13022   0.31499   0.00000  Uiso   1.00
Cl223  Cl    0.85038   0.11658   0.35344   0.00000  Uiso   1.00
Cl224  Cl    0.81613   0.38349   0.14662   0.00000  Uiso   1.00
S225   S     0.88333   0.02989   0.16224   0.00000  Uiso   1.00
O226   O     0.84659   0.02098   0.11734   0.00000  Uiso   1.00
O227   O     0.92235   0.06499   0.15130   0.00000  Uiso   1.00
O228   O     0.91430   0.48399   0.17947   0.00000  Uiso   1.00
H229   H     0.92661   0.47298   0.14994   0.00000  Uiso   1.00
S230   S     0.78382   0.46996   0.33829   0.00000  Uiso   1.00
O231   O     0.75547   0.01060   0.32278   0.00000  Uiso   1.00
O232   O     0.74560   0.43453   0.35013   0.00000  Uiso   1.00
O233   O     0.82539   0.48068   0.38804   0.00000  Uiso   1.00
H234   H     0.80451   0.49315   0.41131   0.00000  Uiso   1.00
Cl235  Cl    0.89751   0.33058   0.04131   0.00000  Uiso   1.00
Cl236  Cl    0.76920   0.16942   0.45872   0.00000  Uiso   1.00
S237   S     0.74146   0.19485   0.11501   0.00000  Uiso   1.00
O238   O     0.69869   0.22606   0.11466   0.00000  Uiso   1.00
O239   O     0.72527   0.16067   0.07671   0.00000  Uiso   1.00
O240   O     0.74757   0.16779   0.16752   0.00000  Uiso   1.00
H241   H     0.71236   0.15698   0.17186   0.00000  Uiso   1.00
S242   S     0.92520   0.30516   0.38498   0.00000  Uiso   1.00
O243   O     0.94137   0.33937   0.42326   0.00000  Uiso   1.00
O244   O     0.96798   0.27396   0.38536   0.00000  Uiso   1.00
O245   O     0.91911   0.33221   0.33246   0.00000  Uiso   1.00
H246   H     0.95432   0.34303   0.32813   0.00000  Uiso   1.00
C247   C     0.16818   0.66505   0.25053   0.00000  Uiso   1.00
C248   C     0.16516   0.83495   0.24948   0.00000  Uiso   1.00
C249   C     0.19900   0.78202   0.05927   0.00000  Uiso   1.00
C250   C     0.13435   0.71799   0.44074   0.00000  Uiso   1.00
C251   C     0.19897   0.77885   0.10963   0.00000  Uiso   1.00
C252   C     0.13438   0.72115   0.39038   0.00000  Uiso   1.00
C253   C     0.12981   0.72593   0.09881   0.00000  Uiso   1.00
C254   C     0.20352   0.77409   0.40119   0.00000  Uiso   1.00
C255   C     0.12883   0.72947   0.04898   0.00000  Uiso   1.00
C256   C     0.20449   0.77056   0.45102   0.00000  Uiso   1.00
C257   C     0.16657   0.75243   0.02739   0.00000  Uiso   1.00
C258   C     0.16677   0.74759   0.47261   0.00000  Uiso   1.00
C259   C     0.06832   0.75107   0.23826   0.00000  Uiso   1.00
C260   C     0.26501   0.74894   0.26174   0.00000  Uiso   1.00
C261   C     0.01502   0.76050   0.23500   0.00000  Uiso   1.00
C262   C     0.31832   0.73951   0.26500   0.00000  Uiso   1.00
C263   C     0.18159   0.54735   0.29395   0.00000  Uiso   1.00
C264   C     0.15160   0.95268   0.20619   0.00000  Uiso   1.00
C265   C     0.17885   0.59285   0.29548   0.00000  Uiso   1.00
C266   C     0.15436   0.90718   0.20459   0.00000  Uiso   1.00
C267   C     0.17282   0.61689   0.25191   0.00000  Uiso   1.00
C268   C     0.16052   0.88311   0.24813   0.00000  Uiso   1.00
C269   C     0.17713   0.59470   0.20898   0.00000  Uiso   1.00
C270   C     0.15634   0.90526   0.29112   0.00000  Uiso   1.00
C271   C     0.18269   0.54918   0.20847   0.00000  Uiso   1.00
C272   C     0.15073   0.95076   0.29171   0.00000  Uiso   1.00
C273   C     0.17413   0.52428   0.25027   0.00000  Uiso   1.00
C274   C     0.15919   0.97571   0.24990   0.00000  Uiso   1.00
Cu275  Cu    0.16667   0.75000   0.29822   0.00000  Uiso   1.00
Cu276  Cu    0.16667   0.75001   0.20179   0.00000  Uiso   1.00
H277   H     0.18927   0.53027   0.32754   0.00000  Uiso   1.00
H278   H     0.14390   0.96979   0.17262   0.00000  Uiso   1.00
H279   H     0.18011   0.61320   0.17620   0.00000  Uiso   1.00
H280   H     0.15353   0.88673   0.32391   0.00000  Uiso   1.00
H281   H     0.22217   0.80202   0.13312   0.00000  Uiso   1.00
H282   H     0.11118   0.69797   0.36690   0.00000  Uiso   1.00
H283   H     0.09483   0.71744   0.02710   0.00000  Uiso   1.00
H284   H     0.23849   0.78261   0.47289   0.00000  Uiso   1.00
N285   N     0.16667   0.75001   0.12935   0.00000  Uiso   1.00
N286   N     0.16667   0.74999   0.37066   0.00000  Uiso   1.00
O287   O     0.16667   0.68573   0.29072   0.00000  Uiso   1.00
O288   O     0.16666   0.81428   0.20929   0.00000  Uiso   1.00
O289   O     0.16667   0.68573   0.20928   0.00000  Uiso   1.00
O290   O     0.16666   0.81427   0.29072   0.00000  Uiso   1.00
O291   O     0.09161   0.75000   0.28132   0.00000  Uiso   1.00
O292   O     0.24172   0.75001   0.21868   0.00000  Uiso   1.00
O293   O     0.09161   0.75000   0.19989   0.00000  Uiso   1.00
O294   O     0.24172   0.75000   0.30012   0.00000  Uiso   1.00
S295   S     0.33148   0.80917   0.20180   0.00000  Uiso   1.00
O296   O     0.31575   0.79694   0.15003   0.00000  Uiso   1.00
O297   O     0.28887   0.83222   0.22097   0.00000  Uiso   1.00
O298   O     0.04975   0.84417   0.20494   0.00000  Uiso   1.00
H299   H     0.03823   0.86987   0.18517   0.00000  Uiso   1.00
S300   S     0.00185   0.69085   0.29822   0.00000  Uiso   1.00
O301   O     0.04444   0.66778   0.27902   0.00000  Uiso   1.00
O302   O     0.01762   0.70310   0.34998   0.00000  Uiso   1.00
O303   O     0.28357   0.65587   0.29512   0.00000  Uiso   1.00
H304   H     0.29505   0.63022   0.31499   0.00000  Uiso   1.00
Cl305  Cl    0.18371   0.61658   0.35344   0.00000  Uiso   1.00
Cl306  Cl    0.14947   0.88349   0.14662   0.00000  Uiso   1.00
S307   S     0.21666   0.52989   0.16224   0.00000  Uiso   1.00
O308   O     0.17992   0.52098   0.11734   0.00000  Uiso   1.00
O309   O     0.25568   0.56499   0.15130   0.00000  Uiso   1.00
O310   O     0.24763   0.98399   0.17947   0.00000  Uiso   1.00
H311   H     0.25994   0.97298   0.14994   0.00000  Uiso   1.00
S312   S     0.11715   0.96996   0.33829   0.00000  Uiso   1.00
O313   O     0.08880   0.51060   0.32278   0.00000  Uiso   1.00
O314   O     0.07894   0.93453   0.35013   0.00000  Uiso   1.00
O315   O     0.15872   0.98068   0.38804   0.00000  Uiso   1.00
H316   H     0.13785   0.99315   0.41131   0.00000  Uiso   1.00
Cl317  Cl    0.23084   0.83058   0.04131   0.00000  Uiso   1.00
Cl318  Cl    0.10253   0.66942   0.45872   0.00000  Uiso   1.00
S319   S     0.07479   0.69485   0.11501   0.00000  Uiso   1.00
O320   O     0.03202   0.72606   0.11466   0.00000  Uiso   1.00
O321   O     0.05860   0.66067   0.07671   0.00000  Uiso   1.00
O322   O     0.08090   0.66779   0.16752   0.00000  Uiso   1.00
H323   H     0.04569   0.65698   0.17186   0.00000  Uiso   1.00
S324   S     0.25853   0.80516   0.38498   0.00000  Uiso   1.00
O325   O     0.27471   0.83937   0.42326   0.00000  Uiso   1.00
O326   O     0.30131   0.77396   0.38536   0.00000  Uiso   1.00
O327   O     0.25244   0.83221   0.33246   0.00000  Uiso   1.00
H328   H     0.28765   0.84303   0.32813   0.00000  Uiso   1.00
C329   C     0.50151   0.66505   0.25053   0.00000  Uiso   1.00
C330   C     0.49850   0.83495   0.24948   0.00000  Uiso   1.00
C331   C     0.53233   0.78202   0.05927   0.00000  Uiso   1.00
C332   C     0.46769   0.71799   0.44074   0.00000  Uiso   1.00
C333   C     0.53230   0.77885   0.10963   0.00000  Uiso   1.00
C334   C     0.46771   0.72115   0.39038   0.00000  Uiso   1.00
C335   C     0.46314   0.72593   0.09881   0.00000  Uiso   1.00
C336   C     0.53685   0.77409   0.40119   0.00000  Uiso   1.00
C337   C     0.46217   0.72947   0.04898   0.00000  Uiso   1.00
C338   C     0.53782   0.77056   0.45102   0.00000  Uiso   1.00
C339   C     0.49991   0.75243   0.02739   0.00000  Uiso   1.00
C340   C     0.50010   0.74759   0.47261   0.00000  Uiso   1.00
C341   C     0.40166   0.75107   0.23826   0.00000  Uiso   1.00
C342   C     0.59834   0.74894   0.26174   0.00000  Uiso   1.00
C343   C     0.34835   0.76050   0.23500   0.00000  Uiso   1.00
C344   C     0.65165   0.73951   0.26500   0.00000  Uiso   1.00
C345   C     0.51492   0.54735   0.29395   0.00000  Uiso   1.00
C346   C     0.48494   0.95268   0.20619   0.00000  Uiso   1.00
C347   C     0.51219   0.59285   0.29548   0.00000  Uiso   1.00
C348   C     0.48769   0.90718   0.20459   0.00000  Uiso   1.00
C349   C     0.50615   0.61689   0.25191   0.00000  Uiso   1.00
C350   C     0.49385   0.88311   0.24813   0.00000  Uiso   1.00
C351   C     0.51046   0.59470   0.20898   0.00000  Uiso   1.00
C352   C     0.48967   0.90526   0.29112   0.00000  Uiso   1.00
C353   C     0.51603   0.54918   0.20847   0.00000  Uiso   1.00
C354   C     0.48407   0.95076   0.29171   0.00000  Uiso   1.00
C355   C     0.50746   0.52428   0.25027   0.00000  Uiso   1.00
C356   C     0.49253   0.97571   0.24990   0.00000  Uiso   1.00
Cu357  Cu    0.50000   0.75000   0.29822   0.00000  Uiso   1.00
Cu358  Cu    0.50000   0.75001   0.20179   0.00000  Uiso   1.00
H359   H     0.52260   0.53027   0.32754   0.00000  Uiso   1.00
H360   H     0.47723   0.96979   0.17262   0.00000  Uiso   1.00
H361   H     0.51345   0.61320   0.17620   0.00000  Uiso   1.00
H362   H     0.48686   0.88673   0.32391   0.00000  Uiso   1.00
H363   H     0.55550   0.80202   0.13312   0.00000  Uiso   1.00
H364   H     0.44451   0.69797   0.36690   0.00000  Uiso   1.00
H365   H     0.42816   0.71744   0.02710   0.00000  Uiso   1.00
H366   H     0.57182   0.78261   0.47289   0.00000  Uiso   1.00
N367   N     0.50000   0.75001   0.12935   0.00000  Uiso   1.00
N368   N     0.50000   0.74999   0.37066   0.00000  Uiso   1.00
O369   O     0.50000   0.68573   0.29072   0.00000  Uiso   1.00
O370   O     0.50000   0.81428   0.20929   0.00000  Uiso   1.00
O371   O     0.50000   0.68573   0.20928   0.00000  Uiso   1.00
O372   O     0.50000   0.81427   0.29072   0.00000  Uiso   1.00
O373   O     0.42495   0.75000   0.28132   0.00000  Uiso   1.00
O374   O     0.57505   0.75001   0.21868   0.00000  Uiso   1.00
O375   O     0.42495   0.75000   0.19989   0.00000  Uiso   1.00
O376   O     0.57505   0.75000   0.30012   0.00000  Uiso   1.00
S377   S     0.66481   0.80917   0.20180   0.00000  Uiso   1.00
O378   O     0.64908   0.79694   0.15003   0.00000  Uiso   1.00
O379   O     0.62220   0.83222   0.22097   0.00000  Uiso   1.00
O380   O     0.38309   0.84417   0.20494   0.00000  Uiso   1.00
H381   H     0.37156   0.86987   0.18517   0.00000  Uiso   1.00
S382   S     0.33519   0.69085   0.29822   0.00000  Uiso   1.00
O383   O     0.37778   0.66778   0.27902   0.00000  Uiso   1.00
O384   O     0.35095   0.70310   0.34998   0.00000  Uiso   1.00
O385   O     0.61690   0.65587   0.29512   0.00000  Uiso   1.00
H386   H     0.62839   0.63022   0.31499   0.00000  Uiso   1.00
Cl387  Cl    0.51704   0.61658   0.35344   0.00000  Uiso   1.00
Cl388  Cl    0.48280   0.88349   0.14662   0.00000  Uiso   1.00
S389   S     0.55000   0.52989   0.16224   0.00000  Uiso   1.00
O390   O     0.51326   0.52098   0.11734   0.00000  Uiso   1.00
O391   O     0.58901   0.56499   0.15130   0.00000  Uiso   1.00
O392   O     0.58097   0.98399   0.17947   0.00000  Uiso   1.00
H393   H     0.59328   0.97298   0.14994   0.00000  Uiso   1.00
S394   S     0.45049   0.96996   0.33829   0.00000  Uiso   1.00
O395   O     0.42214   0.51060   0.32278   0.00000  Uiso   1.00
O396   O     0.41227   0.93453   0.35013   0.00000  Uiso   1.00
O397   O     0.49206   0.98068   0.38804   0.00000  Uiso   1.00
H398   H     0.47118   0.99315   0.41131   0.00000  Uiso   1.00
Cl399  Cl    0.56418   0.83058   0.04131   0.00000  Uiso   1.00
Cl400  Cl    0.43587   0.66942   0.45872   0.00000  Uiso   1.00
S401   S     0.40813   0.69485   0.11501   0.00000  Uiso   1.00
O402   O     0.36535   0.72606   0.11466   0.00000  Uiso   1.00
O403   O     0.39193   0.66067   0.07671   0.00000  Uiso   1.00
O404   O     0.41423   0.66779   0.16752   0.00000  Uiso   1.00
H405   H     0.37903   0.65698   0.17186   0.00000  Uiso   1.00
S406   S     0.59186   0.80516   0.38498   0.00000  Uiso   1.00
O407   O     0.60804   0.83937   0.42326   0.00000  Uiso   1.00
O408   O     0.63464   0.77396   0.38536   0.00000  Uiso   1.00
O409   O     0.58577   0.83221   0.33246   0.00000  Uiso   1.00
H410   H     0.62098   0.84303   0.32813   0.00000  Uiso   1.00
C411   C     0.83484   0.66505   0.25053   0.00000  Uiso   1.00
C412   C     0.83183   0.83495   0.24948   0.00000  Uiso   1.00
C413   C     0.86566   0.78202   0.05927   0.00000  Uiso   1.00
C414   C     0.80102   0.71799   0.44074   0.00000  Uiso   1.00
C415   C     0.86563   0.77885   0.10963   0.00000  Uiso   1.00
C416   C     0.80104   0.72115   0.39038   0.00000  Uiso   1.00
C417   C     0.79647   0.72593   0.09881   0.00000  Uiso   1.00
C418   C     0.87019   0.77409   0.40119   0.00000  Uiso   1.00
C419   C     0.79550   0.72947   0.04898   0.00000  Uiso   1.00
C420   C     0.87116   0.77056   0.45102   0.00000  Uiso   1.00
C421   C     0.83324   0.75243   0.02739   0.00000  Uiso   1.00
C422   C     0.83343   0.74759   0.47261   0.00000  Uiso   1.00
C423   C     0.73499   0.75107   0.23826   0.00000  Uiso   1.00
C424   C     0.93167   0.74894   0.26174   0.00000  Uiso   1.00
C425   C     0.68168   0.76050   0.23500   0.00000  Uiso   1.00
C426   C     0.98498   0.73951   0.26500   0.00000  Uiso   1.00
C427   C     0.84825   0.54735   0.29395   0.00000  Uiso   1.00
C428   C     0.81827   0.95268   0.20619   0.00000  Uiso   1.00
C429   C     0.84552   0.59285   0.29548   0.00000  Uiso   1.00
C430   C     0.82103   0.90718   0.20459   0.00000  Uiso   1.00
C431   C     0.83948   0.61689   0.25191   0.00000  Uiso   1.00
C432   C     0.82718   0.88311   0.24813   0.00000  Uiso   1.00
C433   C     0.84379   0.59470   0.20898   0.00000  Uiso   1.00
C434   C     0.82300   0.90526   0.29112   0.00000  Uiso   1.00
C435   C     0.84936   0.54918   0.20847   0.00000  Uiso   1.00
C436   C     0.81740   0.95076   0.29171   0.00000  Uiso   1.00
C437   C     0.84079   0.52428   0.25027   0.00000  Uiso   1.00
C438   C     0.82586   0.97571   0.24990   0.00000  Uiso   1.00
Cu439  Cu    0.83333   0.75000   0.29822   0.00000  Uiso   1.00
Cu440  Cu    0.83333   0.75001   0.20179   0.00000  Uiso   1.00
H441   H     0.85594   0.53027   0.32754   0.00000  Uiso   1.00
H442   H     0.81057   0.96979   0.17262   0.00000  Uiso   1.00
H443   H     0.84678   0.61320   0.17620   0.00000  Uiso   1.00
H444   H     0.82020   0.88673   0.32391   0.00000  Uiso   1.00
H445   H     0.88884   0.80202   0.13312   0.00000  Uiso   1.00
H446   H     0.77785   0.69797   0.36690   0.00000  Uiso   1.00
H447   H     0.76150   0.71744   0.02710   0.00000  Uiso   1.00
H448   H     0.90516   0.78261   0.47289   0.00000  Uiso   1.00
N449   N     0.83333   0.75001   0.12935   0.00000  Uiso   1.00
N450   N     0.83333   0.74999   0.37066   0.00000  Uiso   1.00
O451   O     0.83334   0.68573   0.29072   0.00000  Uiso   1.00
O452   O     0.83333   0.81428   0.20929   0.00000  Uiso   1.00
O453   O     0.83334   0.68573   0.20928   0.00000  Uiso   1.00
O454   O     0.83333   0.81427   0.29072   0.00000  Uiso   1.00
O455   O     0.75828   0.75000   0.28132   0.00000  Uiso   1.00
O456   O     0.90839   0.75001   0.21868   0.00000  Uiso   1.00
O457   O     0.75828   0.75000   0.19989   0.00000  Uiso   1.00
O458   O     0.90839   0.75000   0.30012   0.00000  Uiso   1.00
S459   S     0.99814   0.80917   0.20180   0.00000  Uiso   1.00
O460   O     0.98241   0.79694   0.15003   0.00000  Uiso   1.00
O461   O     0.95553   0.83222   0.22097   0.00000  Uiso   1.00
O462   O     0.71642   0.84417   0.20494   0.00000  Uiso   1.00
H463   H     0.70490   0.86987   0.18517   0.00000  Uiso   1.00
S464   S     0.66852   0.69085   0.29822   0.00000  Uiso   1.00
O465   O     0.71111   0.66778   0.27902   0.00000  Uiso   1.00
O466   O     0.68429   0.70310   0.34998   0.00000  Uiso   1.00
O467   O     0.95024   0.65587   0.29512   0.00000  Uiso   1.00
H468   H     0.96172   0.63022   0.31499   0.00000  Uiso   1.00
Cl469  Cl    0.85038   0.61658   0.35344   0.00000  Uiso   1.00
Cl470  Cl    0.81613   0.88349   0.14662   0.00000  Uiso   1.00
S471   S     0.88333   0.52989   0.16224   0.00000  Uiso   1.00
O472   O     0.84659   0.52098   0.11734   0.00000  Uiso   1.00
O473   O     0.92235   0.56499   0.15130   0.00000  Uiso   1.00
O474   O     0.91430   0.98399   0.17947   0.00000  Uiso   1.00
H475   H     0.92661   0.97298   0.14994   0.00000  Uiso   1.00
S476   S     0.78382   0.96996   0.33829   0.00000  Uiso   1.00
O477   O     0.75547   0.51060   0.32278   0.00000  Uiso   1.00
O478   O     0.74560   0.93453   0.35013   0.00000  Uiso   1.00
O479   O     0.82539   0.98068   0.38804   0.00000  Uiso   1.00
H480   H     0.80451   0.99315   0.41131   0.00000  Uiso   1.00
Cl481  Cl    0.89751   0.83058   0.04131   0.00000  Uiso   1.00
Cl482  Cl    0.76920   0.66942   0.45872   0.00000  Uiso   1.00
S483   S     0.74146   0.69485   0.11501   0.00000  Uiso   1.00
O484   O     0.69869   0.72606   0.11466   0.00000  Uiso   1.00
O485   O     0.72527   0.66067   0.07671   0.00000  Uiso   1.00
O486   O     0.74757   0.66779   0.16752   0.00000  Uiso   1.00
H487   H     0.71236   0.65698   0.17186   0.00000  Uiso   1.00
S488   S     0.92520   0.80516   0.38498   0.00000  Uiso   1.00
O489   O     0.94137   0.83937   0.42326   0.00000  Uiso   1.00
O490   O     0.96798   0.77396   0.38536   0.00000  Uiso   1.00
O491   O     0.91911   0.83221   0.33246   0.00000  Uiso   1.00
H492   H     0.95432   0.84303   0.32813   0.00000  Uiso   1.00
C493   C     0.16818   0.16505   0.75053   0.00000  Uiso   1.00
C494   C     0.16516   0.33495   0.74948   0.00000  Uiso   1.00
C495   C     0.19900   0.28202   0.55927   0.00000  Uiso   1.00
C496   C     0.13435   0.21799   0.94074   0.00000  Uiso   1.00
C497   C     0.19897   0.27885   0.60963   0.00000  Uiso   1.00
C498   C     0.13438   0.22115   0.89038   0.00000  Uiso   1.00
C499   C     0.12981   0.22593   0.59881   0.00000  Uiso   1.00
C500   C     0.20352   0.27409   0.90119   0.00000  Uiso   1.00
C501   C     0.12883   0.22947   0.54898   0.00000  Uiso   1.00
C502   C     0.20449   0.27056   0.95102   0.00000  Uiso   1.00
C503   C     0.16657   0.25243   0.52739   0.00000  Uiso   1.00
C504   C     0.16677   0.24759   0.97261   0.00000  Uiso   1.00
C505   C     0.06832   0.25107   0.73826   0.00000  Uiso   1.00
C506   C     0.26501   0.24894   0.76174   0.00000  Uiso   1.00
C507   C     0.01502   0.26050   0.73500   0.00000  Uiso   1.00
C508   C     0.31832   0.23951   0.76500   0.00000  Uiso   1.00
C509   C     0.18159   0.04735   0.79395   0.00000  Uiso   1.00
C510   C     0.15160   0.45268   0.70619   0.00000  Uiso   1.00
C511   C     0.17885   0.09285   0.79548   0.00000  Uiso   1.00
C512   C     0.15436   0.40718   0.70459   0.00000  Uiso   1.00
C513   C     0.17282   0.11689   0.75191   0.00000  Uiso   1.00
C514   C     0.16052   0.38311   0.74813   0.00000  Uiso   1.00
C515   C     0.17713   0.09470   0.70898   0.00000  Uiso   1.00
C516   C     0.15634   0.40526   0.79112   0.00000  Uiso   1.00
C517   C     0.18269   0.04918   0.70847   0.00000  Uiso   1.00
C518   C     0.15073   0.45076   0.79171   0.00000  Uiso   1.00
C519   C     0.17413   0.02428   0.75027   0.00000  Uiso   1.00
C520   C     0.15919   0.47571   0.74990   0.00000  Uiso   1.00
Cu521  Cu    0.16667   0.25000   0.79822   0.00000  Uiso   1.00
Cu522  Cu    0.16667   0.25001   0.70179   0.00000  Uiso   1.00
H523   H     0.18927   0.03027   0.82754   0.00000  Uiso   1.00
H524   H     0.14390   0.46979   0.67262   0.00000  Uiso   1.00
H525   H     0.18011   0.11320   0.67620   0.00000  Uiso   1.00
H526   H     0.15353   0.38673   0.82391   0.00000  Uiso   1.00
H527   H     0.22217   0.30202   0.63312   0.00000  Uiso   1.00
H528   H     0.11118   0.19797   0.86690   0.00000  Uiso   1.00
H529   H     0.09483   0.21744   0.52710   0.00000  Uiso   1.00
H530   H     0.23849   0.28261   0.97289   0.00000  Uiso   1.00
N531   N     0.16667   0.25001   0.62935   0.00000  Uiso   1.00
N532   N     0.16667   0.24999   0.87066   0.00000  Uiso   1.00
O533   O     0.16667   0.18573   0.79072   0.00000  Uiso   1.00
O534   O     0.16666   0.31428   0.70929   0.00000  Uiso   1.00
O535   O     0.16667   0.18573   0.70928   0.00000  Uiso   1.00
O536   O     0.16666   0.31427   0.79072   0.00000  Uiso   1.00
O537   O     0.09161   0.25000   0.78132   0.00000  Uiso   1.00
O538   O     0.24172   0.25001   0.71868   0.00000  Uiso   1.00
O539   O     0.09161   0.25000   0.69989   0.00000  Uiso   1.00
O540   O     0.24172   0.25000   0.80012   0.00000  Uiso   1.00
S541   S     0.33148   0.30917   0.70180   0.00000  Uiso   1.00
O542   O     0.31575   0.29694   0.65003   0.00000  Uiso   1.00
O543   O     0.28887   0.33222   0.72097   0.00000  Uiso   1.00
O544   O     0.04975   0.34417   0.70494   0.00000  Uiso   1.00
H545   H     0.03823   0.36987   0.68517   0.00000  Uiso   1.00
S546   S     0.00185   0.19085   0.79822   0.00000  Uiso   1.00
O547   O     0.04444   0.16778   0.77902   0.00000  Uiso   1.00
O548   O     0.01762   0.20310   0.84998   0.00000  Uiso   1.00
O549   O     0.28357   0.15587   0.79512   0.00000  Uiso   1.00
H550   H     0.29505   0.13022   0.81499   0.00000  Uiso   1.00
Cl551  Cl    0.18371   0.11658   0.85344   0.00000  Uiso   1.00
Cl552  Cl    0.14947   0.38349   0.64662   0.00000  Uiso   1.00
S553   S     0.21666   0.02989   0.66224   0.00000  Uiso   1.00
O554   O     0.17992   0.02098   0.61734   0.00000  Uiso   1.00
O555   O     0.25568   0.06499   0.65130   0.00000  Uiso   1.00
O556   O     0.24763   0.48399   0.67947   0.00000  Uiso   1.00
H557   H     0.25994   0.47298   0.64994   0.00000  Uiso   1.00
S558   S     0.11715   0.46996   0.83829   0.00000  Uiso   1.00
O559   O     0.08880   0.01060   0.82278   0.00000  Uiso   1.00
O560   O     0.07894   0.43453   0.85013   0.00000  Uiso   1.00
O561   O     0.15872   0.48068   0.88804   0.00000  Uiso   1.00
H562   H     0.13785   0.49315   0.91131   0.00000  Uiso   1.00
Cl563  Cl    0.23084   0.33058   0.54131   0.00000  Uiso   1.00
Cl564  Cl    0.10253   0.16942   0.95872   0.00000  Uiso   1.00
S565   S     0.07479   0.19485   0.61501   0.00000  Uiso   1.00
O566   O     0.03202   0.22606   0.61466   0.00000  Uiso   1.00
O567   O     0.05860   0.16067   0.57671   0.00000  Uiso   1.00
O568   O     0.08090   0.16779   0.66752   0.00000  Uiso   1.00
H569   H     0.04569   0.15698   0.67186   0.00000  Uiso   1.00
S570   S     0.25853   0.30516   0.88498   0.00000  Uiso   1.00
O571   O     0.27471   0.33937   0.92326   0.00000  Uiso   1.00
O572   O     0.30131   0.27396   0.88536   0.00000  Uiso   1.00
O573   O     0.25244   0.33221   0.83246   0.00000  Uiso   1.00
H574   H     0.28765   0.34303   0.82813   0.00000  Uiso   1.00
C575   C     0.50151   0.16505   0.75053   0.00000  Uiso   1.00
C576   C     0.49850   0.33495   0.74948   0.00000  Uiso   1.00
C577   C     0.53233   0.28202   0.55927   0.00000  Uiso   1.00
C578   C     0.46769   0.21799   0.94074   0.00000  Uiso   1.00
C579   C     0.53230   0.27885   0.60963   0.00000  Uiso   1.00
C580   C     0.46771   0.22115   0.89038   0.00000  Uiso   1.00
C581   C     0.46314   0.22593   0.59881   0.00000  Uiso   1.00
C582   C     0.53685   0.27409   0.90119   0.00000  Uiso   1.00
C583   C     0.46217   0.22947   0.54898   0.00000  Uiso   1.00
C584   C     0.53782   0.27056   0.95102   0.00000  Uiso   1.00
C585   C     0.49991   0.25243   0.52739   0.00000  Uiso   1.00
C586   C     0.50010   0.24759   0.97261   0.00000  Uiso   1.00
C587   C     0.40166   0.25107   0.73826   0.00000  Uiso   1.00
C588   C     0.59834   0.24894   0.76174   0.00000  Uiso   1.00
C589   C     0.34835   0.26050   0.73500   0.00000  Uiso   1.00
C590   C     0.65165   0.23951   0.76500   0.00000  Uiso   1.00
C591   C     0.51492   0.04735   0.79395   0.00000  Uiso   1.00
C592   C     0.48494   0.45268   0.70619   0.00000  Uiso   1.00
C593   C     0.51219   0.09285   0.79548   0.00000  Uiso   1.00
C594   C     0.48769   0.40718   0.70459   0.00000  Uiso   1.00
C595   C     0.50615   0.11689   0.75191   0.00000  Uiso   1.00
C596   C     0.49385   0.38311   0.74813   0.00000  Uiso   1.00
C597   C     0.51046   0.09470   0.70898   0.00000  Uiso   1.00
C598   C     0.48967   0.40526   0.79112   0.00000  Uiso   1.00
C599   C     0.51603   0.04918   0.70847   0.00000  Uiso   1.00
C600   C     0.48407   0.45076   0.79171   0.00000  Uiso   1.00
C601   C     0.50746   0.02428   0.75027   0.00000  Uiso   1.00
C602   C     0.49253   0.47571   0.74990   0.00000  Uiso   1.00
Cu603  Cu    0.50000   0.25000   0.79822   0.00000  Uiso   1.00
Cu604  Cu    0.50000   0.25001   0.70179   0.00000  Uiso   1.00
H605   H     0.52260   0.03027   0.82754   0.00000  Uiso   1.00
H606   H     0.47723   0.46979   0.67262   0.00000  Uiso   1.00
H607   H     0.51345   0.11320   0.67620   0.00000  Uiso   1.00
H608   H     0.48686   0.38673   0.82391   0.00000  Uiso   1.00
H609   H     0.55550   0.30202   0.63312   0.00000  Uiso   1.00
H610   H     0.44451   0.19797   0.86690   0.00000  Uiso   1.00
H611   H     0.42816   0.21744   0.52710   0.00000  Uiso   1.00
H612   H     0.57182   0.28261   0.97289   0.00000  Uiso   1.00
N613   N     0.50000   0.25001   0.62935   0.00000  Uiso   1.00
N614   N     0.50000   0.24999   0.87066   0.00000  Uiso   1.00
O615   O     0.50000   0.18573   0.79072   0.00000  Uiso   1.00
O616   O     0.50000   0.31428   0.70929   0.00000  Uiso   1.00
O617   O     0.50000   0.18573   0.70928   0.00000  Uiso   1.00
O618   O     0.50000   0.31427   0.79072   0.00000  Uiso   1.00
O619   O     0.42495   0.25000   0.78132   0.00000  Uiso   1.00
O620   O     0.57505   0.25001   0.71868   0.00000  Uiso   1.00
O621   O     0.42495   0.25000   0.69989   0.00000  Uiso   1.00
O622   O     0.57505   0.25000   0.80012   0.00000  Uiso   1.00
S623   S     0.66481   0.30917   0.70180   0.00000  Uiso   1.00
O624   O     0.64908   0.29694   0.65003   0.00000  Uiso   1.00
O625   O     0.62220   0.33222   0.72097   0.00000  Uiso   1.00
O626   O     0.38309   0.34417   0.70494   0.00000  Uiso   1.00
H627   H     0.37156   0.36987   0.68517   0.00000  Uiso   1.00
S628   S     0.33519   0.19085   0.79822   0.00000  Uiso   1.00
O629   O     0.37778   0.16778   0.77902   0.00000  Uiso   1.00
O630   O     0.35095   0.20310   0.84998   0.00000  Uiso   1.00
O631   O     0.61690   0.15587   0.79512   0.00000  Uiso   1.00
H632   H     0.62839   0.13022   0.81499   0.00000  Uiso   1.00
Cl633  Cl    0.51704   0.11658   0.85344   0.00000  Uiso   1.00
Cl634  Cl    0.48280   0.38349   0.64662   0.00000  Uiso   1.00
S635   S     0.55000   0.02989   0.66224   0.00000  Uiso   1.00
O636   O     0.51326   0.02098   0.61734   0.00000  Uiso   1.00
O637   O     0.58901   0.06499   0.65130   0.00000  Uiso   1.00
O638   O     0.58097   0.48399   0.67947   0.00000  Uiso   1.00
H639   H     0.59328   0.47298   0.64994   0.00000  Uiso   1.00
S640   S     0.45049   0.46996   0.83829   0.00000  Uiso   1.00
O641   O     0.42214   0.01060   0.82278   0.00000  Uiso   1.00
O642   O     0.41227   0.43453   0.85013   0.00000  Uiso   1.00
O643   O     0.49206   0.48068   0.88804   0.00000  Uiso   1.00
H644   H     0.47118   0.49315   0.91131   0.00000  Uiso   1.00
Cl645  Cl    0.56418   0.33058   0.54131   0.00000  Uiso   1.00
Cl646  Cl    0.43587   0.16942   0.95872   0.00000  Uiso   1.00
S647   S     0.40813   0.19485   0.61501   0.00000  Uiso   1.00
O648   O     0.36535   0.22606   0.61466   0.00000  Uiso   1.00
O649   O     0.39193   0.16067   0.57671   0.00000  Uiso   1.00
O650   O     0.41423   0.16779   0.66752   0.00000  Uiso   1.00
H651   H     0.37903   0.15698   0.67186   0.00000  Uiso   1.00
S652   S     0.59186   0.30516   0.88498   0.00000  Uiso   1.00
O653   O     0.60804   0.33937   0.92326   0.00000  Uiso   1.00
O654   O     0.63464   0.27396   0.88536   0.00000  Uiso   1.00
O655   O     0.58577   0.33221   0.83246   0.00000  Uiso   1.00
H656   H     0.62098   0.34303   0.82813   0.00000  Uiso   1.00
C657   C     0.83484   0.16505   0.75053   0.00000  Uiso   1.00
C658   C     0.83183   0.33495   0.74948   0.00000  Uiso   1.00
C659   C     0.86566   0.28202   0.55927   0.00000  Uiso   1.00
C660   C     0.80102   0.21799   0.94074   0.00000  Uiso   1.00
C661   C     0.86563   0.27885   0.60963   0.00000  Uiso   1.00
C662   C     0.80104   0.22115   0.89038   0.00000  Uiso   1.00
C663   C     0.79647   0.22593   0.59881   0.00000  Uiso   1.00
C664   C     0.87019   0.27409   0.90119   0.00000  Uiso   1.00
C665   C     0.79550   0.22947   0.54898   0.00000  Uiso   1.00
C666   C     0.87116   0.27056   0.95102   0.00000  Uiso   1.00
C667   C     0.83324   0.25243   0.52739   0.00000  Uiso   1.00
C668   C     0.83343   0.24759   0.97261   0.00000  Uiso   1.00
C669   C     0.73499   0.25107   0.73826   0.00000  Uiso   1.00
C670   C     0.93167   0.24894   0.76174   0.00000  Uiso   1.00
C671   C     0.68168   0.26050   0.73500   0.00000  Uiso   1.00
C672   C     0.98498   0.23951   0.76500   0.00000  Uiso   1.00
C673   C     0.84825   0.04735   0.79395   0.00000  Uiso   1.00
C674   C     0.81827   0.45268   0.70619   0.00000  Uiso   1.00
C675   C     0.84552   0.09285   0.79548   0.00000  Uiso   1.00
C676   C     0.82103   0.40718   0.70459   0.00000  Uiso   1.00
C677   C     0.83948   0.11689   0.75191   0.00000  Uiso   1.00
C678   C     0.82718   0.38311   0.74813   0.00000  Uiso   1.00
C679   C     0.84379   0.09470   0.70898   0.00000  Uiso   1.00
C680   C     0.82300   0.40526   0.79112   0.00000  Uiso   1.00
C681   C     0.84936   0.04918   0.70847   0.00000  Uiso   1.00
C682   C     0.81740   0.45076   0.79171   0.00000  Uiso   1.00
C683   C     0.84079   0.02428   0.75027   0.00000  Uiso   1.00
C684   C     0.82586   0.47571   0.74990   0.00000  Uiso   1.00
Cu685  Cu    0.83333   0.25000   0.79822   0.00000  Uiso   1.00
Cu686  Cu    0.83333   0.25001   0.70179   0.00000  Uiso   1.00
H687   H     0.85594   0.03027   0.82754   0.00000  Uiso   1.00
H688   H     0.81057   0.46979   0.67262   0.00000  Uiso   1.00
H689   H     0.84678   0.11320   0.67620   0.00000  Uiso   1.00
H690   H     0.82020   0.38673   0.82391   0.00000  Uiso   1.00
H691   H     0.88884   0.30202   0.63312   0.00000  Uiso   1.00
H692   H     0.77785   0.19797   0.86690   0.00000  Uiso   1.00
H693   H     0.76150   0.21744   0.52710   0.00000  Uiso   1.00
H694   H     0.90516   0.28261   0.97289   0.00000  Uiso   1.00
N695   N     0.83333   0.25001   0.62935   0.00000  Uiso   1.00
N696   N     0.83333   0.24999   0.87066   0.00000  Uiso   1.00
O697   O     0.83334   0.18573   0.79072   0.00000  Uiso   1.00
O698   O     0.83333   0.31428   0.70929   0.00000  Uiso   1.00
O699   O     0.83334   0.18573   0.70928   0.00000  Uiso   1.00
O700   O     0.83333   0.31427   0.79072   0.00000  Uiso   1.00
O701   O     0.75828   0.25000   0.78132   0.00000  Uiso   1.00
O702   O     0.90839   0.25001   0.71868   0.00000  Uiso   1.00
O703   O     0.75828   0.25000   0.69989   0.00000  Uiso   1.00
O704   O     0.90839   0.25000   0.80012   0.00000  Uiso   1.00
S705   S     0.99814   0.30917   0.70180   0.00000  Uiso   1.00
O706   O     0.98241   0.29694   0.65003   0.00000  Uiso   1.00
O707   O     0.95553   0.33222   0.72097   0.00000  Uiso   1.00
O708   O     0.71642   0.34417   0.70494   0.00000  Uiso   1.00
H709   H     0.70490   0.36987   0.68517   0.00000  Uiso   1.00
S710   S     0.66852   0.19085   0.79822   0.00000  Uiso   1.00
O711   O     0.71111   0.16778   0.77902   0.00000  Uiso   1.00
O712   O     0.68429   0.20310   0.84998   0.00000  Uiso   1.00
O713   O     0.95024   0.15587   0.79512   0.00000  Uiso   1.00
H714   H     0.96172   0.13022   0.81499   0.00000  Uiso   1.00
Cl715  Cl    0.85038   0.11658   0.85344   0.00000  Uiso   1.00
Cl716  Cl    0.81613   0.38349   0.64662   0.00000  Uiso   1.00
S717   S     0.88333   0.02989   0.66224   0.00000  Uiso   1.00
O718   O     0.84659   0.02098   0.61734   0.00000  Uiso   1.00
O719   O     0.92235   0.06499   0.65130   0.00000  Uiso   1.00
O720   O     0.91430   0.48399   0.67947   0.00000  Uiso   1.00
H721   H     0.92661   0.47298   0.64994   0.00000  Uiso   1.00
S722   S     0.78382   0.46996   0.83829   0.00000  Uiso   1.00
O723   O     0.75547   0.01060   0.82278   0.00000  Uiso   1.00
O724   O     0.74560   0.43453   0.85013   0.00000  Uiso   1.00
O725   O     0.82539   0.48068   0.88804   0.00000  Uiso   1.00
H726   H     0.80451   0.49315   0.91131   0.00000  Uiso   1.00
Cl727  Cl    0.89751   0.33058   0.54131   0.00000  Uiso   1.00
Cl728  Cl    0.76920   0.16942   0.95872   0.00000  Uiso   1.00
S729   S     0.74146   0.19485   0.61501   0.00000  Uiso   1.00
O730   O     0.69869   0.22606   0.61466   0.00000  Uiso   1.00
O731   O     0.72527   0.16067   0.57671   0.00000  Uiso   1.00
O732   O     0.74757   0.16779   0.66752   0.00000  Uiso   1.00
H733   H     0.71236   0.15698   0.67186   0.00000  Uiso   1.00
S734   S     0.92520   0.30516   0.88498   0.00000  Uiso   1.00
O735   O     0.94137   0.33937   0.92326   0.00000  Uiso   1.00
O736   O     0.96798   0.27396   0.88536   0.00000  Uiso   1.00
O737   O     0.91911   0.33221   0.83246   0.00000  Uiso   1.00
H738   H     0.95432   0.34303   0.82813   0.00000  Uiso   1.00
C739   C     0.16818   0.66505   0.75053   0.00000  Uiso   1.00
C740   C     0.16516   0.83495   0.74948   0.00000  Uiso   1.00
C741   C     0.19900   0.78202   0.55927   0.00000  Uiso   1.00
C742   C     0.13435   0.71799   0.94074   0.00000  Uiso   1.00
C743   C     0.19897   0.77885   0.60963   0.00000  Uiso   1.00
C744   C     0.13438   0.72115   0.89038   0.00000  Uiso   1.00
C745   C     0.12981   0.72593   0.59881   0.00000  Uiso   1.00
C746   C     0.20352   0.77409   0.90119   0.00000  Uiso   1.00
C747   C     0.12883   0.72947   0.54898   0.00000  Uiso   1.00
C748   C     0.20449   0.77056   0.95102   0.00000  Uiso   1.00
C749   C     0.16657   0.75243   0.52739   0.00000  Uiso   1.00
C750   C     0.16677   0.74759   0.97261   0.00000  Uiso   1.00
C751   C     0.06832   0.75107   0.73826   0.00000  Uiso   1.00
C752   C     0.26501   0.74894   0.76174   0.00000  Uiso   1.00
C753   C     0.01502   0.76050   0.73500   0.00000  Uiso   1.00
C754   C     0.31832   0.73951   0.76500   0.00000  Uiso   1.00
C755   C     0.18159   0.54735   0.79395   0.00000  Uiso   1.00
C756   C     0.15160   0.95268   0.70619   0.00000  Uiso   1.00
C757   C     0.17885   0.59285   0.79548   0.00000  Uiso   1.00
C758   C     0.15436   0.90718   0.70459   0.00000  Uiso   1.00
C759   C     0.17282   0.61689   0.75191   0.00000  Uiso   1.00
C760   C     0.16052   0.88311   0.74813   0.00000  Uiso   1.00
C761   C     0.17713   0.59470   0.70898   0.00000  Uiso   1.00
C762   C     0.15634   0.90526   0.79112   0.00000  Uiso   1.00
C763   C     0.18269   0.54918   0.70847   0.00000  Uiso   1.00
C764   C     0.15073   0.95076   0.79171   0.00000  Uiso   1.00
C765   C     0.17413   0.52428   0.75027   0.00000  Uiso   1.00
C766   C     0.15919   0.97571   0.74990   0.00000  Uiso   1.00
Cu767  Cu    0.16667   0.75000   0.79822   0.00000  Uiso   1.00
Cu768  Cu    0.16667   0.75001   0.70179   0.00000  Uiso   1.00
H769   H     0.18927   0.53027   0.82754   0.00000  Uiso   1.00
H770   H     0.14390   0.96979   0.67262   0.00000  Uiso   1.00
H771   H     0.18011   0.61320   0.67620   0.00000  Uiso   1.00
H772   H     0.15353   0.88673   0.82391   0.00000  Uiso   1.00
H773   H     0.22217   0.80202   0.63312   0.00000  Uiso   1.00
H774   H     0.11118   0.69797   0.86690   0.00000  Uiso   1.00
H775   H     0.09483   0.71744   0.52710   0.00000  Uiso   1.00
H776   H     0.23849   0.78261   0.97289   0.00000  Uiso   1.00
N777   N     0.16667   0.75001   0.62935   0.00000  Uiso   1.00
N778   N     0.16667   0.74999   0.87066   0.00000  Uiso   1.00
O779   O     0.16667   0.68573   0.79072   0.00000  Uiso   1.00
O780   O     0.16666   0.81428   0.70929   0.00000  Uiso   1.00
O781   O     0.16667   0.68573   0.70928   0.00000  Uiso   1.00
O782   O     0.16666   0.81427   0.79072   0.00000  Uiso   1.00
O783   O     0.09161   0.75000   0.78132   0.00000  Uiso   1.00
O784   O     0.24172   0.75001   0.71868   0.00000  Uiso   1.00
O785   O     0.09161   0.75000   0.69989   0.00000  Uiso   1.00
O786   O     0.24172   0.75000   0.80012   0.00000  Uiso   1.00
S787   S     0.33148   0.80917   0.70180   0.00000  Uiso   1.00
O788   O     0.31575   0.79694   0.65003   0.00000  Uiso   1.00
O789   O     0.28887   0.83222   0.72097   0.00000  Uiso   1.00
O790   O     0.04975   0.84417   0.70494   0.00000  Uiso   1.00
H791   H     0.03823   0.86987   0.68517   0.00000  Uiso   1.00
S792   S     0.00185   0.69085   0.79822   0.00000  Uiso   1.00
O793   O     0.04444   0.66778   0.77902   0.00000  Uiso   1.00
O794   O     0.01762   0.70310   0.84998   0.00000  Uiso   1.00
O795   O     0.28357   0.65587   0.79512   0.00000  Uiso   1.00
H796   H     0.29505   0.63022   0.81499   0.00000  Uiso   1.00
Cl797  Cl    0.18371   0.61658   0.85344   0.00000  Uiso   1.00
Cl798  Cl    0.14947   0.88349   0.64662   0.00000  Uiso   1.00
S799   S     0.21666   0.52989   0.66224   0.00000  Uiso   1.00
O800   O     0.17992   0.52098   0.61734   0.00000  Uiso   1.00
O801   O     0.25568   0.56499   0.65130   0.00000  Uiso   1.00
O802   O     0.24763   0.98399   0.67947   0.00000  Uiso   1.00
H803   H     0.25994   0.97298   0.64994   0.00000  Uiso   1.00
S804   S     0.11715   0.96996   0.83829   0.00000  Uiso   1.00
O805   O     0.08880   0.51060   0.82278   0.00000  Uiso   1.00
O806   O     0.07894   0.93453   0.85013   0.00000  Uiso   1.00
O807   O     0.15872   0.98068   0.88804   0.00000  Uiso   1.00
H808   H     0.13785   0.99315   0.91131   0.00000  Uiso   1.00
Cl809  Cl    0.23084   0.83058   0.54131   0.00000  Uiso   1.00
Cl810  Cl    0.10253   0.66942   0.95872   0.00000  Uiso   1.00
S811   S     0.07479   0.69485   0.61501   0.00000  Uiso   1.00
O812   O     0.03202   0.72606   0.61466   0.00000  Uiso   1.00
O813   O     0.05860   0.66067   0.57671   0.00000  Uiso   1.00
O814   O     0.08090   0.66779   0.66752   0.00000  Uiso   1.00
H815   H     0.04569   0.65698   0.67186   0.00000  Uiso   1.00
S816   S     0.25853   0.80516   0.88498   0.00000  Uiso   1.00
O817   O     0.27471   0.83937   0.92326   0.00000  Uiso   1.00
O818   O     0.30131   0.77396   0.88536   0.00000  Uiso   1.00
O819   O     0.25244   0.83221   0.83246   0.00000  Uiso   1.00
H820   H     0.28765   0.84303   0.82813   0.00000  Uiso   1.00
C821   C     0.50151   0.66505   0.75053   0.00000  Uiso   1.00
C822   C     0.49850   0.83495   0.74948   0.00000  Uiso   1.00
C823   C     0.53233   0.78202   0.55927   0.00000  Uiso   1.00
C824   C     0.46769   0.71799   0.94074   0.00000  Uiso   1.00
C825   C     0.53230   0.77885   0.60963   0.00000  Uiso   1.00
C826   C     0.46771   0.72115   0.89038   0.00000  Uiso   1.00
C827   C     0.46314   0.72593   0.59881   0.00000  Uiso   1.00
C828   C     0.53685   0.77409   0.90119   0.00000  Uiso   1.00
C829   C     0.46217   0.72947   0.54898   0.00000  Uiso   1.00
C830   C     0.53782   0.77056   0.95102   0.00000  Uiso   1.00
C831   C     0.49991   0.75243   0.52739   0.00000  Uiso   1.00
C832   C     0.50010   0.74759   0.97261   0.00000  Uiso   1.00
C833   C     0.40166   0.75107   0.73826   0.00000  Uiso   1.00
C834   C     0.59834   0.74894   0.76174   0.00000  Uiso   1.00
C835   C     0.34835   0.76050   0.73500   0.00000  Uiso   1.00
C836   C     0.65165   0.73951   0.76500   0.00000  Uiso   1.00
C837   C     0.51492   0.54735   0.79395   0.00000  Uiso   1.00
C838   C     0.48494   0.95268   0.70619   0.00000  Uiso   1.00
C839   C     0.51219   0.59285   0.79548   0.00000  Uiso   1.00
C840   C     0.48769   0.90718   0.70459   0.00000  Uiso   1.00
C841   C     0.50615   0.61689   0.75191   0.00000  Uiso   1.00
C842   C     0.49385   0.88311   0.74813   0.00000  Uiso   1.00
C843   C     0.51046   0.59470   0.70898   0.00000  Uiso   1.00
C844   C     0.48967   0.90526   0.79112   0.00000  Uiso   1.00
C845   C     0.51603   0.54918   0.70847   0.00000  Uiso   1.00
C846   C     0.48407   0.95076   0.79171   0.00000  Uiso   1.00
C847   C     0.50746   0.52428   0.75027   0.00000  Uiso   1.00
C848   C     0.49253   0.97571   0.74990   0.00000  Uiso   1.00
Cu849  Cu    0.50000   0.75000   0.79822   0.00000  Uiso   1.00
Cu850  Cu    0.50000   0.75001   0.70179   0.00000  Uiso   1.00
H851   H     0.52260   0.53027   0.82754   0.00000  Uiso   1.00
H852   H     0.47723   0.96979   0.67262   0.00000  Uiso   1.00
H853   H     0.51345   0.61320   0.67620   0.00000  Uiso   1.00
H854   H     0.48686   0.88673   0.82391   0.00000  Uiso   1.00
H855   H     0.55550   0.80202   0.63312   0.00000  Uiso   1.00
H856   H     0.44451   0.69797   0.86690   0.00000  Uiso   1.00
H857   H     0.42816   0.71744   0.52710   0.00000  Uiso   1.00
H858   H     0.57182   0.78261   0.97289   0.00000  Uiso   1.00
N859   N     0.50000   0.75001   0.62935   0.00000  Uiso   1.00
N860   N     0.50000   0.74999   0.87066   0.00000  Uiso   1.00
O861   O     0.50000   0.68573   0.79072   0.00000  Uiso   1.00
O862   O     0.50000   0.81428   0.70929   0.00000  Uiso   1.00
O863   O     0.50000   0.68573   0.70928   0.00000  Uiso   1.00
O864   O     0.50000   0.81427   0.79072   0.00000  Uiso   1.00
O865   O     0.42495   0.75000   0.78132   0.00000  Uiso   1.00
O866   O     0.57505   0.75001   0.71868   0.00000  Uiso   1.00
O867   O     0.42495   0.75000   0.69989   0.00000  Uiso   1.00
O868   O     0.57505   0.75000   0.80012   0.00000  Uiso   1.00
S869   S     0.66481   0.80917   0.70180   0.00000  Uiso   1.00
O870   O     0.64908   0.79694   0.65003   0.00000  Uiso   1.00
O871   O     0.62220   0.83222   0.72097   0.00000  Uiso   1.00
O872   O     0.38309   0.84417   0.70494   0.00000  Uiso   1.00
H873   H     0.37156   0.86987   0.68517   0.00000  Uiso   1.00
S874   S     0.33519   0.69085   0.79822   0.00000  Uiso   1.00
O875   O     0.37778   0.66778   0.77902   0.00000  Uiso   1.00
O876   O     0.35095   0.70310   0.84998   0.00000  Uiso   1.00
O877   O     0.61690   0.65587   0.79512   0.00000  Uiso   1.00
H878   H     0.62839   0.63022   0.81499   0.00000  Uiso   1.00
Cl879  Cl    0.51704   0.61658   0.85344   0.00000  Uiso   1.00
Cl880  Cl    0.48280   0.88349   0.64662   0.00000  Uiso   1.00
S881   S     0.55000   0.52989   0.66224   0.00000  Uiso   1.00
O882   O     0.51326   0.52098   0.61734   0.00000  Uiso   1.00
O883   O     0.58901   0.56499   0.65130   0.00000  Uiso   1.00
O884   O     0.58097   0.98399   0.67947   0.00000  Uiso   1.00
H885   H     0.59328   0.97298   0.64994   0.00000  Uiso   1.00
S886   S     0.45049   0.96996   0.83829   0.00000  Uiso   1.00
O887   O     0.42214   0.51060   0.82278   0.00000  Uiso   1.00
O888   O     0.41227   0.93453   0.85013   0.00000  Uiso   1.00
O889   O     0.49206   0.98068   0.88804   0.00000  Uiso   1.00
H890   H     0.47118   0.99315   0.91131   0.00000  Uiso   1.00
Cl891  Cl    0.56418   0.83058   0.54131   0.00000  Uiso   1.00
Cl892  Cl    0.43587   0.66942   0.95872   0.00000  Uiso   1.00
S893   S     0.40813   0.69485   0.61501   0.00000  Uiso   1.00
O894   O     0.36535   0.72606   0.61466   0.00000  Uiso   1.00
O895   O     0.39193   0.66067   0.57671   0.00000  Uiso   1.00
O896   O     0.41423   0.66779   0.66752   0.00000  Uiso   1.00
H897   H     0.37903   0.65698   0.67186   0.00000  Uiso   1.00
S898   S     0.59186   0.80516   0.88498   0.00000  Uiso   1.00
O899   O     0.60804   0.83937   0.92326   0.00000  Uiso   1.00
O900   O     0.63464   0.77396   0.88536   0.00000  Uiso   1.00
O901   O     0.58577   0.83221   0.83246   0.00000  Uiso   1.00
H902   H     0.62098   0.84303   0.82813   0.00000  Uiso   1.00
C903   C     0.83484   0.66505   0.75053   0.00000  Uiso   1.00
C904   C     0.83183   0.83495   0.74948   0.00000  Uiso   1.00
C905   C     0.86566   0.78202   0.55927   0.00000  Uiso   1.00
C906   C     0.80102   0.71799   0.94074   0.00000  Uiso   1.00
C907   C     0.86563   0.77885   0.60963   0.00000  Uiso   1.00
C908   C     0.80104   0.72115   0.89038   0.00000  Uiso   1.00
C909   C     0.79647   0.72593   0.59881   0.00000  Uiso   1.00
C910   C     0.87019   0.77409   0.90119   0.00000  Uiso   1.00
C911   C     0.79550   0.72947   0.54898   0.00000  Uiso   1.00
C912   C     0.87116   0.77056   0.95102   0.00000  Uiso   1.00
C913   C     0.83324   0.75243   0.52739   0.00000  Uiso   1.00
C914   C     0.83343   0.74759   0.97261   0.00000  Uiso   1.00
C915   C     0.73499   0.75107   0.73826   0.00000  Uiso   1.00
C916   C     0.93167   0.74894   0.76174   0.00000  Uiso   1.00
C917   C     0.68168   0.76050   0.73500   0.00000  Uiso   1.00
C918   C     0.98498   0.73951   0.76500   0.00000  Uiso   1.00
C919   C     0.84825   0.54735   0.79395   0.00000  Uiso   1.00
C920   C     0.81827   0.95268   0.70619   0.00000  Uiso   1.00
C921   C     0.84552   0.59285   0.79548   0.00000  Uiso   1.00
C922   C     0.82103   0.90718   0.70459   0.00000  Uiso   1.00
C923   C     0.83948   0.61689   0.75191   0.00000  Uiso   1.00
C924   C     0.82718   0.88311   0.74813   0.00000  Uiso   1.00
C925   C     0.84379   0.59470   0.70898   0.00000  Uiso   1.00
C926   C     0.82300   0.90526   0.79112   0.00000  Uiso   1.00
C927   C     0.84936   0.54918   0.70847   0.00000  Uiso   1.00
C928   C     0.81740   0.95076   0.79171   0.00000  Uiso   1.00
C929   C     0.84079   0.52428   0.75027   0.00000  Uiso   1.00
C930   C     0.82586   0.97571   0.74990   0.00000  Uiso   1.00
Cu931  Cu    0.83333   0.75000   0.79822   0.00000  Uiso   1.00
Cu932  Cu    0.83333   0.75001   0.70179   0.00000  Uiso   1.00
H933   H     0.85594   0.53027   0.82754   0.00000  Uiso   1.00
H934   H     0.81057   0.96979   0.67262   0.00000  Uiso   1.00
H935   H     0.84678   0.61320   0.67620   0.00000  Uiso   1.00
H936   H     0.82020   0.88673   0.82391   0.00000  Uiso   1.00
H937   H     0.88884   0.80202   0.63312   0.00000  Uiso   1.00
H938   H     0.77785   0.69797   0.86690   0.00000  Uiso   1.00
H939   H     0.76150   0.71744   0.52710   0.00000  Uiso   1.00
H940   H     0.90516   0.78261   0.97289   0.00000  Uiso   1.00
N941   N     0.83333   0.75001   0.62935   0.00000  Uiso   1.00
N942   N     0.83333   0.74999   0.87066   0.00000  Uiso   1.00
O943   O     0.83334   0.68573   0.79072   0.00000  Uiso   1.00
O944   O     0.83333   0.81428   0.70929   0.00000  Uiso   1.00
O945   O     0.83334   0.68573   0.70928   0.00000  Uiso   1.00
O946   O     0.83333   0.81427   0.79072   0.00000  Uiso   1.00
O947   O     0.75828   0.75000   0.78132   0.00000  Uiso   1.00
O948   O     0.90839   0.75001   0.71868   0.00000  Uiso   1.00
O949   O     0.75828   0.75000   0.69989   0.00000  Uiso   1.00
O950   O     0.90839   0.75000   0.80012   0.00000  Uiso   1.00
S951   S     0.99814   0.80917   0.70180   0.00000  Uiso   1.00
O952   O     0.98241   0.79694   0.65003   0.00000  Uiso   1.00
O953   O     0.95553   0.83222   0.72097   0.00000  Uiso   1.00
O954   O     0.71642   0.84417   0.70494   0.00000  Uiso   1.00
H955   H     0.70490   0.86987   0.68517   0.00000  Uiso   1.00
S956   S     0.66852   0.69085   0.79822   0.00000  Uiso   1.00
O957   O     0.71111   0.66778   0.77902   0.00000  Uiso   1.00
O958   O     0.68429   0.70310   0.84998   0.00000  Uiso   1.00
O959   O     0.95024   0.65587   0.79512   0.00000  Uiso   1.00
H960   H     0.96172   0.63022   0.81499   0.00000  Uiso   1.00
Cl961  Cl    0.85038   0.61658   0.85344   0.00000  Uiso   1.00
Cl962  Cl    0.81613   0.88349   0.64662   0.00000  Uiso   1.00
S963   S     0.88333   0.52989   0.66224   0.00000  Uiso   1.00
O964   O     0.84659   0.52098   0.61734   0.00000  Uiso   1.00
O965   O     0.92235   0.56499   0.65130   0.00000  Uiso   1.00
O966   O     0.91430   0.98399   0.67947   0.00000  Uiso   1.00
H967   H     0.92661   0.97298   0.64994   0.00000  Uiso   1.00
S968   S     0.78382   0.96996   0.83829   0.00000  Uiso   1.00
O969   O     0.75547   0.51060   0.82278   0.00000  Uiso   1.00
O970   O     0.74560   0.93453   0.85013   0.00000  Uiso   1.00
O971   O     0.82539   0.98068   0.88804   0.00000  Uiso   1.00
H972   H     0.80451   0.99315   0.91131   0.00000  Uiso   1.00
Cl973  Cl    0.89751   0.83058   0.54131   0.00000  Uiso   1.00
Cl974  Cl    0.76920   0.66942   0.95872   0.00000  Uiso   1.00
S975   S     0.74146   0.69485   0.61501   0.00000  Uiso   1.00
O976   O     0.69869   0.72606   0.61466   0.00000  Uiso   1.00
O977   O     0.72527   0.66067   0.57671   0.00000  Uiso   1.00
O978   O     0.74757   0.66779   0.66752   0.00000  Uiso   1.00
H979   H     0.71236   0.65698   0.67186   0.00000  Uiso   1.00
S980   S     0.92520   0.80516   0.88498   0.00000  Uiso   1.00
O981   O     0.94137   0.83937   0.92326   0.00000  Uiso   1.00
O982   O     0.96798   0.77396   0.88536   0.00000  Uiso   1.00
O983   O     0.91911   0.83221   0.83246   0.00000  Uiso   1.00
H984   H     0.95432   0.84303   0.82813   0.00000  Uiso   1.00
loop_
_geom_bond_atom_site_label_1
_geom_bond_atom_site_label_2
_geom_bond_distance
_geom_bond_site_symmetry_2
_ccdc_geom_bond_type
C1     C21     1.472   .     S
C1     O43     1.309   .     A
C1     O41     1.297   .     A
C2     O44     1.309   .     A
C2     C22     1.472   .     S
C2     O42     1.297   .     A
C3     Cl71    1.765   .     S
C3     C5      1.413   .     A
C3     C11     1.441   .     A
C4     C12     1.441   .     A
C4     C6      1.413   .     A
C4     Cl72    1.765   .     S
C5     N39     1.357   .     A
C5     H35     1.079   .     S
C6     N40     1.357   .     A
C6     H36     1.079   .     S
C7     S73     1.797   .     S
C7     C9      1.397   .     A
C7     N39     1.392   .     A
C8     S78     1.798   .     S
C8     C10     1.397   .     A
C8     N40     1.392   .     A
C9     H37     1.069   .     S
C9     C11     1.387   .     A
C10    C12     1.387   .     A
C10    H38     1.069   .     S
C11    C504    1.543   1_554 S
C12    C503    1.543   .     S
C13    O47     1.304   .     A
C13    C15     1.435   .     S
C13    O45     1.283   .     A
C14    O46     1.283   .     A
C14    O48     1.304   .     A
C14    C16     1.435   .     S
C15    C180    1.362   1_455 S
C15    S213    1.784   1_455 S
C16    C97     1.362   .     S
C16    S136    1.784   .     S
C17    C27     1.400   .     A
C17    H31     1.073   .     S
C17    C19     1.387   .     A
C18    C20     1.387   .     A
C18    C28     1.400   .     A
C18    H32     1.073   .     S
C19    C21     1.414   .     A
C19    Cl59    1.766   .     S
C20    Cl60    1.766   .     S
C20    C22     1.414   .     A
C21    C23     1.401   .     A
C22    C24     1.400   .     A
C23    H33     1.084   .     S
C23    C25     1.396   .     A
C24    C26     1.395   .     A
C24    H34     1.084   .     S
C25    S61     1.779   .     S
C25    C27     1.427   .     A
C26    S66     1.780   .     S
C26    C28     1.427   .     A
C27    C274    1.508   1_545 S
C28    C273    1.508   .     S
Cu29   O48     1.968   .     S
Cu29   O45     1.971   .     S
Cu29   Cu30    2.701   .     S
Cu29   O44     1.961   .     S
Cu29   O41     1.962   .     S
Cu29   N40     2.029   .     S
Cu30   O47     1.968   .     S
Cu30   O43     1.961   .     S
Cu30   O46     1.971   .     S
Cu30   N39     2.029   .     S
Cu30   O42     1.962   .     S
S49    O51     1.504   .     D
S49    O50     1.500   .     D
S49    C97     1.784   .     S
S49    O134    1.680   .     S
O52    H53     0.991   .     S
O52    S213    1.680   1_455 S
S54    O56     1.500   .     D
S54    O55     1.504   .     D
S54    C180    1.784   1_455 S
S54    O221    1.680   1_455 S
O57    H58     0.991   .     S
O57    S136    1.680   .     S
S61    O63     1.504   .     D
S61    O62     1.504   .     D
S61    O310    1.683   1_545 S
O64    H65     0.990   .     S
O64    S307    1.683   .     S
S66    O68     1.504   .     D
S66    O69     1.682   .     S
S66    O313    1.504   .     S
O67    S312    1.504   1_545 S
O69    H70     0.991   .     S
S73    O74     1.502   .     D
S73    O75     1.504   .     D
S73    O76     1.675   .     S
O76    H77     0.991   .     S
S78    O80     1.502   .     D
S78    O79     1.504   .     D
S78    O81     1.675   .     S
O81    H82     0.991   .     S
C83    C103    1.472   .     S
C83    O125    1.309   .     A
C83    O123    1.297   .     A
C84    O126    1.309   .     A
C84    C104    1.472   .     S
C84    O124    1.297   .     A
C85    Cl153   1.765   .     S
C85    C87     1.413   .     A
C85    C93     1.441   .     A
C86    C94     1.441   .     A
C86    C88     1.413   .     A
C86    Cl154   1.765   .     S
C87    N121    1.357   .     A
C87    H117    1.079   .     S
C88    N122    1.357   .     A
C88    H118    1.079   .     S
C89    S155    1.797   .     S
C89    C91     1.397   .     A
C89    N121    1.392   .     A
C90    S160    1.798   .     S
C90    C92     1.397   .     A
C90    N122    1.392   .     A
C91    H119    1.069   .     S
C91    C93     1.387   .     A
C92    C94     1.387   .     A
C92    H120    1.069   .     S
C93    C586    1.543   1_554 S
C94    C585    1.543   .     S
C95    O129    1.304   .     A
C95    C97     1.435   .     S
C95    O127    1.283   .     A
C96    O128    1.283   .     A
C96    O130    1.304   .     A
C96    C98     1.435   .     S
C98    C179    1.362   .     S
C98    S218    1.784   .     S
C99    C109    1.400   .     A
C99    H113    1.073   .     S
C99    C101    1.387   .     A
C100   C102    1.387   .     A
C100   C110    1.400   .     A
C100   H114    1.073   .     S
C101   C103    1.414   .     A
C101   Cl141   1.766   .     S
C102   Cl142   1.766   .     S
C102   C104    1.414   .     A
C103   C105    1.401   .     A
C104   C106    1.400   .     A
C105   H115    1.084   .     S
C105   C107    1.396   .     A
C106   C108    1.395   .     A
C106   H116    1.084   .     S
C107   S143    1.779   .     S
C107   C109    1.427   .     A
C108   S148    1.780   .     S
C108   C110    1.427   .     A
C109   C356    1.508   1_545 S
C110   C355    1.508   .     S
Cu111  O130    1.968   .     S
Cu111  O127    1.971   .     S
Cu111  Cu112   2.701   .     S
Cu111  O126    1.961   .     S
Cu111  O123    1.962   .     S
Cu111  N122    2.029   .     S
Cu112  O129    1.968   .     S
Cu112  O125    1.961   .     S
Cu112  O128    1.971   .     S
Cu112  N121    2.029   .     S
Cu112  O124    1.962   .     S
S131   O133    1.504   .     D
S131   O132    1.500   .     D
S131   C179    1.784   .     S
S131   O216    1.680   .     S
O134   H135    0.991   .     S
S136   O138    1.500   .     D
S136   O137    1.504   .     D
O139   H140    0.991   .     S
O139   S218    1.680   .     S
S143   O145    1.504   .     D
S143   O144    1.504   .     D
S143   O392    1.683   1_545 S
O146   H147    0.990   .     S
O146   S389    1.683   .     S
S148   O150    1.504   .     D
S148   O151    1.682   .     S
S148   O395    1.504   .     S
O149   S394    1.504   1_545 S
O151   H152    0.991   .     S
S155   O156    1.502   .     D
S155   O157    1.504   .     D
S155   O158    1.675   .     S
O158   H159    0.991   .     S
S160   O162    1.502   .     D
S160   O161    1.504   .     D
S160   O163    1.675   .     S
O163   H164    0.991   .     S
C165   C185    1.472   .     S
C165   O207    1.309   .     A
C165   O205    1.297   .     A
C166   O208    1.309   .     A
C166   C186    1.472   .     S
C166   O206    1.297   .     A
C167   Cl235   1.765   .     S
C167   C169    1.413   .     A
C167   C175    1.441   .     A
C168   C176    1.441   .     A
C168   C170    1.413   .     A
C168   Cl236   1.765   .     S
C169   N203    1.357   .     A
C169   H199    1.079   .     S
C170   N204    1.357   .     A
C170   H200    1.079   .     S
C171   S237    1.797   .     S
C171   C173    1.397   .     A
C171   N203    1.392   .     A
C172   S242    1.798   .     S
C172   C174    1.397   .     A
C172   N204    1.392   .     A
C173   H201    1.069   .     S
C173   C175    1.387   .     A
C174   C176    1.387   .     A
C174   H202    1.069   .     S
C175   C668    1.543   1_554 S
C176   C667    1.543   .     S
C177   O211    1.304   .     A
C177   C179    1.435   .     S
C177   O209    1.283   .     A
C178   O210    1.283   .     A
C178   O212    1.304   .     A
C178   C180    1.435   .     S
C180   C15     1.362   1_655 S
C180   S54     1.784   1_655 S
C181   C191    1.400   .     A
C181   H195    1.073   .     S
C181   C183    1.387   .     A
C182   C184    1.387   .     A
C182   C192    1.400   .     A
C182   H196    1.073   .     S
C183   C185    1.414   .     A
C183   Cl223   1.766   .     S
C184   Cl224   1.766   .     S
C184   C186    1.414   .     A
C185   C187    1.401   .     A
C186   C188    1.400   .     A
C187   H197    1.084   .     S
C187   C189    1.396   .     A
C188   C190    1.395   .     A
C188   H198    1.084   .     S
C189   S225    1.779   .     S
C189   C191    1.427   .     A
C190   S230    1.780   .     S
C190   C192    1.427   .     A
C191   C438    1.508   1_545 S
C192   C437    1.508   .     S
Cu193  O212    1.968   .     S
Cu193  O209    1.971   .     S
Cu193  Cu194   2.701   .     S
Cu193  O208    1.961   .     S
Cu193  O205    1.962   .     S
Cu193  N204    2.029   .     S
Cu194  O211    1.968   .     S
Cu194  O207    1.961   .     S
Cu194  O210    1.971   .     S
Cu194  N203    2.029   .     S
Cu194  O206    1.962   .     S
S213   O215    1.504   .     D
S213   O214    1.500   .     D
S213   C15     1.784   1_655 S
S213   O52     1.680   1_655 S
O216   H217    0.991   .     S
S218   O220    1.500   .     D
S218   O219    1.504   .     D
O221   H222    0.991   .     S
O221   S54     1.680   1_655 S
S225   O227    1.504   .     D
S225   O226    1.504   .     D
S225   O474    1.683   1_545 S
O228   H229    0.990   .     S
O228   S471    1.683   .     S
S230   O232    1.504   .     D
S230   O233    1.682   .     S
S230   O477    1.504   .     S
O231   S476    1.504   1_545 S
O233   H234    0.991   .     S
S237   O238    1.502   .     D
S237   O239    1.504   .     D
S237   O240    1.675   .     S
O240   H241    0.991   .     S
S242   O244    1.502   .     D
S242   O243    1.504   .     D
S242   O245    1.675   .     S
O245   H246    0.991   .     S
C247   C267    1.472   .     S
C247   O289    1.309   .     A
C247   O287    1.297   .     A
C248   O290    1.309   .     A
C248   C268    1.472   .     S
C248   O288    1.297   .     A
C249   Cl317   1.765   .     S
C249   C251    1.413   .     A
C249   C257    1.441   .     A
C250   C258    1.441   .     A
C250   C252    1.413   .     A
C250   Cl318   1.765   .     S
C251   N285    1.357   .     A
C251   H281    1.079   .     S
C252   N286    1.357   .     A
C252   H282    1.079   .     S
C253   S319    1.797   .     S
C253   C255    1.397   .     A
C253   N285    1.392   .     A
C254   S324    1.798   .     S
C254   C256    1.397   .     A
C254   N286    1.392   .     A
C255   H283    1.069   .     S
C255   C257    1.387   .     A
C256   C258    1.387   .     A
C256   H284    1.069   .     S
C257   C750    1.543   1_554 S
C258   C749    1.543   .     S
C259   O293    1.304   .     A
C259   C261    1.435   .     S
C259   O291    1.283   .     A
C260   O292    1.283   .     A
C260   O294    1.304   .     A
C260   C262    1.435   .     S
C261   C426    1.362   1_455 S
C261   S459    1.784   1_455 S
C262   C343    1.362   .     S
C262   S382    1.784   .     S
C263   C273    1.400   .     A
C263   H277    1.073   .     S
C263   C265    1.387   .     A
C264   C266    1.387   .     A
C264   C274    1.400   .     A
C264   H278    1.073   .     S
C265   C267    1.414   .     A
C265   Cl305   1.766   .     S
C266   Cl306   1.766   .     S
C266   C268    1.414   .     A
C267   C269    1.401   .     A
C268   C270    1.400   .     A
C269   H279    1.084   .     S
C269   C271    1.396   .     A
C270   C272    1.395   .     A
C270   H280    1.084   .     S
C271   S307    1.779   .     S
C271   C273    1.427   .     A
C272   S312    1.780   .     S
C272   C274    1.427   .     A
C274   C27     1.508   1_565 S
Cu275  O294    1.968   .     S
Cu275  O291    1.971   .     S
Cu275  Cu276   2.701   .     S
Cu275  O290    1.961   .     S
Cu275  O287    1.962   .     S
Cu275  N286    2.029   .     S
Cu276  O293    1.968   .     S
Cu276  O289    1.961   .     S
Cu276  O292    1.971   .     S
Cu276  N285    2.029   .     S
Cu276  O288    1.962   .     S
S295   O297    1.504   .     D
S295   O296    1.500   .     D
S295   C343    1.784   .     S
S295   O380    1.680   .     S
O298   H299    0.991   .     S
O298   S459    1.680   1_455 S
S300   O302    1.500   .     D
S300   O301    1.504   .     D
S300   C426    1.784   1_455 S
S300   O467    1.680   1_455 S
O303   H304    0.991   .     S
O303   S382    1.680   .     S
S307   O309    1.504   .     D
S307   O308    1.504   .     D
O310   H311    0.990   .     S
O310   S61     1.683   1_565 S
S312   O314    1.504   .     D
S312   O315    1.682   .     S
S312   O67     1.504   1_565 S
O315   H316    0.991   .     S
S319   O320    1.502   .     D
S319   O321    1.504   .     D
S319   O322    1.675   .     S
O322   H323    0.991   .     S
S324   O326    1.502   .     D
S324   O325    1.504   .     D
S324   O327    1.675   .     S
O327   H328    0.991   .     S
C329   C349    1.472   .     S
C329   O371    1.309   .     A
C329   O369    1.297   .     A
C330   O372    1.309   .     A
C330   C350    1.472   .     S
C330   O370    1.297   .     A
C331   Cl399   1.765   .     S
C331   C333    1.413   .     A
C331   C339    1.441   .     A
C332   C340    1.441   .     A
C332   C334    1.413   .     A
C332   Cl400   1.765   .     S
C333   N367    1.357   .     A
C333   H363    1.079   .     S
C334   N368    1.357   .     A
C334   H364    1.079   .     S
C335   S401    1.797   .     S
C335   C337    1.397   .     A
C335   N367    1.392   .     A
C336   S406    1.798   .     S
C336   C338    1.397   .     A
C336   N368    1.392   .     A
C337   H365    1.069   .     S
C337   C339    1.387   .     A
C338   C340    1.387   .     A
C338   H366    1.069   .     S
C339   C832    1.543   1_554 S
C340   C831    1.543   .     S
C341   O375    1.304   .     A
C341   C343    1.435   .     S
C341   O373    1.283   .     A
C342   O374    1.283   .     A
C342   O376    1.304   .     A
C342   C344    1.435   .     S
C344   C425    1.362   .     S
C344   S464    1.784   .     S
C345   C355    1.400   .     A
C345   H359    1.073   .     S
C345   C347    1.387   .     A
C346   C348    1.387   .     A
C346   C356    1.400   .     A
C346   H360    1.073   .     S
C347   C349    1.414   .     A
C347   Cl387   1.766   .     S
C348   Cl388   1.766   .     S
C348   C350    1.414   .     A
C349   C351    1.401   .     A
C350   C352    1.400   .     A
C351   H361    1.084   .     S
C351   C353    1.396   .     A
C352   C354    1.395   .     A
C352   H362    1.084   .     S
C353   S389    1.779   .     S
C353   C355    1.427   .     A
C354   S394    1.780   .     S
C354   C356    1.427   .     A
C356   C109    1.508   1_565 S
Cu357  O376    1.968   .     S
Cu357  O373    1.971   .     S
Cu357  Cu358   2.701   .     S
Cu357  O372    1.961   .     S
Cu357  O369    1.962   .     S
Cu357  N368    2.029   .     S
Cu358  O375    1.968   .     S
Cu358  O371    1.961   .     S
Cu358  O374    1.971   .     S
Cu358  N367    2.029   .     S
Cu358  O370    1.962   .     S
S377   O379    1.504   .     D
S377   O378    1.500   .     D
S377   C425    1.784   .     S
S377   O462    1.680   .     S
O380   H381    0.991   .     S
S382   O384    1.500   .     D
S382   O383    1.504   .     D
O385   H386    0.991   .     S
O385   S464    1.680   .     S
S389   O391    1.504   .     D
S389   O390    1.504   .     D
O392   H393    0.990   .     S
O392   S143    1.683   1_565 S
S394   O396    1.504   .     D
S394   O397    1.682   .     S
S394   O149    1.504   1_565 S
O397   H398    0.991   .     S
S401   O402    1.502   .     D
S401   O403    1.504   .     D
S401   O404    1.675   .     S
O404   H405    0.991   .     S
S406   O408    1.502   .     D
S406   O407    1.504   .     D
S406   O409    1.675   .     S
O409   H410    0.991   .     S
C411   C431    1.472   .     S
C411   O453    1.309   .     A
C411   O451    1.297   .     A
C412   O454    1.309   .     A
C412   C432    1.472   .     S
C412   O452    1.297   .     A
C413   Cl481   1.765   .     S
C413   C415    1.413   .     A
C413   C421    1.441   .     A
C414   C422    1.441   .     A
C414   C416    1.413   .     A
C414   Cl482   1.765   .     S
C415   N449    1.357   .     A
C415   H445    1.079   .     S
C416   N450    1.357   .     A
C416   H446    1.079   .     S
C417   S483    1.797   .     S
C417   C419    1.397   .     A
C417   N449    1.392   .     A
C418   S488    1.798   .     S
C418   C420    1.397   .     A
C418   N450    1.392   .     A
C419   H447    1.069   .     S
C419   C421    1.387   .     A
C420   C422    1.387   .     A
C420   H448    1.069   .     S
C421   C914    1.543   1_554 S
C422   C913    1.543   .     S
C423   O457    1.304   .     A
C423   C425    1.435   .     S
C423   O455    1.283   .     A
C424   O456    1.283   .     A
C424   O458    1.304   .     A
C424   C426    1.435   .     S
C426   C261    1.362   1_655 S
C426   S300    1.784   1_655 S
C427   C437    1.400   .     A
C427   H441    1.073   .     S
C427   C429    1.387   .     A
C428   C430    1.387   .     A
C428   C438    1.400   .     A
C428   H442    1.073   .     S
C429   C431    1.414   .     A
C429   Cl469   1.766   .     S
C430   Cl470   1.766   .     S
C430   C432    1.414   .     A
C431   C433    1.401   .     A
C432   C434    1.400   .     A
C433   H443    1.084   .     S
C433   C435    1.396   .     A
C434   C436    1.395   .     A
C434   H444    1.084   .     S
C435   S471    1.779   .     S
C435   C437    1.427   .     A
C436   S476    1.780   .     S
C436   C438    1.427   .     A
C438   C191    1.508   1_565 S
Cu439  O458    1.968   .     S
Cu439  O455    1.971   .     S
Cu439  Cu440   2.701   .     S
Cu439  O454    1.961   .     S
Cu439  O451    1.962   .     S
Cu439  N450    2.029   .     S
Cu440  O457    1.968   .     S
Cu440  O453    1.961   .     S
Cu440  O456    1.971   .     S
Cu440  N449    2.029   .     S
Cu440  O452    1.962   .     S
S459   O461    1.504   .     D
S459   O460    1.500   .     D
S459   C261    1.784   1_655 S
S459   O298    1.680   1_655 S
O462   H463    0.991   .     S
S464   O466    1.500   .     D
S464   O465    1.504   .     D
O467   H468    0.991   .     S
O467   S300    1.680   1_655 S
S471   O473    1.504   .     D
S471   O472    1.504   .     D
O474   H475    0.990   .     S
O474   S225    1.683   1_565 S
S476   O478    1.504   .     D
S476   O479    1.682   .     S
S476   O231    1.504   1_565 S
O479   H480    0.991   .     S
S483   O484    1.502   .     D
S483   O485    1.504   .     D
S483   O486    1.675   .     S
O486   H487    0.991   .     S
S488   O490    1.502   .     D
S488   O489    1.504   .     D
S488   O491    1.675   .     S
O491   H492    0.991   .     S
C493   C513    1.472   .     S
C493   O535    1.309   .     A
C493   O533    1.297   .     A
C494   O536    1.309   .     A
C494   C514    1.472   .     S
C494   O534    1.297   .     A
C495   Cl563   1.765   .     S
C495   C497    1.413   .     A
C495   C503    1.441   .     A
C496   C504    1.441   .     A
C496   C498    1.413   .     A
C496   Cl564   1.765   .     S
C497   N531    1.357   .     A
C497   H527    1.079   .     S
C498   N532    1.357   .     A
C498   H528    1.079   .     S
C499   S565    1.797   .     S
C499   C501    1.397   .     A
C499   N531    1.392   .     A
C500   S570    1.798   .     S
C500   C502    1.397   .     A
C500   N532    1.392   .     A
C501   H529    1.069   .     S
C501   C503    1.387   .     A
C502   C504    1.387   .     A
C502   H530    1.069   .     S
C504   C11     1.543   1_556 S
C505   O539    1.304   .     A
C505   C507    1.435   .     S
C505   O537    1.283   .     A
C506   O538    1.283   .     A
C506   O540    1.304   .     A
C506   C508    1.435   .     S
C507   C672    1.362   1_455 S
C507   S705    1.784   1_455 S
C508   C589    1.362   .     S
C508   S628    1.784   .     S
C509   C519    1.400   .     A
C509   H523    1.073   .     S
C509   C511    1.387   .     A
C510   C512    1.387   .     A
C510   C520    1.400   .     A
C510   H524    1.073   .     S
C511   C513    1.414   .     A
C511   Cl551   1.766   .     S
C512   Cl552   1.766   .     S
C512   C514    1.414   .     A
C513   C515    1.401   .     A
C514   C516    1.400   .     A
C515   H525    1.084   .     S
C515   C517    1.396   .     A
C516   C518    1.395   .     A
C516   H526    1.084   .     S
C517   S553    1.779   .     S
C517   C519    1.427   .     A
C518   S558    1.780   .     S
C518   C520    1.427   .     A
C519   C766    1.508   1_545 S
C520   C765    1.508   .     S
Cu521  O540    1.968   .     S
Cu521  O537    1.971   .     S
Cu521  Cu522   2.701   .     S
Cu521  O536    1.961   .     S
Cu521  O533    1.962   .     S
Cu521  N532    2.029   .     S
Cu522  O539    1.968   .     S
Cu522  O535    1.961   .     S
Cu522  O538    1.971   .     S
Cu522  N531    2.029   .     S
Cu522  O534    1.962   .     S
S541   O543    1.504   .     D
S541   O542    1.500   .     D
S541   C589    1.784   .     S
S541   O626    1.680   .     S
O544   H545    0.991   .     S
O544   S705    1.680   1_455 S
S546   O548    1.500   .     D
S546   O547    1.504   .     D
S546   C672    1.784   1_455 S
S546   O713    1.680   1_455 S
O549   H550    0.991   .     S
O549   S628    1.680   .     S
S553   O555    1.504   .     D
S553   O554    1.504   .     D
S553   O802    1.683   1_545 S
O556   H557    0.990   .     S
O556   S799    1.683   .     S
S558   O560    1.504   .     D
S558   O561    1.682   .     S
S558   O805    1.504   .     S
O559   S804    1.504   1_545 S
O561   H562    0.991   .     S
S565   O566    1.502   .     D
S565   O567    1.504   .     D
S565   O568    1.675   .     S
O568   H569    0.991   .     S
S570   O572    1.502   .     D
S570   O571    1.504   .     D
S570   O573    1.675   .     S
O573   H574    0.991   .     S
C575   C595    1.472   .     S
C575   O617    1.309   .     A
C575   O615    1.297   .     A
C576   O618    1.309   .     A
C576   C596    1.472   .     S
C576   O616    1.297   .     A
C577   Cl645   1.765   .     S
C577   C579    1.413   .     A
C577   C585    1.441   .     A
C578   C586    1.441   .     A
C578   C580    1.413   .     A
C578   Cl646   1.765   .     S
C579   N613    1.357   .     A
C579   H609    1.079   .     S
C580   N614    1.357   .     A
C580   H610    1.079   .     S
C581   S647    1.797   .     S
C581   C583    1.397   .     A
C581   N613    1.392   .     A
C582   S652    1.798   .     S
C582   C584    1.397   .     A
C582   N614    1.392   .     A
C583   H611    1.069   .     S
C583   C585    1.387   .     A
C584   C586    1.387   .     A
C584   H612    1.069   .     S
C586   C93     1.543   1_556 S
C587   O621    1.304   .     A
C587   C589    1.435   .     S
C587   O619    1.283   .     A
C588   O620    1.283   .     A
C588   O622    1.304   .     A
C588   C590    1.435   .     S
C590   C671    1.362   .     S
C590   S710    1.784   .     S
C591   C601    1.400   .     A
C591   H605    1.073   .     S
C591   C593    1.387   .     A
C592   C594    1.387   .     A
C592   C602    1.400   .     A
C592   H606    1.073   .     S
C593   C595    1.414   .     A
C593   Cl633   1.766   .     S
C594   Cl634   1.766   .     S
C594   C596    1.414   .     A
C595   C597    1.401   .     A
C596   C598    1.400   .     A
C597   H607    1.084   .     S
C597   C599    1.396   .     A
C598   C600    1.395   .     A
C598   H608    1.084   .     S
C599   S635    1.779   .     S
C599   C601    1.427   .     A
C600   S640    1.780   .     S
C600   C602    1.427   .     A
C601   C848    1.508   1_545 S
C602   C847    1.508   .     S
Cu603  O622    1.968   .     S
Cu603  O619    1.971   .     S
Cu603  Cu604   2.701   .     S
Cu603  O618    1.961   .     S
Cu603  O615    1.962   .     S
Cu603  N614    2.029   .     S
Cu604  O621    1.968   .     S
Cu604  O617    1.961   .     S
Cu604  O620    1.971   .     S
Cu604  N613    2.029   .     S
Cu604  O616    1.962   .     S
S623   O625    1.504   .     D
S623   O624    1.500   .     D
S623   C671    1.784   .     S
S623   O708    1.680   .     S
O626   H627    0.991   .     S
S628   O630    1.500   .     D
S628   O629    1.504   .     D
O631   H632    0.991   .     S
O631   S710    1.680   .     S
S635   O637    1.504   .     D
S635   O636    1.504   .     D
S635   O884    1.683   1_545 S
O638   H639    0.990   .     S
O638   S881    1.683   .     S
S640   O642    1.504   .     D
S640   O643    1.682   .     S
S640   O887    1.504   .     S
O641   S886    1.504   1_545 S
O643   H644    0.991   .     S
S647   O648    1.502   .     D
S647   O649    1.504   .     D
S647   O650    1.675   .     S
O650   H651    0.991   .     S
S652   O654    1.502   .     D
S652   O653    1.504   .     D
S652   O655    1.675   .     S
O655   H656    0.991   .     S
C657   C677    1.472   .     S
C657   O699    1.309   .     A
C657   O697    1.297   .     A
C658   O700    1.309   .     A
C658   C678    1.472   .     S
C658   O698    1.297   .     A
C659   Cl727   1.765   .     S
C659   C661    1.413   .     A
C659   C667    1.441   .     A
C660   C668    1.441   .     A
C660   C662    1.413   .     A
C660   Cl728   1.765   .     S
C661   N695    1.357   .     A
C661   H691    1.079   .     S
C662   N696    1.357   .     A
C662   H692    1.079   .     S
C663   S729    1.797   .     S
C663   C665    1.397   .     A
C663   N695    1.392   .     A
C664   S734    1.798   .     S
C664   C666    1.397   .     A
C664   N696    1.392   .     A
C665   H693    1.069   .     S
C665   C667    1.387   .     A
C666   C668    1.387   .     A
C666   H694    1.069   .     S
C668   C175    1.543   1_556 S
C669   O703    1.304   .     A
C669   C671    1.435   .     S
C669   O701    1.283   .     A
C670   O702    1.283   .     A
C670   O704    1.304   .     A
C670   C672    1.435   .     S
C672   C507    1.362   1_655 S
C672   S546    1.784   1_655 S
C673   C683    1.400   .     A
C673   H687    1.073   .     S
C673   C675    1.387   .     A
C674   C676    1.387   .     A
C674   C684    1.400   .     A
C674   H688    1.073   .     S
C675   C677    1.414   .     A
C675   Cl715   1.766   .     S
C676   Cl716   1.766   .     S
C676   C678    1.414   .     A
C677   C679    1.401   .     A
C678   C680    1.400   .     A
C679   H689    1.084   .     S
C679   C681    1.396   .     A
C680   C682    1.395   .     A
C680   H690    1.084   .     S
C681   S717    1.779   .     S
C681   C683    1.427   .     A
C682   S722    1.780   .     S
C682   C684    1.427   .     A
C683   C930    1.508   1_545 S
C684   C929    1.508   .     S
Cu685  O704    1.968   .     S
Cu685  O701    1.971   .     S
Cu685  Cu686   2.701   .     S
Cu685  O700    1.961   .     S
Cu685  O697    1.962   .     S
Cu685  N696    2.029   .     S
Cu686  O703    1.968   .     S
Cu686  O699    1.961   .     S
Cu686  O702    1.971   .     S
Cu686  N695    2.029   .     S
Cu686  O698    1.962   .     S
S705   O707    1.504   .     D
S705   O706    1.500   .     D
S705   C507    1.784   1_655 S
S705   O544    1.680   1_655 S
O708   H709    0.991   .     S
S710   O712    1.500   .     D
S710   O711    1.504   .     D
O713   H714    0.991   .     S
O713   S546    1.680   1_655 S
S717   O719    1.504   .     D
S717   O718    1.504   .     D
S717   O966    1.683   1_545 S
O720   H721    0.990   .     S
O720   S963    1.683   .     S
S722   O724    1.504   .     D
S722   O725    1.682   .     S
S722   O969    1.504   .     S
O723   S968    1.504   1_545 S
O725   H726    0.991   .     S
S729   O730    1.502   .     D
S729   O731    1.504   .     D
S729   O732    1.675   .     S
O732   H733    0.991   .     S
S734   O736    1.502   .     D
S734   O735    1.504   .     D
S734   O737    1.675   .     S
O737   H738    0.991   .     S
C739   C759    1.472   .     S
C739   O781    1.309   .     A
C739   O779    1.297   .     A
C740   O782    1.309   .     A
C740   C760    1.472   .     S
C740   O780    1.297   .     A
C741   Cl809   1.765   .     S
C741   C743    1.413   .     A
C741   C749    1.441   .     A
C742   C750    1.441   .     A
C742   C744    1.413   .     A
C742   Cl810   1.765   .     S
C743   N777    1.357   .     A
C743   H773    1.079   .     S
C744   N778    1.357   .     A
C744   H774    1.079   .     S
C745   S811    1.797   .     S
C745   C747    1.397   .     A
C745   N777    1.392   .     A
C746   S816    1.798   .     S
C746   C748    1.397   .     A
C746   N778    1.392   .     A
C747   H775    1.069   .     S
C747   C749    1.387   .     A
C748   C750    1.387   .     A
C748   H776    1.069   .     S
C750   C257    1.543   1_556 S
C751   O785    1.304   .     A
C751   C753    1.435   .     S
C751   O783    1.283   .     A
C752   O784    1.283   .     A
C752   O786    1.304   .     A
C752   C754    1.435   .     S
C753   C918    1.362   1_455 S
C753   S951    1.784   1_455 S
C754   C835    1.362   .     S
C754   S874    1.784   .     S
C755   C765    1.400   .     A
C755   H769    1.073   .     S
C755   C757    1.387   .     A
C756   C758    1.387   .     A
C756   C766    1.400   .     A
C756   H770    1.073   .     S
C757   C759    1.414   .     A
C757   Cl797   1.766   .     S
C758   Cl798   1.766   .     S
C758   C760    1.414   .     A
C759   C761    1.401   .     A
C760   C762    1.400   .     A
C761   H771    1.084   .     S
C761   C763    1.396   .     A
C762   C764    1.395   .     A
C762   H772    1.084   .     S
C763   S799    1.779   .     S
C763   C765    1.427   .     A
C764   S804    1.780   .     S
C764   C766    1.427   .     A
C766   C519    1.508   1_565 S
Cu767  O786    1.968   .     S
Cu767  O783    1.971   .     S
Cu767  Cu768   2.701   .     S
Cu767  O782    1.961   .     S
Cu767  O779    1.962   .     S
Cu767  N778    2.029   .     S
Cu768  O785    1.968   .     S
Cu768  O781    1.961   .     S
Cu768  O784    1.971   .     S
Cu768  N777    2.029   .     S
Cu768  O780    1.962   .     S
S787   O789    1.504   .     D
S787   O788    1.500   .     D
S787   C835    1.784   .     S
S787   O872    1.680   .     S
O790   H791    0.991   .     S
O790   S951    1.680   1_455 S
S792   O794    1.500   .     D
S792   O793    1.504   .     D
S792   C918    1.784   1_455 S
S792   O959    1.680   1_455 S
O795   H796    0.991   .     S
O795   S874    1.680   .     S
S799   O801    1.504   .     D
S799   O800    1.504   .     D
O802   H803    0.990   .     S
O802   S553    1.683   1_565 S
S804   O806    1.504   .     D
S804   O807    1.682   .     S
S804   O559    1.504   1_565 S
O807   H808    0.991   .     S
S811   O812    1.502   .     D
S811   O813    1.504   .     D
S811   O814    1.675   .     S
O814   H815    0.991   .     S
S816   O818    1.502   .     D
S816   O817    1.504   .     D
S816   O819    1.675   .     S
O819   H820    0.991   .     S
C821   C841    1.472   .     S
C821   O863    1.309   .     A
C821   O861    1.297   .     A
C822   O864    1.309   .     A
C822   C842    1.472   .     S
C822   O862    1.297   .     A
C823   Cl891   1.765   .     S
C823   C825    1.413   .     A
C823   C831    1.441   .     A
C824   C832    1.441   .     A
C824   C826    1.413   .     A
C824   Cl892   1.765   .     S
C825   N859    1.357   .     A
C825   H855    1.079   .     S
C826   N860    1.357   .     A
C826   H856    1.079   .     S
C827   S893    1.797   .     S
C827   C829    1.397   .     A
C827   N859    1.392   .     A
C828   S898    1.798   .     S
C828   C830    1.397   .     A
C828   N860    1.392   .     A
C829   H857    1.069   .     S
C829   C831    1.387   .     A
C830   C832    1.387   .     A
C830   H858    1.069   .     S
C832   C339    1.543   1_556 S
C833   O867    1.304   .     A
C833   C835    1.435   .     S
C833   O865    1.283   .     A
C834   O866    1.283   .     A
C834   O868    1.304   .     A
C834   C836    1.435   .     S
C836   C917    1.362   .     S
C836   S956    1.784   .     S
C837   C847    1.400   .     A
C837   H851    1.073   .     S
C837   C839    1.387   .     A
C838   C840    1.387   .     A
C838   C848    1.400   .     A
C838   H852    1.073   .     S
C839   C841    1.414   .     A
C839   Cl879   1.766   .     S
C840   Cl880   1.766   .     S
C840   C842    1.414   .     A
C841   C843    1.401   .     A
C842   C844    1.400   .     A
C843   H853    1.084   .     S
C843   C845    1.396   .     A
C844   C846    1.395   .     A
C844   H854    1.084   .     S
C845   S881    1.779   .     S
C845   C847    1.427   .     A
C846   S886    1.780   .     S
C846   C848    1.427   .     A
C848   C601    1.508   1_565 S
Cu849  O868    1.968   .     S
Cu849  O865    1.971   .     S
Cu849  Cu850   2.701   .     S
Cu849  O864    1.961   .     S
Cu849  O861    1.962   .     S
Cu849  N860    2.029   .     S
Cu850  O867    1.968   .     S
Cu850  O863    1.961   .     S
Cu850  O866    1.971   .     S
Cu850  N859    2.029   .     S
Cu850  O862    1.962   .     S
S869   O871    1.504   .     D
S869   O870    1.500   .     D
S869   C917    1.784   .     S
S869   O954    1.680   .     S
O872   H873    0.991   .     S
S874   O876    1.500   .     D
S874   O875    1.504   .     D
O877   H878    0.991   .     S
O877   S956    1.680   .     S
S881   O883    1.504   .     D
S881   O882    1.504   .     D
O884   H885    0.990   .     S
O884   S635    1.683   1_565 S
S886   O888    1.504   .     D
S886   O889    1.682   .     S
S886   O641    1.504   1_565 S
O889   H890    0.991   .     S
S893   O894    1.502   .     D
S893   O895    1.504   .     D
S893   O896    1.675   .     S
O896   H897    0.991   .     S
S898   O900    1.502   .     D
S898   O899    1.504   .     D
S898   O901    1.675   .     S
O901   H902    0.991   .     S
C903   C923    1.472   .     S
C903   O945    1.309   .     A
C903   O943    1.297   .     A
C904   O946    1.309   .     A
C904   C924    1.472   .     S
C904   O944    1.297   .     A
C905   Cl973   1.765   .     S
C905   C907    1.413   .     A
C905   C913    1.441   .     A
C906   C914    1.441   .     A
C906   C908    1.413   .     A
C906   Cl974   1.765   .     S
C907   N941    1.357   .     A
C907   H937    1.079   .     S
C908   N942    1.357   .     A
C908   H938    1.079   .     S
C909   S975    1.797   .     S
C909   C911    1.397   .     A
C909   N941    1.392   .     A
C910   S980    1.798   .     S
C910   C912    1.397   .     A
C910   N942    1.392   .     A
C911   H939    1.069   .     S
C911   C913    1.387   .     A
C912   C914    1.387   .     A
C912   H940    1.069   .     S
C914   C421    1.543   1_556 S
C915   O949    1.304   .     A
C915   C917    1.435   .     S
C915   O947    1.283   .     A
C916   O948    1.283   .     A
C916   O950    1.304   .     A
C916   C918    1.435   .     S
C918   C753    1.362   1_655 S
C918   S792    1.784   1_655 S
C919   C929    1.400   .     A
C919   H933    1.073   .     S
C919   C921    1.387   .     A
C920   C922    1.387   .     A
C920   C930    1.400   .     A
C920   H934    1.073   .     S
C921   C923    1.414   .     A
C921   Cl961   1.766   .     S
C922   Cl962   1.766   .     S
C922   C924    1.414   .     A
C923   C925    1.401   .     A
C924   C926    1.400   .     A
C925   H935    1.084   .     S
C925   C927    1.396   .     A
C926   C928    1.395   .     A
C926   H936    1.084   .     S
C927   S963    1.779   .     S
C927   C929    1.427   .     A
C928   S968    1.780   .     S
C928   C930    1.427   .     A
C930   C683    1.508   1_565 S
Cu931  O950    1.968   .     S
Cu931  O947    1.971   .     S
Cu931  Cu932   2.701   .     S
Cu931  O946    1.961   .     S
Cu931  O943    1.962   .     S
Cu931  N942    2.029   .     S
Cu932  O949    1.968   .     S
Cu932  O945    1.961   .     S
Cu932  O948    1.971   .     S
Cu932  N941    2.029   .     S
Cu932  O944    1.962   .     S
S951   O953    1.504   .     D
S951   O952    1.500   .     D
S951   C753    1.784   1_655 S
S951   O790    1.680   1_655 S
O954   H955    0.991   .     S
S956   O958    1.500   .     D
S956   O957    1.504   .     D
O959   H960    0.991   .     S
O959   S792    1.680   1_655 S
S963   O965    1.504   .     D
S963   O964    1.504   .     D
O966   H967    0.990   .     S
O966   S717    1.683   1_565 S
S968   O970    1.504   .     D
S968   O971    1.682   .     S
S968   O723    1.504   1_565 S
O971   H972    0.991   .     S
S975   O976    1.502   .     D
S975   O977    1.504   .     D
S975   O978    1.675   .     S
O978   H979    0.991   .     S
S980   O982    1.502   .     D
S980   O981    1.504   .     D
S980   O983    1.675   .     S
O983   H984    0.991   .     S
