data_str_m3_o1_o10_pcu_sym.170
_audit_creation_date              2020-01-03
_audit_creation_method            'Materials Studio'
_symmetry_space_group_name_H-M    'P1'
_symmetry_Int_Tables_number       1
_symmetry_cell_setting            triclinic
loop_
_symmetry_equiv_pos_as_xyz
  x,y,z
_cell_length_a                    25.8559
_cell_length_b                    32.2075
_cell_length_c                    29.5731
_cell_angle_alpha                 87.7104
_cell_angle_beta                  97.6869
_cell_angle_gamma                 90.5680
loop_
_atom_site_label
_atom_site_type_symbol
_atom_site_fract_x
_atom_site_fract_y
_atom_site_fract_z
_atom_site_U_iso_or_equiv
_atom_site_adp_type
_atom_site_occupancy
C1     C     0.16765   0.08665   0.16773   0.00000  Uiso   1.00
C2     C     0.16568   0.24668   0.16560   0.00000  Uiso   1.00
C3     C     0.06727   0.16683   0.15514   0.00000  Uiso   1.00
C4     C     0.26607   0.16650   0.17819   0.00000  Uiso   1.00
C5     C     0.01345   0.17385   0.15006   0.00000  Uiso   1.00
C6     C     0.31988   0.15948   0.18327   0.00000  Uiso   1.00
C7     C     0.19809   0.02304   0.13900   0.00000  Uiso   1.00
C8     C     0.13524   0.31029   0.19433   0.00000  Uiso   1.00
C9     C     0.19254   0.31380   0.13407   0.00000  Uiso   1.00
C10    C     0.14079   0.01954   0.19926   0.00000  Uiso   1.00
C11    C     0.16316   0.29100   0.16338   0.00000  Uiso   1.00
C12    C     0.17017   0.04233   0.16995   0.00000  Uiso   1.00
C13    C     0.19984   0.19185   0.02683   0.00000  Uiso   1.00
C14    C     0.13349   0.14149   0.30650   0.00000  Uiso   1.00
C15    C     0.20015   0.19188   0.31214   0.00000  Uiso   1.00
C16    C     0.13318   0.14145   0.02120   0.00000  Uiso   1.00
H17    H     0.22618   0.21184   0.04746   0.00000  Uiso   1.00
H18    H     0.10716   0.12149   0.28587   0.00000  Uiso   1.00
N19    N     0.16665   0.16666   0.28573   0.00000  Uiso   1.00
N20    N     0.16668   0.16668   0.04760   0.00000  Uiso   1.00
O21    O     0.16666   0.10558   0.20487   0.00000  Uiso   1.00
O22    O     0.16667   0.22775   0.12846   0.00000  Uiso   1.00
O23    O     0.16666   0.10559   0.12843   0.00000  Uiso   1.00
O24    O     0.16667   0.22774   0.20490   0.00000  Uiso   1.00
O25    O     0.09058   0.16666   0.19595   0.00000  Uiso   1.00
O26    O     0.24275   0.16667   0.13739   0.00000  Uiso   1.00
O27    O     0.09058   0.16667   0.11950   0.00000  Uiso   1.00
O28    O     0.24275   0.16666   0.21383   0.00000  Uiso   1.00
Zn29   Zn    0.16667   0.16666   0.21771   0.00000  Uiso   1.00
Zn30   Zn    0.16667   0.16667   0.11563   0.00000  Uiso   1.00
Cl31   Cl    0.32274   0.20967   0.10506   0.00000  Uiso   1.00
Cl32   Cl    0.01060   0.12366   0.22827   0.00000  Uiso   1.00
N33    N     0.23225   0.04687   0.11371   0.00000  Uiso   1.00
H34    H     0.23434   0.03814   0.08090   0.00000  Uiso   1.00
C35    C     0.28288   0.05530   0.13883   0.00000  Uiso   1.00
H36    H     0.30609   0.02631   0.14447   0.00000  Uiso   1.00
H37    H     0.27861   0.06833   0.17229   0.00000  Uiso   1.00
H38    H     0.30404   0.07834   0.11912   0.00000  Uiso   1.00
N39    N     0.10109   0.28646   0.21963   0.00000  Uiso   1.00
H40    H     0.09900   0.29519   0.25243   0.00000  Uiso   1.00
C41    C     0.05045   0.27803   0.19451   0.00000  Uiso   1.00
H42    H     0.02723   0.30702   0.18889   0.00000  Uiso   1.00
H43    H     0.02930   0.25499   0.21422   0.00000  Uiso   1.00
H44    H     0.05471   0.26502   0.16104   0.00000  Uiso   1.00
N45    N     0.21691   0.29387   0.10032   0.00000  Uiso   1.00
H46    H     0.25534   0.30238   0.09948   0.00000  Uiso   1.00
C47    C     0.18621   0.29518   0.05551   0.00000  Uiso   1.00
H48    H     0.17472   0.32749   0.04432   0.00000  Uiso   1.00
H49    H     0.15029   0.27608   0.05589   0.00000  Uiso   1.00
H50    H     0.20943   0.28290   0.03016   0.00000  Uiso   1.00
N51    N     0.11642   0.03946   0.23301   0.00000  Uiso   1.00
H52    H     0.07800   0.03096   0.23386   0.00000  Uiso   1.00
C53    C     0.14712   0.03816   0.27782   0.00000  Uiso   1.00
H54    H     0.15862   0.00585   0.28901   0.00000  Uiso   1.00
H55    H     0.12390   0.05044   0.30317   0.00000  Uiso   1.00
H56    H     0.18304   0.05726   0.27744   0.00000  Uiso   1.00
N57    N     0.23419   0.21890   0.29098   0.00000  Uiso   1.00
H58    H     0.22643   0.24984   0.29451   0.00000  Uiso   1.00
C59    C     0.28907   0.20949   0.30238   0.00000  Uiso   1.00
H60    H     0.30294   0.21729   0.00485   0.00000  Uiso   1.00
H61    H     0.31174   0.22819   0.27947   0.00000  Uiso   1.00
H62    H     0.29624   0.17607   0.29778   0.00000  Uiso   1.00
N63    N     0.09917   0.11442   0.04236   0.00000  Uiso   1.00
H64    H     0.10700   0.08347   0.03889   0.00000  Uiso   1.00
C65    C     0.04427   0.12377   0.03094   0.00000  Uiso   1.00
H66    H     0.02163   0.10506   0.05387   0.00000  Uiso   1.00
H67    H     0.03043   0.11591   0.32848   0.00000  Uiso   1.00
H68    H     0.03705   0.15718   0.03549   0.00000  Uiso   1.00
C69    C     0.50099   0.08665   0.16773   0.00000  Uiso   1.00
C70    C     0.49901   0.24668   0.16560   0.00000  Uiso   1.00
C71    C     0.40060   0.16683   0.15514   0.00000  Uiso   1.00
C72    C     0.59940   0.16650   0.17819   0.00000  Uiso   1.00
C73    C     0.34679   0.17385   0.15006   0.00000  Uiso   1.00
C74    C     0.65321   0.15948   0.18327   0.00000  Uiso   1.00
C75    C     0.53143   0.02304   0.13900   0.00000  Uiso   1.00
C76    C     0.46857   0.31029   0.19433   0.00000  Uiso   1.00
C77    C     0.52588   0.31380   0.13407   0.00000  Uiso   1.00
C78    C     0.47412   0.01954   0.19926   0.00000  Uiso   1.00
C79    C     0.49650   0.29100   0.16338   0.00000  Uiso   1.00
C80    C     0.50350   0.04233   0.16995   0.00000  Uiso   1.00
C81    C     0.53318   0.19185   0.02683   0.00000  Uiso   1.00
C82    C     0.46682   0.14149   0.30650   0.00000  Uiso   1.00
C83    C     0.53349   0.19188   0.31214   0.00000  Uiso   1.00
C84    C     0.46652   0.14145   0.02120   0.00000  Uiso   1.00
H85    H     0.55951   0.21184   0.04746   0.00000  Uiso   1.00
H86    H     0.44049   0.12149   0.28587   0.00000  Uiso   1.00
N87    N     0.49999   0.16666   0.28573   0.00000  Uiso   1.00
N88    N     0.50001   0.16668   0.04760   0.00000  Uiso   1.00
O89    O     0.50000   0.10558   0.20487   0.00000  Uiso   1.00
O90    O     0.50000   0.22775   0.12846   0.00000  Uiso   1.00
O91    O     0.50000   0.10559   0.12843   0.00000  Uiso   1.00
O92    O     0.50000   0.22774   0.20490   0.00000  Uiso   1.00
O93    O     0.42392   0.16666   0.19595   0.00000  Uiso   1.00
O94    O     0.57608   0.16667   0.13739   0.00000  Uiso   1.00
O95    O     0.42392   0.16667   0.11950   0.00000  Uiso   1.00
O96    O     0.57608   0.16666   0.21383   0.00000  Uiso   1.00
Zn97   Zn    0.50000   0.16666   0.21771   0.00000  Uiso   1.00
Zn98   Zn    0.50000   0.16667   0.11563   0.00000  Uiso   1.00
Cl99   Cl    0.65607   0.20967   0.10506   0.00000  Uiso   1.00
Cl100  Cl    0.34393   0.12366   0.22827   0.00000  Uiso   1.00
N101   N     0.56558   0.04687   0.11371   0.00000  Uiso   1.00
H102   H     0.56767   0.03814   0.08090   0.00000  Uiso   1.00
C103   C     0.61622   0.05530   0.13883   0.00000  Uiso   1.00
H104   H     0.63943   0.02631   0.14447   0.00000  Uiso   1.00
H105   H     0.61194   0.06833   0.17229   0.00000  Uiso   1.00
H106   H     0.63738   0.07834   0.11912   0.00000  Uiso   1.00
N107   N     0.43442   0.28646   0.21963   0.00000  Uiso   1.00
H108   H     0.43233   0.29519   0.25243   0.00000  Uiso   1.00
C109   C     0.38378   0.27803   0.19451   0.00000  Uiso   1.00
H110   H     0.36057   0.30702   0.18889   0.00000  Uiso   1.00
H111   H     0.36263   0.25499   0.21422   0.00000  Uiso   1.00
H112   H     0.38805   0.26502   0.16104   0.00000  Uiso   1.00
N113   N     0.55025   0.29387   0.10032   0.00000  Uiso   1.00
H114   H     0.58867   0.30238   0.09948   0.00000  Uiso   1.00
C115   C     0.51955   0.29518   0.05551   0.00000  Uiso   1.00
H116   H     0.50805   0.32749   0.04432   0.00000  Uiso   1.00
H117   H     0.48363   0.27608   0.05589   0.00000  Uiso   1.00
H118   H     0.54277   0.28290   0.03016   0.00000  Uiso   1.00
N119   N     0.44975   0.03946   0.23301   0.00000  Uiso   1.00
H120   H     0.41133   0.03096   0.23386   0.00000  Uiso   1.00
C121   C     0.48045   0.03816   0.27782   0.00000  Uiso   1.00
H122   H     0.49195   0.00585   0.28901   0.00000  Uiso   1.00
H123   H     0.45724   0.05044   0.30317   0.00000  Uiso   1.00
H124   H     0.51637   0.05726   0.27744   0.00000  Uiso   1.00
N125   N     0.56753   0.21890   0.29098   0.00000  Uiso   1.00
H126   H     0.55976   0.24984   0.29451   0.00000  Uiso   1.00
C127   C     0.62241   0.20949   0.30238   0.00000  Uiso   1.00
H128   H     0.63627   0.21729   0.00485   0.00000  Uiso   1.00
H129   H     0.64507   0.22819   0.27947   0.00000  Uiso   1.00
H130   H     0.62957   0.17607   0.29778   0.00000  Uiso   1.00
N131   N     0.43250   0.11442   0.04236   0.00000  Uiso   1.00
H132   H     0.44033   0.08347   0.03889   0.00000  Uiso   1.00
C133   C     0.37760   0.12377   0.03094   0.00000  Uiso   1.00
H134   H     0.35497   0.10506   0.05387   0.00000  Uiso   1.00
H135   H     0.36376   0.11591   0.32848   0.00000  Uiso   1.00
H136   H     0.37038   0.15718   0.03549   0.00000  Uiso   1.00
C137   C     0.83432   0.08665   0.16773   0.00000  Uiso   1.00
C138   C     0.83234   0.24668   0.16560   0.00000  Uiso   1.00
C139   C     0.73393   0.16683   0.15514   0.00000  Uiso   1.00
C140   C     0.93273   0.16650   0.17819   0.00000  Uiso   1.00
C141   C     0.68012   0.17385   0.15006   0.00000  Uiso   1.00
C142   C     0.98655   0.15948   0.18327   0.00000  Uiso   1.00
C143   C     0.86476   0.02304   0.13900   0.00000  Uiso   1.00
C144   C     0.80191   0.31029   0.19433   0.00000  Uiso   1.00
C145   C     0.85921   0.31380   0.13407   0.00000  Uiso   1.00
C146   C     0.80745   0.01954   0.19926   0.00000  Uiso   1.00
C147   C     0.82983   0.29100   0.16338   0.00000  Uiso   1.00
C148   C     0.83683   0.04233   0.16995   0.00000  Uiso   1.00
C149   C     0.86651   0.19185   0.02683   0.00000  Uiso   1.00
C150   C     0.80015   0.14149   0.30650   0.00000  Uiso   1.00
C151   C     0.86682   0.19188   0.31214   0.00000  Uiso   1.00
C152   C     0.79985   0.14145   0.02120   0.00000  Uiso   1.00
H153   H     0.89285   0.21184   0.04746   0.00000  Uiso   1.00
H154   H     0.77382   0.12149   0.28587   0.00000  Uiso   1.00
N155   N     0.83332   0.16666   0.28573   0.00000  Uiso   1.00
N156   N     0.83335   0.16668   0.04760   0.00000  Uiso   1.00
O157   O     0.83333   0.10558   0.20487   0.00000  Uiso   1.00
O158   O     0.83334   0.22775   0.12846   0.00000  Uiso   1.00
O159   O     0.83333   0.10559   0.12843   0.00000  Uiso   1.00
O160   O     0.83334   0.22774   0.20490   0.00000  Uiso   1.00
O161   O     0.75725   0.16666   0.19595   0.00000  Uiso   1.00
O162   O     0.90942   0.16667   0.13739   0.00000  Uiso   1.00
O163   O     0.75725   0.16667   0.11950   0.00000  Uiso   1.00
O164   O     0.90942   0.16666   0.21383   0.00000  Uiso   1.00
Zn165  Zn    0.83333   0.16666   0.21771   0.00000  Uiso   1.00
Zn166  Zn    0.83333   0.16667   0.11563   0.00000  Uiso   1.00
Cl167  Cl    0.98940   0.20967   0.10506   0.00000  Uiso   1.00
Cl168  Cl    0.67726   0.12366   0.22827   0.00000  Uiso   1.00
N169   N     0.89891   0.04687   0.11371   0.00000  Uiso   1.00
H170   H     0.90101   0.03814   0.08090   0.00000  Uiso   1.00
C171   C     0.94955   0.05530   0.13883   0.00000  Uiso   1.00
H172   H     0.97276   0.02631   0.14447   0.00000  Uiso   1.00
H173   H     0.94528   0.06833   0.17229   0.00000  Uiso   1.00
H174   H     0.97071   0.07834   0.11912   0.00000  Uiso   1.00
N175   N     0.76775   0.28646   0.21963   0.00000  Uiso   1.00
H176   H     0.76566   0.29519   0.25243   0.00000  Uiso   1.00
C177   C     0.71711   0.27803   0.19451   0.00000  Uiso   1.00
H178   H     0.69390   0.30702   0.18889   0.00000  Uiso   1.00
H179   H     0.69596   0.25499   0.21422   0.00000  Uiso   1.00
H180   H     0.72138   0.26502   0.16104   0.00000  Uiso   1.00
N181   N     0.88358   0.29387   0.10032   0.00000  Uiso   1.00
H182   H     0.92200   0.30238   0.09948   0.00000  Uiso   1.00
C183   C     0.85288   0.29518   0.05551   0.00000  Uiso   1.00
H184   H     0.84139   0.32749   0.04432   0.00000  Uiso   1.00
H185   H     0.81696   0.27608   0.05589   0.00000  Uiso   1.00
H186   H     0.87610   0.28290   0.03016   0.00000  Uiso   1.00
N187   N     0.78308   0.03946   0.23301   0.00000  Uiso   1.00
H188   H     0.74466   0.03096   0.23386   0.00000  Uiso   1.00
C189   C     0.81379   0.03816   0.27782   0.00000  Uiso   1.00
H190   H     0.82528   0.00585   0.28901   0.00000  Uiso   1.00
H191   H     0.79057   0.05044   0.30317   0.00000  Uiso   1.00
H192   H     0.84971   0.05726   0.27744   0.00000  Uiso   1.00
N193   N     0.90086   0.21890   0.29098   0.00000  Uiso   1.00
H194   H     0.89309   0.24984   0.29451   0.00000  Uiso   1.00
C195   C     0.95574   0.20949   0.30238   0.00000  Uiso   1.00
H196   H     0.96960   0.21729   0.00485   0.00000  Uiso   1.00
H197   H     0.97840   0.22819   0.27947   0.00000  Uiso   1.00
H198   H     0.96290   0.17607   0.29778   0.00000  Uiso   1.00
N199   N     0.76583   0.11442   0.04236   0.00000  Uiso   1.00
H200   H     0.77366   0.08347   0.03889   0.00000  Uiso   1.00
C201   C     0.71094   0.12377   0.03094   0.00000  Uiso   1.00
H202   H     0.68830   0.10506   0.05387   0.00000  Uiso   1.00
H203   H     0.69710   0.11591   0.32848   0.00000  Uiso   1.00
H204   H     0.70372   0.15718   0.03549   0.00000  Uiso   1.00
C205   C     0.16765   0.41999   0.16773   0.00000  Uiso   1.00
C206   C     0.16568   0.58001   0.16560   0.00000  Uiso   1.00
C207   C     0.06727   0.50017   0.15514   0.00000  Uiso   1.00
C208   C     0.26607   0.49983   0.17819   0.00000  Uiso   1.00
C209   C     0.01345   0.50719   0.15006   0.00000  Uiso   1.00
C210   C     0.31988   0.49281   0.18327   0.00000  Uiso   1.00
C211   C     0.19809   0.35637   0.13900   0.00000  Uiso   1.00
C212   C     0.13524   0.64363   0.19433   0.00000  Uiso   1.00
C213   C     0.19254   0.64713   0.13407   0.00000  Uiso   1.00
C214   C     0.14079   0.35287   0.19926   0.00000  Uiso   1.00
C215   C     0.16316   0.62433   0.16338   0.00000  Uiso   1.00
C216   C     0.17017   0.37567   0.16995   0.00000  Uiso   1.00
C217   C     0.19984   0.52518   0.02683   0.00000  Uiso   1.00
C218   C     0.13349   0.47482   0.30650   0.00000  Uiso   1.00
C219   C     0.20015   0.52522   0.31214   0.00000  Uiso   1.00
C220   C     0.13318   0.47478   0.02120   0.00000  Uiso   1.00
H221   H     0.22618   0.54518   0.04746   0.00000  Uiso   1.00
H222   H     0.10716   0.45482   0.28587   0.00000  Uiso   1.00
N223   N     0.16665   0.49999   0.28573   0.00000  Uiso   1.00
N224   N     0.16668   0.50001   0.04760   0.00000  Uiso   1.00
O225   O     0.16666   0.43892   0.20487   0.00000  Uiso   1.00
O226   O     0.16667   0.56108   0.12846   0.00000  Uiso   1.00
O227   O     0.16666   0.43893   0.12843   0.00000  Uiso   1.00
O228   O     0.16667   0.56107   0.20490   0.00000  Uiso   1.00
O229   O     0.09058   0.50000   0.19595   0.00000  Uiso   1.00
O230   O     0.24275   0.50000   0.13739   0.00000  Uiso   1.00
O231   O     0.09058   0.50000   0.11950   0.00000  Uiso   1.00
O232   O     0.24275   0.50000   0.21383   0.00000  Uiso   1.00
Zn233  Zn    0.16667   0.49999   0.21771   0.00000  Uiso   1.00
Zn234  Zn    0.16667   0.50001   0.11563   0.00000  Uiso   1.00
Cl235  Cl    0.32274   0.54300   0.10506   0.00000  Uiso   1.00
Cl236  Cl    0.01060   0.45699   0.22827   0.00000  Uiso   1.00
N237   N     0.23225   0.38020   0.11371   0.00000  Uiso   1.00
H238   H     0.23434   0.37147   0.08090   0.00000  Uiso   1.00
C239   C     0.28288   0.38864   0.13883   0.00000  Uiso   1.00
H240   H     0.30609   0.35965   0.14447   0.00000  Uiso   1.00
H241   H     0.27861   0.40166   0.17229   0.00000  Uiso   1.00
H242   H     0.30404   0.41167   0.11912   0.00000  Uiso   1.00
N243   N     0.10109   0.61980   0.21963   0.00000  Uiso   1.00
H244   H     0.09900   0.62852   0.25243   0.00000  Uiso   1.00
C245   C     0.05045   0.61137   0.19451   0.00000  Uiso   1.00
H246   H     0.02723   0.64035   0.18889   0.00000  Uiso   1.00
H247   H     0.02930   0.58832   0.21422   0.00000  Uiso   1.00
H248   H     0.05471   0.59835   0.16104   0.00000  Uiso   1.00
N249   N     0.21691   0.62721   0.10032   0.00000  Uiso   1.00
H250   H     0.25534   0.63571   0.09948   0.00000  Uiso   1.00
C251   C     0.18621   0.62851   0.05551   0.00000  Uiso   1.00
H252   H     0.17472   0.66082   0.04432   0.00000  Uiso   1.00
H253   H     0.15029   0.60941   0.05589   0.00000  Uiso   1.00
H254   H     0.20943   0.61623   0.03016   0.00000  Uiso   1.00
N255   N     0.11642   0.37279   0.23301   0.00000  Uiso   1.00
H256   H     0.07800   0.36429   0.23386   0.00000  Uiso   1.00
C257   C     0.14712   0.37149   0.27782   0.00000  Uiso   1.00
H258   H     0.15862   0.33919   0.28901   0.00000  Uiso   1.00
H259   H     0.12390   0.38377   0.30317   0.00000  Uiso   1.00
H260   H     0.18304   0.39060   0.27744   0.00000  Uiso   1.00
N261   N     0.23419   0.55223   0.29098   0.00000  Uiso   1.00
H262   H     0.22643   0.58318   0.29451   0.00000  Uiso   1.00
C263   C     0.28907   0.54282   0.30238   0.00000  Uiso   1.00
H264   H     0.30294   0.55062   0.00485   0.00000  Uiso   1.00
H265   H     0.31174   0.56152   0.27947   0.00000  Uiso   1.00
H266   H     0.29624   0.50940   0.29778   0.00000  Uiso   1.00
N267   N     0.09917   0.44775   0.04236   0.00000  Uiso   1.00
H268   H     0.10700   0.41681   0.03889   0.00000  Uiso   1.00
C269   C     0.04427   0.45710   0.03094   0.00000  Uiso   1.00
H270   H     0.02163   0.43840   0.05387   0.00000  Uiso   1.00
H271   H     0.03043   0.44925   0.32848   0.00000  Uiso   1.00
H272   H     0.03705   0.49052   0.03549   0.00000  Uiso   1.00
C273   C     0.50099   0.41999   0.16773   0.00000  Uiso   1.00
C274   C     0.49901   0.58001   0.16560   0.00000  Uiso   1.00
C275   C     0.40060   0.50017   0.15514   0.00000  Uiso   1.00
C276   C     0.59940   0.49983   0.17819   0.00000  Uiso   1.00
C277   C     0.34679   0.50719   0.15006   0.00000  Uiso   1.00
C278   C     0.65321   0.49281   0.18327   0.00000  Uiso   1.00
C279   C     0.53143   0.35637   0.13900   0.00000  Uiso   1.00
C280   C     0.46857   0.64363   0.19433   0.00000  Uiso   1.00
C281   C     0.52588   0.64713   0.13407   0.00000  Uiso   1.00
C282   C     0.47412   0.35287   0.19926   0.00000  Uiso   1.00
C283   C     0.49650   0.62433   0.16338   0.00000  Uiso   1.00
C284   C     0.50350   0.37567   0.16995   0.00000  Uiso   1.00
C285   C     0.53318   0.52518   0.02683   0.00000  Uiso   1.00
C286   C     0.46682   0.47482   0.30650   0.00000  Uiso   1.00
C287   C     0.53349   0.52522   0.31214   0.00000  Uiso   1.00
C288   C     0.46652   0.47478   0.02120   0.00000  Uiso   1.00
H289   H     0.55951   0.54518   0.04746   0.00000  Uiso   1.00
H290   H     0.44049   0.45482   0.28587   0.00000  Uiso   1.00
N291   N     0.49999   0.49999   0.28573   0.00000  Uiso   1.00
N292   N     0.50001   0.50001   0.04760   0.00000  Uiso   1.00
O293   O     0.50000   0.43892   0.20487   0.00000  Uiso   1.00
O294   O     0.50000   0.56108   0.12846   0.00000  Uiso   1.00
O295   O     0.50000   0.43893   0.12843   0.00000  Uiso   1.00
O296   O     0.50000   0.56107   0.20490   0.00000  Uiso   1.00
O297   O     0.42392   0.50000   0.19595   0.00000  Uiso   1.00
O298   O     0.57608   0.50000   0.13739   0.00000  Uiso   1.00
O299   O     0.42392   0.50000   0.11950   0.00000  Uiso   1.00
O300   O     0.57608   0.50000   0.21383   0.00000  Uiso   1.00
Zn301  Zn    0.50000   0.49999   0.21771   0.00000  Uiso   1.00
Zn302  Zn    0.50000   0.50001   0.11563   0.00000  Uiso   1.00
Cl303  Cl    0.65607   0.54300   0.10506   0.00000  Uiso   1.00
Cl304  Cl    0.34393   0.45699   0.22827   0.00000  Uiso   1.00
N305   N     0.56558   0.38020   0.11371   0.00000  Uiso   1.00
H306   H     0.56767   0.37147   0.08090   0.00000  Uiso   1.00
C307   C     0.61622   0.38864   0.13883   0.00000  Uiso   1.00
H308   H     0.63943   0.35965   0.14447   0.00000  Uiso   1.00
H309   H     0.61194   0.40166   0.17229   0.00000  Uiso   1.00
H310   H     0.63738   0.41167   0.11912   0.00000  Uiso   1.00
N311   N     0.43442   0.61980   0.21963   0.00000  Uiso   1.00
H312   H     0.43233   0.62852   0.25243   0.00000  Uiso   1.00
C313   C     0.38378   0.61137   0.19451   0.00000  Uiso   1.00
H314   H     0.36057   0.64035   0.18889   0.00000  Uiso   1.00
H315   H     0.36263   0.58832   0.21422   0.00000  Uiso   1.00
H316   H     0.38805   0.59835   0.16104   0.00000  Uiso   1.00
N317   N     0.55025   0.62721   0.10032   0.00000  Uiso   1.00
H318   H     0.58867   0.63571   0.09948   0.00000  Uiso   1.00
C319   C     0.51955   0.62851   0.05551   0.00000  Uiso   1.00
H320   H     0.50805   0.66082   0.04432   0.00000  Uiso   1.00
H321   H     0.48363   0.60941   0.05589   0.00000  Uiso   1.00
H322   H     0.54277   0.61623   0.03016   0.00000  Uiso   1.00
N323   N     0.44975   0.37279   0.23301   0.00000  Uiso   1.00
H324   H     0.41133   0.36429   0.23386   0.00000  Uiso   1.00
C325   C     0.48045   0.37149   0.27782   0.00000  Uiso   1.00
H326   H     0.49195   0.33919   0.28901   0.00000  Uiso   1.00
H327   H     0.45724   0.38377   0.30317   0.00000  Uiso   1.00
H328   H     0.51637   0.39060   0.27744   0.00000  Uiso   1.00
N329   N     0.56753   0.55223   0.29098   0.00000  Uiso   1.00
H330   H     0.55976   0.58318   0.29451   0.00000  Uiso   1.00
C331   C     0.62241   0.54282   0.30238   0.00000  Uiso   1.00
H332   H     0.63627   0.55062   0.00485   0.00000  Uiso   1.00
H333   H     0.64507   0.56152   0.27947   0.00000  Uiso   1.00
H334   H     0.62957   0.50940   0.29778   0.00000  Uiso   1.00
N335   N     0.43250   0.44775   0.04236   0.00000  Uiso   1.00
H336   H     0.44033   0.41681   0.03889   0.00000  Uiso   1.00
C337   C     0.37760   0.45710   0.03094   0.00000  Uiso   1.00
H338   H     0.35497   0.43840   0.05387   0.00000  Uiso   1.00
H339   H     0.36376   0.44925   0.32848   0.00000  Uiso   1.00
H340   H     0.37038   0.49052   0.03549   0.00000  Uiso   1.00
C341   C     0.83432   0.41999   0.16773   0.00000  Uiso   1.00
C342   C     0.83234   0.58001   0.16560   0.00000  Uiso   1.00
C343   C     0.73393   0.50017   0.15514   0.00000  Uiso   1.00
C344   C     0.93273   0.49983   0.17819   0.00000  Uiso   1.00
C345   C     0.68012   0.50719   0.15006   0.00000  Uiso   1.00
C346   C     0.98655   0.49281   0.18327   0.00000  Uiso   1.00
C347   C     0.86476   0.35637   0.13900   0.00000  Uiso   1.00
C348   C     0.80191   0.64363   0.19433   0.00000  Uiso   1.00
C349   C     0.85921   0.64713   0.13407   0.00000  Uiso   1.00
C350   C     0.80745   0.35287   0.19926   0.00000  Uiso   1.00
C351   C     0.82983   0.62433   0.16338   0.00000  Uiso   1.00
C352   C     0.83683   0.37567   0.16995   0.00000  Uiso   1.00
C353   C     0.86651   0.52518   0.02683   0.00000  Uiso   1.00
C354   C     0.80015   0.47482   0.30650   0.00000  Uiso   1.00
C355   C     0.86682   0.52522   0.31214   0.00000  Uiso   1.00
C356   C     0.79985   0.47478   0.02120   0.00000  Uiso   1.00
H357   H     0.89285   0.54518   0.04746   0.00000  Uiso   1.00
H358   H     0.77382   0.45482   0.28587   0.00000  Uiso   1.00
N359   N     0.83332   0.49999   0.28573   0.00000  Uiso   1.00
N360   N     0.83335   0.50001   0.04760   0.00000  Uiso   1.00
O361   O     0.83333   0.43892   0.20487   0.00000  Uiso   1.00
O362   O     0.83334   0.56108   0.12846   0.00000  Uiso   1.00
O363   O     0.83333   0.43893   0.12843   0.00000  Uiso   1.00
O364   O     0.83334   0.56107   0.20490   0.00000  Uiso   1.00
O365   O     0.75725   0.50000   0.19595   0.00000  Uiso   1.00
O366   O     0.90942   0.50000   0.13739   0.00000  Uiso   1.00
O367   O     0.75725   0.50000   0.11950   0.00000  Uiso   1.00
O368   O     0.90942   0.50000   0.21383   0.00000  Uiso   1.00
Zn369  Zn    0.83333   0.49999   0.21771   0.00000  Uiso   1.00
Zn370  Zn    0.83333   0.50001   0.11563   0.00000  Uiso   1.00
Cl371  Cl    0.98940   0.54300   0.10506   0.00000  Uiso   1.00
Cl372  Cl    0.67726   0.45699   0.22827   0.00000  Uiso   1.00
N373   N     0.89891   0.38020   0.11371   0.00000  Uiso   1.00
H374   H     0.90101   0.37147   0.08090   0.00000  Uiso   1.00
C375   C     0.94955   0.38864   0.13883   0.00000  Uiso   1.00
H376   H     0.97276   0.35965   0.14447   0.00000  Uiso   1.00
H377   H     0.94528   0.40166   0.17229   0.00000  Uiso   1.00
H378   H     0.97071   0.41167   0.11912   0.00000  Uiso   1.00
N379   N     0.76775   0.61980   0.21963   0.00000  Uiso   1.00
H380   H     0.76566   0.62852   0.25243   0.00000  Uiso   1.00
C381   C     0.71711   0.61137   0.19451   0.00000  Uiso   1.00
H382   H     0.69390   0.64035   0.18889   0.00000  Uiso   1.00
H383   H     0.69596   0.58832   0.21422   0.00000  Uiso   1.00
H384   H     0.72138   0.59835   0.16104   0.00000  Uiso   1.00
N385   N     0.88358   0.62721   0.10032   0.00000  Uiso   1.00
H386   H     0.92200   0.63571   0.09948   0.00000  Uiso   1.00
C387   C     0.85288   0.62851   0.05551   0.00000  Uiso   1.00
H388   H     0.84139   0.66082   0.04432   0.00000  Uiso   1.00
H389   H     0.81696   0.60941   0.05589   0.00000  Uiso   1.00
H390   H     0.87610   0.61623   0.03016   0.00000  Uiso   1.00
N391   N     0.78308   0.37279   0.23301   0.00000  Uiso   1.00
H392   H     0.74466   0.36429   0.23386   0.00000  Uiso   1.00
C393   C     0.81379   0.37149   0.27782   0.00000  Uiso   1.00
H394   H     0.82528   0.33919   0.28901   0.00000  Uiso   1.00
H395   H     0.79057   0.38377   0.30317   0.00000  Uiso   1.00
H396   H     0.84971   0.39060   0.27744   0.00000  Uiso   1.00
N397   N     0.90086   0.55223   0.29098   0.00000  Uiso   1.00
H398   H     0.89309   0.58318   0.29451   0.00000  Uiso   1.00
C399   C     0.95574   0.54282   0.30238   0.00000  Uiso   1.00
H400   H     0.96960   0.55062   0.00485   0.00000  Uiso   1.00
H401   H     0.97840   0.56152   0.27947   0.00000  Uiso   1.00
H402   H     0.96290   0.50940   0.29778   0.00000  Uiso   1.00
N403   N     0.76583   0.44775   0.04236   0.00000  Uiso   1.00
H404   H     0.77366   0.41681   0.03889   0.00000  Uiso   1.00
C405   C     0.71094   0.45710   0.03094   0.00000  Uiso   1.00
H406   H     0.68830   0.43840   0.05387   0.00000  Uiso   1.00
H407   H     0.69710   0.44925   0.32848   0.00000  Uiso   1.00
H408   H     0.70372   0.49052   0.03549   0.00000  Uiso   1.00
C409   C     0.16765   0.75332   0.16773   0.00000  Uiso   1.00
C410   C     0.16568   0.91335   0.16560   0.00000  Uiso   1.00
C411   C     0.06727   0.83350   0.15514   0.00000  Uiso   1.00
C412   C     0.26607   0.83317   0.17819   0.00000  Uiso   1.00
C413   C     0.01345   0.84052   0.15006   0.00000  Uiso   1.00
C414   C     0.31988   0.82615   0.18327   0.00000  Uiso   1.00
C415   C     0.19809   0.68971   0.13900   0.00000  Uiso   1.00
C416   C     0.13524   0.97696   0.19433   0.00000  Uiso   1.00
C417   C     0.19254   0.98046   0.13407   0.00000  Uiso   1.00
C418   C     0.14079   0.68620   0.19926   0.00000  Uiso   1.00
C419   C     0.16316   0.95767   0.16338   0.00000  Uiso   1.00
C420   C     0.17017   0.70900   0.16995   0.00000  Uiso   1.00
C421   C     0.19984   0.85851   0.02683   0.00000  Uiso   1.00
C422   C     0.13349   0.80816   0.30650   0.00000  Uiso   1.00
C423   C     0.20015   0.85855   0.31214   0.00000  Uiso   1.00
C424   C     0.13318   0.80812   0.02120   0.00000  Uiso   1.00
H425   H     0.22618   0.87851   0.04746   0.00000  Uiso   1.00
H426   H     0.10716   0.78815   0.28587   0.00000  Uiso   1.00
N427   N     0.16665   0.83332   0.28573   0.00000  Uiso   1.00
N428   N     0.16668   0.83334   0.04760   0.00000  Uiso   1.00
O429   O     0.16666   0.77225   0.20487   0.00000  Uiso   1.00
O430   O     0.16667   0.89442   0.12846   0.00000  Uiso   1.00
O431   O     0.16666   0.77226   0.12843   0.00000  Uiso   1.00
O432   O     0.16667   0.89441   0.20490   0.00000  Uiso   1.00
O433   O     0.09058   0.83333   0.19595   0.00000  Uiso   1.00
O434   O     0.24275   0.83334   0.13739   0.00000  Uiso   1.00
O435   O     0.09058   0.83334   0.11950   0.00000  Uiso   1.00
O436   O     0.24275   0.83333   0.21383   0.00000  Uiso   1.00
Zn437  Zn    0.16667   0.83333   0.21771   0.00000  Uiso   1.00
Zn438  Zn    0.16667   0.83334   0.11563   0.00000  Uiso   1.00
Cl439  Cl    0.32274   0.87634   0.10506   0.00000  Uiso   1.00
Cl440  Cl    0.01060   0.79033   0.22827   0.00000  Uiso   1.00
N441   N     0.23225   0.71354   0.11371   0.00000  Uiso   1.00
H442   H     0.23434   0.70481   0.08090   0.00000  Uiso   1.00
C443   C     0.28288   0.72197   0.13883   0.00000  Uiso   1.00
H444   H     0.30609   0.69298   0.14447   0.00000  Uiso   1.00
H445   H     0.27861   0.73500   0.17229   0.00000  Uiso   1.00
H446   H     0.30404   0.74500   0.11912   0.00000  Uiso   1.00
N447   N     0.10109   0.95313   0.21963   0.00000  Uiso   1.00
H448   H     0.09900   0.96186   0.25243   0.00000  Uiso   1.00
C449   C     0.05045   0.94470   0.19451   0.00000  Uiso   1.00
H450   H     0.02723   0.97369   0.18889   0.00000  Uiso   1.00
H451   H     0.02930   0.92166   0.21422   0.00000  Uiso   1.00
H452   H     0.05471   0.93169   0.16104   0.00000  Uiso   1.00
N453   N     0.21691   0.96054   0.10032   0.00000  Uiso   1.00
H454   H     0.25534   0.96904   0.09948   0.00000  Uiso   1.00
C455   C     0.18621   0.96185   0.05551   0.00000  Uiso   1.00
H456   H     0.17472   0.99415   0.04432   0.00000  Uiso   1.00
H457   H     0.15029   0.94274   0.05589   0.00000  Uiso   1.00
H458   H     0.20943   0.94956   0.03016   0.00000  Uiso   1.00
N459   N     0.11642   0.70613   0.23301   0.00000  Uiso   1.00
H460   H     0.07800   0.69762   0.23386   0.00000  Uiso   1.00
C461   C     0.14712   0.70482   0.27782   0.00000  Uiso   1.00
H462   H     0.15862   0.67252   0.28901   0.00000  Uiso   1.00
H463   H     0.12390   0.71711   0.30317   0.00000  Uiso   1.00
H464   H     0.18304   0.72393   0.27744   0.00000  Uiso   1.00
N465   N     0.23419   0.88556   0.29098   0.00000  Uiso   1.00
H466   H     0.22643   0.91651   0.29451   0.00000  Uiso   1.00
C467   C     0.28907   0.87615   0.30238   0.00000  Uiso   1.00
H468   H     0.30294   0.88396   0.00485   0.00000  Uiso   1.00
H469   H     0.31174   0.89485   0.27947   0.00000  Uiso   1.00
H470   H     0.29624   0.84273   0.29778   0.00000  Uiso   1.00
N471   N     0.09917   0.78108   0.04236   0.00000  Uiso   1.00
H472   H     0.10700   0.75014   0.03889   0.00000  Uiso   1.00
C473   C     0.04427   0.79043   0.03094   0.00000  Uiso   1.00
H474   H     0.02163   0.77173   0.05387   0.00000  Uiso   1.00
H475   H     0.03043   0.78258   0.32848   0.00000  Uiso   1.00
H476   H     0.03705   0.82385   0.03549   0.00000  Uiso   1.00
C477   C     0.50099   0.75332   0.16773   0.00000  Uiso   1.00
C478   C     0.49901   0.91335   0.16560   0.00000  Uiso   1.00
C479   C     0.40060   0.83350   0.15514   0.00000  Uiso   1.00
C480   C     0.59940   0.83317   0.17819   0.00000  Uiso   1.00
C481   C     0.34679   0.84052   0.15006   0.00000  Uiso   1.00
C482   C     0.65321   0.82615   0.18327   0.00000  Uiso   1.00
C483   C     0.53143   0.68971   0.13900   0.00000  Uiso   1.00
C484   C     0.46857   0.97696   0.19433   0.00000  Uiso   1.00
C485   C     0.52588   0.98046   0.13407   0.00000  Uiso   1.00
C486   C     0.47412   0.68620   0.19926   0.00000  Uiso   1.00
C487   C     0.49650   0.95767   0.16338   0.00000  Uiso   1.00
C488   C     0.50350   0.70900   0.16995   0.00000  Uiso   1.00
C489   C     0.53318   0.85851   0.02683   0.00000  Uiso   1.00
C490   C     0.46682   0.80816   0.30650   0.00000  Uiso   1.00
C491   C     0.53349   0.85855   0.31214   0.00000  Uiso   1.00
C492   C     0.46652   0.80812   0.02120   0.00000  Uiso   1.00
H493   H     0.55951   0.87851   0.04746   0.00000  Uiso   1.00
H494   H     0.44049   0.78815   0.28587   0.00000  Uiso   1.00
N495   N     0.49999   0.83332   0.28573   0.00000  Uiso   1.00
N496   N     0.50001   0.83334   0.04760   0.00000  Uiso   1.00
O497   O     0.50000   0.77225   0.20487   0.00000  Uiso   1.00
O498   O     0.50000   0.89442   0.12846   0.00000  Uiso   1.00
O499   O     0.50000   0.77226   0.12843   0.00000  Uiso   1.00
O500   O     0.50000   0.89441   0.20490   0.00000  Uiso   1.00
O501   O     0.42392   0.83333   0.19595   0.00000  Uiso   1.00
O502   O     0.57608   0.83334   0.13739   0.00000  Uiso   1.00
O503   O     0.42392   0.83334   0.11950   0.00000  Uiso   1.00
O504   O     0.57608   0.83333   0.21383   0.00000  Uiso   1.00
Zn505  Zn    0.50000   0.83333   0.21771   0.00000  Uiso   1.00
Zn506  Zn    0.50000   0.83334   0.11563   0.00000  Uiso   1.00
Cl507  Cl    0.65607   0.87634   0.10506   0.00000  Uiso   1.00
Cl508  Cl    0.34393   0.79033   0.22827   0.00000  Uiso   1.00
N509   N     0.56558   0.71354   0.11371   0.00000  Uiso   1.00
H510   H     0.56767   0.70481   0.08090   0.00000  Uiso   1.00
C511   C     0.61622   0.72197   0.13883   0.00000  Uiso   1.00
H512   H     0.63943   0.69298   0.14447   0.00000  Uiso   1.00
H513   H     0.61194   0.73500   0.17229   0.00000  Uiso   1.00
H514   H     0.63738   0.74500   0.11912   0.00000  Uiso   1.00
N515   N     0.43442   0.95313   0.21963   0.00000  Uiso   1.00
H516   H     0.43233   0.96186   0.25243   0.00000  Uiso   1.00
C517   C     0.38378   0.94470   0.19451   0.00000  Uiso   1.00
H518   H     0.36057   0.97369   0.18889   0.00000  Uiso   1.00
H519   H     0.36263   0.92166   0.21422   0.00000  Uiso   1.00
H520   H     0.38805   0.93169   0.16104   0.00000  Uiso   1.00
N521   N     0.55025   0.96054   0.10032   0.00000  Uiso   1.00
H522   H     0.58867   0.96904   0.09948   0.00000  Uiso   1.00
C523   C     0.51955   0.96185   0.05551   0.00000  Uiso   1.00
H524   H     0.50805   0.99415   0.04432   0.00000  Uiso   1.00
H525   H     0.48363   0.94274   0.05589   0.00000  Uiso   1.00
H526   H     0.54277   0.94956   0.03016   0.00000  Uiso   1.00
N527   N     0.44975   0.70613   0.23301   0.00000  Uiso   1.00
H528   H     0.41133   0.69762   0.23386   0.00000  Uiso   1.00
C529   C     0.48045   0.70482   0.27782   0.00000  Uiso   1.00
H530   H     0.49195   0.67252   0.28901   0.00000  Uiso   1.00
H531   H     0.45724   0.71711   0.30317   0.00000  Uiso   1.00
H532   H     0.51637   0.72393   0.27744   0.00000  Uiso   1.00
N533   N     0.56753   0.88556   0.29098   0.00000  Uiso   1.00
H534   H     0.55976   0.91651   0.29451   0.00000  Uiso   1.00
C535   C     0.62241   0.87615   0.30238   0.00000  Uiso   1.00
H536   H     0.63627   0.88396   0.00485   0.00000  Uiso   1.00
H537   H     0.64507   0.89485   0.27947   0.00000  Uiso   1.00
H538   H     0.62957   0.84273   0.29778   0.00000  Uiso   1.00
N539   N     0.43250   0.78108   0.04236   0.00000  Uiso   1.00
H540   H     0.44033   0.75014   0.03889   0.00000  Uiso   1.00
C541   C     0.37760   0.79043   0.03094   0.00000  Uiso   1.00
H542   H     0.35497   0.77173   0.05387   0.00000  Uiso   1.00
H543   H     0.36376   0.78258   0.32848   0.00000  Uiso   1.00
H544   H     0.37038   0.82385   0.03549   0.00000  Uiso   1.00
C545   C     0.83432   0.75332   0.16773   0.00000  Uiso   1.00
C546   C     0.83234   0.91335   0.16560   0.00000  Uiso   1.00
C547   C     0.73393   0.83350   0.15514   0.00000  Uiso   1.00
C548   C     0.93273   0.83317   0.17819   0.00000  Uiso   1.00
C549   C     0.68012   0.84052   0.15006   0.00000  Uiso   1.00
C550   C     0.98655   0.82615   0.18327   0.00000  Uiso   1.00
C551   C     0.86476   0.68971   0.13900   0.00000  Uiso   1.00
C552   C     0.80191   0.97696   0.19433   0.00000  Uiso   1.00
C553   C     0.85921   0.98046   0.13407   0.00000  Uiso   1.00
C554   C     0.80745   0.68620   0.19926   0.00000  Uiso   1.00
C555   C     0.82983   0.95767   0.16338   0.00000  Uiso   1.00
C556   C     0.83683   0.70900   0.16995   0.00000  Uiso   1.00
C557   C     0.86651   0.85851   0.02683   0.00000  Uiso   1.00
C558   C     0.80015   0.80816   0.30650   0.00000  Uiso   1.00
C559   C     0.86682   0.85855   0.31214   0.00000  Uiso   1.00
C560   C     0.79985   0.80812   0.02120   0.00000  Uiso   1.00
H561   H     0.89285   0.87851   0.04746   0.00000  Uiso   1.00
H562   H     0.77382   0.78815   0.28587   0.00000  Uiso   1.00
N563   N     0.83332   0.83332   0.28573   0.00000  Uiso   1.00
N564   N     0.83335   0.83334   0.04760   0.00000  Uiso   1.00
O565   O     0.83333   0.77225   0.20487   0.00000  Uiso   1.00
O566   O     0.83334   0.89442   0.12846   0.00000  Uiso   1.00
O567   O     0.83333   0.77226   0.12843   0.00000  Uiso   1.00
O568   O     0.83334   0.89441   0.20490   0.00000  Uiso   1.00
O569   O     0.75725   0.83333   0.19595   0.00000  Uiso   1.00
O570   O     0.90942   0.83334   0.13739   0.00000  Uiso   1.00
O571   O     0.75725   0.83334   0.11950   0.00000  Uiso   1.00
O572   O     0.90942   0.83333   0.21383   0.00000  Uiso   1.00
Zn573  Zn    0.83333   0.83333   0.21771   0.00000  Uiso   1.00
Zn574  Zn    0.83333   0.83334   0.11563   0.00000  Uiso   1.00
Cl575  Cl    0.98940   0.87634   0.10506   0.00000  Uiso   1.00
Cl576  Cl    0.67726   0.79033   0.22827   0.00000  Uiso   1.00
N577   N     0.89891   0.71354   0.11371   0.00000  Uiso   1.00
H578   H     0.90101   0.70481   0.08090   0.00000  Uiso   1.00
C579   C     0.94955   0.72197   0.13883   0.00000  Uiso   1.00
H580   H     0.97276   0.69298   0.14447   0.00000  Uiso   1.00
H581   H     0.94528   0.73500   0.17229   0.00000  Uiso   1.00
H582   H     0.97071   0.74500   0.11912   0.00000  Uiso   1.00
N583   N     0.76775   0.95313   0.21963   0.00000  Uiso   1.00
H584   H     0.76566   0.96186   0.25243   0.00000  Uiso   1.00
C585   C     0.71711   0.94470   0.19451   0.00000  Uiso   1.00
H586   H     0.69390   0.97369   0.18889   0.00000  Uiso   1.00
H587   H     0.69596   0.92166   0.21422   0.00000  Uiso   1.00
H588   H     0.72138   0.93169   0.16104   0.00000  Uiso   1.00
N589   N     0.88358   0.96054   0.10032   0.00000  Uiso   1.00
H590   H     0.92200   0.96904   0.09948   0.00000  Uiso   1.00
C591   C     0.85288   0.96185   0.05551   0.00000  Uiso   1.00
H592   H     0.84139   0.99415   0.04432   0.00000  Uiso   1.00
H593   H     0.81696   0.94274   0.05589   0.00000  Uiso   1.00
H594   H     0.87610   0.94956   0.03016   0.00000  Uiso   1.00
N595   N     0.78308   0.70613   0.23301   0.00000  Uiso   1.00
H596   H     0.74466   0.69762   0.23386   0.00000  Uiso   1.00
C597   C     0.81379   0.70482   0.27782   0.00000  Uiso   1.00
H598   H     0.82528   0.67252   0.28901   0.00000  Uiso   1.00
H599   H     0.79057   0.71711   0.30317   0.00000  Uiso   1.00
H600   H     0.84971   0.72393   0.27744   0.00000  Uiso   1.00
N601   N     0.90086   0.88556   0.29098   0.00000  Uiso   1.00
H602   H     0.89309   0.91651   0.29451   0.00000  Uiso   1.00
C603   C     0.95574   0.87615   0.30238   0.00000  Uiso   1.00
H604   H     0.96960   0.88396   0.00485   0.00000  Uiso   1.00
H605   H     0.97840   0.89485   0.27947   0.00000  Uiso   1.00
H606   H     0.96290   0.84273   0.29778   0.00000  Uiso   1.00
N607   N     0.76583   0.78108   0.04236   0.00000  Uiso   1.00
H608   H     0.77366   0.75014   0.03889   0.00000  Uiso   1.00
C609   C     0.71094   0.79043   0.03094   0.00000  Uiso   1.00
H610   H     0.68830   0.77173   0.05387   0.00000  Uiso   1.00
H611   H     0.69710   0.78258   0.32848   0.00000  Uiso   1.00
H612   H     0.70372   0.82385   0.03549   0.00000  Uiso   1.00
C613   C     0.16765   0.08665   0.50107   0.00000  Uiso   1.00
C614   C     0.16568   0.24668   0.49893   0.00000  Uiso   1.00
C615   C     0.06727   0.16683   0.48848   0.00000  Uiso   1.00
C616   C     0.26607   0.16650   0.51152   0.00000  Uiso   1.00
C617   C     0.01345   0.17385   0.48340   0.00000  Uiso   1.00
C618   C     0.31988   0.15948   0.51660   0.00000  Uiso   1.00
C619   C     0.19809   0.02304   0.47234   0.00000  Uiso   1.00
C620   C     0.13524   0.31029   0.52766   0.00000  Uiso   1.00
C621   C     0.19254   0.31380   0.46741   0.00000  Uiso   1.00
C622   C     0.14079   0.01954   0.53259   0.00000  Uiso   1.00
C623   C     0.16316   0.29100   0.49672   0.00000  Uiso   1.00
C624   C     0.17017   0.04233   0.50328   0.00000  Uiso   1.00
C625   C     0.19984   0.19185   0.36016   0.00000  Uiso   1.00
C626   C     0.13349   0.14149   0.63984   0.00000  Uiso   1.00
C627   C     0.20015   0.19188   0.64547   0.00000  Uiso   1.00
C628   C     0.13318   0.14145   0.35453   0.00000  Uiso   1.00
H629   H     0.22618   0.21184   0.38080   0.00000  Uiso   1.00
H630   H     0.10716   0.12149   0.61920   0.00000  Uiso   1.00
N631   N     0.16665   0.16666   0.61907   0.00000  Uiso   1.00
N632   N     0.16668   0.16668   0.38093   0.00000  Uiso   1.00
O633   O     0.16666   0.10558   0.53821   0.00000  Uiso   1.00
O634   O     0.16667   0.22775   0.46179   0.00000  Uiso   1.00
O635   O     0.16666   0.10559   0.46176   0.00000  Uiso   1.00
O636   O     0.16667   0.22774   0.53824   0.00000  Uiso   1.00
O637   O     0.09058   0.16666   0.52928   0.00000  Uiso   1.00
O638   O     0.24275   0.16667   0.47072   0.00000  Uiso   1.00
O639   O     0.09058   0.16667   0.45284   0.00000  Uiso   1.00
O640   O     0.24275   0.16666   0.54716   0.00000  Uiso   1.00
Zn641  Zn    0.16667   0.16666   0.55104   0.00000  Uiso   1.00
Zn642  Zn    0.16667   0.16667   0.44896   0.00000  Uiso   1.00
Cl643  Cl    0.32274   0.20967   0.43840   0.00000  Uiso   1.00
Cl644  Cl    0.01060   0.12366   0.56160   0.00000  Uiso   1.00
N645   N     0.23225   0.04687   0.44704   0.00000  Uiso   1.00
H646   H     0.23434   0.03814   0.41424   0.00000  Uiso   1.00
C647   C     0.28288   0.05530   0.47216   0.00000  Uiso   1.00
H648   H     0.30609   0.02631   0.47780   0.00000  Uiso   1.00
H649   H     0.27861   0.06833   0.50562   0.00000  Uiso   1.00
H650   H     0.30404   0.07834   0.45245   0.00000  Uiso   1.00
N651   N     0.10109   0.28646   0.55296   0.00000  Uiso   1.00
H652   H     0.09900   0.29519   0.58577   0.00000  Uiso   1.00
C653   C     0.05045   0.27803   0.52784   0.00000  Uiso   1.00
H654   H     0.02723   0.30702   0.52222   0.00000  Uiso   1.00
H655   H     0.02930   0.25499   0.54755   0.00000  Uiso   1.00
H656   H     0.05471   0.26502   0.49438   0.00000  Uiso   1.00
N657   N     0.21691   0.29387   0.43365   0.00000  Uiso   1.00
H658   H     0.25534   0.30238   0.43281   0.00000  Uiso   1.00
C659   C     0.18621   0.29518   0.38884   0.00000  Uiso   1.00
H660   H     0.17472   0.32749   0.37766   0.00000  Uiso   1.00
H661   H     0.15029   0.27608   0.38922   0.00000  Uiso   1.00
H662   H     0.20943   0.28290   0.36349   0.00000  Uiso   1.00
N663   N     0.11642   0.03946   0.56635   0.00000  Uiso   1.00
H664   H     0.07800   0.03096   0.56720   0.00000  Uiso   1.00
C665   C     0.14712   0.03816   0.61116   0.00000  Uiso   1.00
H666   H     0.15862   0.00585   0.62234   0.00000  Uiso   1.00
H667   H     0.12390   0.05044   0.63650   0.00000  Uiso   1.00
H668   H     0.18304   0.05726   0.61077   0.00000  Uiso   1.00
N669   N     0.23419   0.21890   0.62431   0.00000  Uiso   1.00
H670   H     0.22643   0.24984   0.62784   0.00000  Uiso   1.00
C671   C     0.28907   0.20949   0.63571   0.00000  Uiso   1.00
H672   H     0.30294   0.21729   0.33818   0.00000  Uiso   1.00
H673   H     0.31174   0.22819   0.61280   0.00000  Uiso   1.00
H674   H     0.29624   0.17607   0.63112   0.00000  Uiso   1.00
N675   N     0.09917   0.11442   0.37570   0.00000  Uiso   1.00
H676   H     0.10700   0.08347   0.37222   0.00000  Uiso   1.00
C677   C     0.04427   0.12377   0.36427   0.00000  Uiso   1.00
H678   H     0.02163   0.10506   0.38720   0.00000  Uiso   1.00
H679   H     0.03043   0.11591   0.66181   0.00000  Uiso   1.00
H680   H     0.03705   0.15718   0.36882   0.00000  Uiso   1.00
C681   C     0.50099   0.08665   0.50107   0.00000  Uiso   1.00
C682   C     0.49901   0.24668   0.49893   0.00000  Uiso   1.00
C683   C     0.40060   0.16683   0.48848   0.00000  Uiso   1.00
C684   C     0.59940   0.16650   0.51152   0.00000  Uiso   1.00
C685   C     0.34679   0.17385   0.48340   0.00000  Uiso   1.00
C686   C     0.65321   0.15948   0.51660   0.00000  Uiso   1.00
C687   C     0.53143   0.02304   0.47234   0.00000  Uiso   1.00
C688   C     0.46857   0.31029   0.52766   0.00000  Uiso   1.00
C689   C     0.52588   0.31380   0.46741   0.00000  Uiso   1.00
C690   C     0.47412   0.01954   0.53259   0.00000  Uiso   1.00
C691   C     0.49650   0.29100   0.49672   0.00000  Uiso   1.00
C692   C     0.50350   0.04233   0.50328   0.00000  Uiso   1.00
C693   C     0.53318   0.19185   0.36016   0.00000  Uiso   1.00
C694   C     0.46682   0.14149   0.63984   0.00000  Uiso   1.00
C695   C     0.53349   0.19188   0.64547   0.00000  Uiso   1.00
C696   C     0.46652   0.14145   0.35453   0.00000  Uiso   1.00
H697   H     0.55951   0.21184   0.38080   0.00000  Uiso   1.00
H698   H     0.44049   0.12149   0.61920   0.00000  Uiso   1.00
N699   N     0.49999   0.16666   0.61907   0.00000  Uiso   1.00
N700   N     0.50001   0.16668   0.38093   0.00000  Uiso   1.00
O701   O     0.50000   0.10558   0.53821   0.00000  Uiso   1.00
O702   O     0.50000   0.22775   0.46179   0.00000  Uiso   1.00
O703   O     0.50000   0.10559   0.46176   0.00000  Uiso   1.00
O704   O     0.50000   0.22774   0.53824   0.00000  Uiso   1.00
O705   O     0.42392   0.16666   0.52928   0.00000  Uiso   1.00
O706   O     0.57608   0.16667   0.47072   0.00000  Uiso   1.00
O707   O     0.42392   0.16667   0.45284   0.00000  Uiso   1.00
O708   O     0.57608   0.16666   0.54716   0.00000  Uiso   1.00
Zn709  Zn    0.50000   0.16666   0.55104   0.00000  Uiso   1.00
Zn710  Zn    0.50000   0.16667   0.44896   0.00000  Uiso   1.00
Cl711  Cl    0.65607   0.20967   0.43840   0.00000  Uiso   1.00
Cl712  Cl    0.34393   0.12366   0.56160   0.00000  Uiso   1.00
N713   N     0.56558   0.04687   0.44704   0.00000  Uiso   1.00
H714   H     0.56767   0.03814   0.41424   0.00000  Uiso   1.00
C715   C     0.61622   0.05530   0.47216   0.00000  Uiso   1.00
H716   H     0.63943   0.02631   0.47780   0.00000  Uiso   1.00
H717   H     0.61194   0.06833   0.50562   0.00000  Uiso   1.00
H718   H     0.63738   0.07834   0.45245   0.00000  Uiso   1.00
N719   N     0.43442   0.28646   0.55296   0.00000  Uiso   1.00
H720   H     0.43233   0.29519   0.58577   0.00000  Uiso   1.00
C721   C     0.38378   0.27803   0.52784   0.00000  Uiso   1.00
H722   H     0.36057   0.30702   0.52222   0.00000  Uiso   1.00
H723   H     0.36263   0.25499   0.54755   0.00000  Uiso   1.00
H724   H     0.38805   0.26502   0.49438   0.00000  Uiso   1.00
N725   N     0.55025   0.29387   0.43365   0.00000  Uiso   1.00
H726   H     0.58867   0.30238   0.43281   0.00000  Uiso   1.00
C727   C     0.51955   0.29518   0.38884   0.00000  Uiso   1.00
H728   H     0.50805   0.32749   0.37766   0.00000  Uiso   1.00
H729   H     0.48363   0.27608   0.38922   0.00000  Uiso   1.00
H730   H     0.54277   0.28290   0.36349   0.00000  Uiso   1.00
N731   N     0.44975   0.03946   0.56635   0.00000  Uiso   1.00
H732   H     0.41133   0.03096   0.56720   0.00000  Uiso   1.00
C733   C     0.48045   0.03816   0.61116   0.00000  Uiso   1.00
H734   H     0.49195   0.00585   0.62234   0.00000  Uiso   1.00
H735   H     0.45724   0.05044   0.63650   0.00000  Uiso   1.00
H736   H     0.51637   0.05726   0.61077   0.00000  Uiso   1.00
N737   N     0.56753   0.21890   0.62431   0.00000  Uiso   1.00
H738   H     0.55976   0.24984   0.62784   0.00000  Uiso   1.00
C739   C     0.62241   0.20949   0.63571   0.00000  Uiso   1.00
H740   H     0.63627   0.21729   0.33818   0.00000  Uiso   1.00
H741   H     0.64507   0.22819   0.61280   0.00000  Uiso   1.00
H742   H     0.62957   0.17607   0.63112   0.00000  Uiso   1.00
N743   N     0.43250   0.11442   0.37570   0.00000  Uiso   1.00
H744   H     0.44033   0.08347   0.37222   0.00000  Uiso   1.00
C745   C     0.37760   0.12377   0.36427   0.00000  Uiso   1.00
H746   H     0.35497   0.10506   0.38720   0.00000  Uiso   1.00
H747   H     0.36376   0.11591   0.66181   0.00000  Uiso   1.00
H748   H     0.37038   0.15718   0.36882   0.00000  Uiso   1.00
C749   C     0.83432   0.08665   0.50107   0.00000  Uiso   1.00
C750   C     0.83234   0.24668   0.49893   0.00000  Uiso   1.00
C751   C     0.73393   0.16683   0.48848   0.00000  Uiso   1.00
C752   C     0.93273   0.16650   0.51152   0.00000  Uiso   1.00
C753   C     0.68012   0.17385   0.48340   0.00000  Uiso   1.00
C754   C     0.98655   0.15948   0.51660   0.00000  Uiso   1.00
C755   C     0.86476   0.02304   0.47234   0.00000  Uiso   1.00
C756   C     0.80191   0.31029   0.52766   0.00000  Uiso   1.00
C757   C     0.85921   0.31380   0.46741   0.00000  Uiso   1.00
C758   C     0.80745   0.01954   0.53259   0.00000  Uiso   1.00
C759   C     0.82983   0.29100   0.49672   0.00000  Uiso   1.00
C760   C     0.83683   0.04233   0.50328   0.00000  Uiso   1.00
C761   C     0.86651   0.19185   0.36016   0.00000  Uiso   1.00
C762   C     0.80015   0.14149   0.63984   0.00000  Uiso   1.00
C763   C     0.86682   0.19188   0.64547   0.00000  Uiso   1.00
C764   C     0.79985   0.14145   0.35453   0.00000  Uiso   1.00
H765   H     0.89285   0.21184   0.38080   0.00000  Uiso   1.00
H766   H     0.77382   0.12149   0.61920   0.00000  Uiso   1.00
N767   N     0.83332   0.16666   0.61907   0.00000  Uiso   1.00
N768   N     0.83335   0.16668   0.38093   0.00000  Uiso   1.00
O769   O     0.83333   0.10558   0.53821   0.00000  Uiso   1.00
O770   O     0.83334   0.22775   0.46179   0.00000  Uiso   1.00
O771   O     0.83333   0.10559   0.46176   0.00000  Uiso   1.00
O772   O     0.83334   0.22774   0.53824   0.00000  Uiso   1.00
O773   O     0.75725   0.16666   0.52928   0.00000  Uiso   1.00
O774   O     0.90942   0.16667   0.47072   0.00000  Uiso   1.00
O775   O     0.75725   0.16667   0.45284   0.00000  Uiso   1.00
O776   O     0.90942   0.16666   0.54716   0.00000  Uiso   1.00
Zn777  Zn    0.83333   0.16666   0.55104   0.00000  Uiso   1.00
Zn778  Zn    0.83333   0.16667   0.44896   0.00000  Uiso   1.00
Cl779  Cl    0.98940   0.20967   0.43840   0.00000  Uiso   1.00
Cl780  Cl    0.67726   0.12366   0.56160   0.00000  Uiso   1.00
N781   N     0.89891   0.04687   0.44704   0.00000  Uiso   1.00
H782   H     0.90101   0.03814   0.41424   0.00000  Uiso   1.00
C783   C     0.94955   0.05530   0.47216   0.00000  Uiso   1.00
H784   H     0.97276   0.02631   0.47780   0.00000  Uiso   1.00
H785   H     0.94528   0.06833   0.50562   0.00000  Uiso   1.00
H786   H     0.97071   0.07834   0.45245   0.00000  Uiso   1.00
N787   N     0.76775   0.28646   0.55296   0.00000  Uiso   1.00
H788   H     0.76566   0.29519   0.58577   0.00000  Uiso   1.00
C789   C     0.71711   0.27803   0.52784   0.00000  Uiso   1.00
H790   H     0.69390   0.30702   0.52222   0.00000  Uiso   1.00
H791   H     0.69596   0.25499   0.54755   0.00000  Uiso   1.00
H792   H     0.72138   0.26502   0.49438   0.00000  Uiso   1.00
N793   N     0.88358   0.29387   0.43365   0.00000  Uiso   1.00
H794   H     0.92200   0.30238   0.43281   0.00000  Uiso   1.00
C795   C     0.85288   0.29518   0.38884   0.00000  Uiso   1.00
H796   H     0.84139   0.32749   0.37766   0.00000  Uiso   1.00
H797   H     0.81696   0.27608   0.38922   0.00000  Uiso   1.00
H798   H     0.87610   0.28290   0.36349   0.00000  Uiso   1.00
N799   N     0.78308   0.03946   0.56635   0.00000  Uiso   1.00
H800   H     0.74466   0.03096   0.56720   0.00000  Uiso   1.00
C801   C     0.81379   0.03816   0.61116   0.00000  Uiso   1.00
H802   H     0.82528   0.00585   0.62234   0.00000  Uiso   1.00
H803   H     0.79057   0.05044   0.63650   0.00000  Uiso   1.00
H804   H     0.84971   0.05726   0.61077   0.00000  Uiso   1.00
N805   N     0.90086   0.21890   0.62431   0.00000  Uiso   1.00
H806   H     0.89309   0.24984   0.62784   0.00000  Uiso   1.00
C807   C     0.95574   0.20949   0.63571   0.00000  Uiso   1.00
H808   H     0.96960   0.21729   0.33818   0.00000  Uiso   1.00
H809   H     0.97840   0.22819   0.61280   0.00000  Uiso   1.00
H810   H     0.96290   0.17607   0.63112   0.00000  Uiso   1.00
N811   N     0.76583   0.11442   0.37570   0.00000  Uiso   1.00
H812   H     0.77366   0.08347   0.37222   0.00000  Uiso   1.00
C813   C     0.71094   0.12377   0.36427   0.00000  Uiso   1.00
H814   H     0.68830   0.10506   0.38720   0.00000  Uiso   1.00
H815   H     0.69710   0.11591   0.66181   0.00000  Uiso   1.00
H816   H     0.70372   0.15718   0.36882   0.00000  Uiso   1.00
C817   C     0.16765   0.41999   0.50107   0.00000  Uiso   1.00
C818   C     0.16568   0.58001   0.49893   0.00000  Uiso   1.00
C819   C     0.06727   0.50017   0.48848   0.00000  Uiso   1.00
C820   C     0.26607   0.49983   0.51152   0.00000  Uiso   1.00
C821   C     0.01345   0.50719   0.48340   0.00000  Uiso   1.00
C822   C     0.31988   0.49281   0.51660   0.00000  Uiso   1.00
C823   C     0.19809   0.35637   0.47234   0.00000  Uiso   1.00
C824   C     0.13524   0.64363   0.52766   0.00000  Uiso   1.00
C825   C     0.19254   0.64713   0.46741   0.00000  Uiso   1.00
C826   C     0.14079   0.35287   0.53259   0.00000  Uiso   1.00
C827   C     0.16316   0.62433   0.49672   0.00000  Uiso   1.00
C828   C     0.17017   0.37567   0.50328   0.00000  Uiso   1.00
C829   C     0.19984   0.52518   0.36016   0.00000  Uiso   1.00
C830   C     0.13349   0.47482   0.63984   0.00000  Uiso   1.00
C831   C     0.20015   0.52522   0.64547   0.00000  Uiso   1.00
C832   C     0.13318   0.47478   0.35453   0.00000  Uiso   1.00
H833   H     0.22618   0.54518   0.38080   0.00000  Uiso   1.00
H834   H     0.10716   0.45482   0.61920   0.00000  Uiso   1.00
N835   N     0.16665   0.49999   0.61907   0.00000  Uiso   1.00
N836   N     0.16668   0.50001   0.38093   0.00000  Uiso   1.00
O837   O     0.16666   0.43892   0.53821   0.00000  Uiso   1.00
O838   O     0.16667   0.56108   0.46179   0.00000  Uiso   1.00
O839   O     0.16666   0.43893   0.46176   0.00000  Uiso   1.00
O840   O     0.16667   0.56107   0.53824   0.00000  Uiso   1.00
O841   O     0.09058   0.50000   0.52928   0.00000  Uiso   1.00
O842   O     0.24275   0.50000   0.47072   0.00000  Uiso   1.00
O843   O     0.09058   0.50000   0.45284   0.00000  Uiso   1.00
O844   O     0.24275   0.50000   0.54716   0.00000  Uiso   1.00
Zn845  Zn    0.16667   0.49999   0.55104   0.00000  Uiso   1.00
Zn846  Zn    0.16667   0.50001   0.44896   0.00000  Uiso   1.00
Cl847  Cl    0.32274   0.54300   0.43840   0.00000  Uiso   1.00
Cl848  Cl    0.01060   0.45699   0.56160   0.00000  Uiso   1.00
N849   N     0.23225   0.38020   0.44704   0.00000  Uiso   1.00
H850   H     0.23434   0.37147   0.41424   0.00000  Uiso   1.00
C851   C     0.28288   0.38864   0.47216   0.00000  Uiso   1.00
H852   H     0.30609   0.35965   0.47780   0.00000  Uiso   1.00
H853   H     0.27861   0.40166   0.50562   0.00000  Uiso   1.00
H854   H     0.30404   0.41167   0.45245   0.00000  Uiso   1.00
N855   N     0.10109   0.61980   0.55296   0.00000  Uiso   1.00
H856   H     0.09900   0.62852   0.58577   0.00000  Uiso   1.00
C857   C     0.05045   0.61137   0.52784   0.00000  Uiso   1.00
H858   H     0.02723   0.64035   0.52222   0.00000  Uiso   1.00
H859   H     0.02930   0.58832   0.54755   0.00000  Uiso   1.00
H860   H     0.05471   0.59835   0.49438   0.00000  Uiso   1.00
N861   N     0.21691   0.62721   0.43365   0.00000  Uiso   1.00
H862   H     0.25534   0.63571   0.43281   0.00000  Uiso   1.00
C863   C     0.18621   0.62851   0.38884   0.00000  Uiso   1.00
H864   H     0.17472   0.66082   0.37766   0.00000  Uiso   1.00
H865   H     0.15029   0.60941   0.38922   0.00000  Uiso   1.00
H866   H     0.20943   0.61623   0.36349   0.00000  Uiso   1.00
N867   N     0.11642   0.37279   0.56635   0.00000  Uiso   1.00
H868   H     0.07800   0.36429   0.56720   0.00000  Uiso   1.00
C869   C     0.14712   0.37149   0.61116   0.00000  Uiso   1.00
H870   H     0.15862   0.33919   0.62234   0.00000  Uiso   1.00
H871   H     0.12390   0.38377   0.63650   0.00000  Uiso   1.00
H872   H     0.18304   0.39060   0.61077   0.00000  Uiso   1.00
N873   N     0.23419   0.55223   0.62431   0.00000  Uiso   1.00
H874   H     0.22643   0.58318   0.62784   0.00000  Uiso   1.00
C875   C     0.28907   0.54282   0.63571   0.00000  Uiso   1.00
H876   H     0.30294   0.55062   0.33818   0.00000  Uiso   1.00
H877   H     0.31174   0.56152   0.61280   0.00000  Uiso   1.00
H878   H     0.29624   0.50940   0.63112   0.00000  Uiso   1.00
N879   N     0.09917   0.44775   0.37570   0.00000  Uiso   1.00
H880   H     0.10700   0.41681   0.37222   0.00000  Uiso   1.00
C881   C     0.04427   0.45710   0.36427   0.00000  Uiso   1.00
H882   H     0.02163   0.43840   0.38720   0.00000  Uiso   1.00
H883   H     0.03043   0.44925   0.66181   0.00000  Uiso   1.00
H884   H     0.03705   0.49052   0.36882   0.00000  Uiso   1.00
C885   C     0.50099   0.41999   0.50107   0.00000  Uiso   1.00
C886   C     0.49901   0.58001   0.49893   0.00000  Uiso   1.00
C887   C     0.40060   0.50017   0.48848   0.00000  Uiso   1.00
C888   C     0.59940   0.49983   0.51152   0.00000  Uiso   1.00
C889   C     0.34679   0.50719   0.48340   0.00000  Uiso   1.00
C890   C     0.65321   0.49281   0.51660   0.00000  Uiso   1.00
C891   C     0.53143   0.35637   0.47234   0.00000  Uiso   1.00
C892   C     0.46857   0.64363   0.52766   0.00000  Uiso   1.00
C893   C     0.52588   0.64713   0.46741   0.00000  Uiso   1.00
C894   C     0.47412   0.35287   0.53259   0.00000  Uiso   1.00
C895   C     0.49650   0.62433   0.49672   0.00000  Uiso   1.00
C896   C     0.50350   0.37567   0.50328   0.00000  Uiso   1.00
C897   C     0.53318   0.52518   0.36016   0.00000  Uiso   1.00
C898   C     0.46682   0.47482   0.63984   0.00000  Uiso   1.00
C899   C     0.53349   0.52522   0.64547   0.00000  Uiso   1.00
C900   C     0.46652   0.47478   0.35453   0.00000  Uiso   1.00
H901   H     0.55951   0.54518   0.38080   0.00000  Uiso   1.00
H902   H     0.44049   0.45482   0.61920   0.00000  Uiso   1.00
N903   N     0.49999   0.49999   0.61907   0.00000  Uiso   1.00
N904   N     0.50001   0.50001   0.38093   0.00000  Uiso   1.00
O905   O     0.50000   0.43892   0.53821   0.00000  Uiso   1.00
O906   O     0.50000   0.56108   0.46179   0.00000  Uiso   1.00
O907   O     0.50000   0.43893   0.46176   0.00000  Uiso   1.00
O908   O     0.50000   0.56107   0.53824   0.00000  Uiso   1.00
O909   O     0.42392   0.50000   0.52928   0.00000  Uiso   1.00
O910   O     0.57608   0.50000   0.47072   0.00000  Uiso   1.00
O911   O     0.42392   0.50000   0.45284   0.00000  Uiso   1.00
O912   O     0.57608   0.50000   0.54716   0.00000  Uiso   1.00
Zn913  Zn    0.50000   0.49999   0.55104   0.00000  Uiso   1.00
Zn914  Zn    0.50000   0.50001   0.44896   0.00000  Uiso   1.00
Cl915  Cl    0.65607   0.54300   0.43840   0.00000  Uiso   1.00
Cl916  Cl    0.34393   0.45699   0.56160   0.00000  Uiso   1.00
N917   N     0.56558   0.38020   0.44704   0.00000  Uiso   1.00
H918   H     0.56767   0.37147   0.41424   0.00000  Uiso   1.00
C919   C     0.61622   0.38864   0.47216   0.00000  Uiso   1.00
H920   H     0.63943   0.35965   0.47780   0.00000  Uiso   1.00
H921   H     0.61194   0.40166   0.50562   0.00000  Uiso   1.00
H922   H     0.63738   0.41167   0.45245   0.00000  Uiso   1.00
N923   N     0.43442   0.61980   0.55296   0.00000  Uiso   1.00
H924   H     0.43233   0.62852   0.58577   0.00000  Uiso   1.00
C925   C     0.38378   0.61137   0.52784   0.00000  Uiso   1.00
H926   H     0.36057   0.64035   0.52222   0.00000  Uiso   1.00
H927   H     0.36263   0.58832   0.54755   0.00000  Uiso   1.00
H928   H     0.38805   0.59835   0.49438   0.00000  Uiso   1.00
N929   N     0.55025   0.62721   0.43365   0.00000  Uiso   1.00
H930   H     0.58867   0.63571   0.43281   0.00000  Uiso   1.00
C931   C     0.51955   0.62851   0.38884   0.00000  Uiso   1.00
H932   H     0.50805   0.66082   0.37766   0.00000  Uiso   1.00
H933   H     0.48363   0.60941   0.38922   0.00000  Uiso   1.00
H934   H     0.54277   0.61623   0.36349   0.00000  Uiso   1.00
N935   N     0.44975   0.37279   0.56635   0.00000  Uiso   1.00
H936   H     0.41133   0.36429   0.56720   0.00000  Uiso   1.00
C937   C     0.48045   0.37149   0.61116   0.00000  Uiso   1.00
H938   H     0.49195   0.33919   0.62234   0.00000  Uiso   1.00
H939   H     0.45724   0.38377   0.63650   0.00000  Uiso   1.00
H940   H     0.51637   0.39060   0.61077   0.00000  Uiso   1.00
N941   N     0.56753   0.55223   0.62431   0.00000  Uiso   1.00
H942   H     0.55976   0.58318   0.62784   0.00000  Uiso   1.00
C943   C     0.62241   0.54282   0.63571   0.00000  Uiso   1.00
H944   H     0.63627   0.55062   0.33818   0.00000  Uiso   1.00
H945   H     0.64507   0.56152   0.61280   0.00000  Uiso   1.00
H946   H     0.62957   0.50940   0.63112   0.00000  Uiso   1.00
N947   N     0.43250   0.44775   0.37570   0.00000  Uiso   1.00
H948   H     0.44033   0.41681   0.37222   0.00000  Uiso   1.00
C949   C     0.37760   0.45710   0.36427   0.00000  Uiso   1.00
H950   H     0.35497   0.43840   0.38720   0.00000  Uiso   1.00
H951   H     0.36376   0.44925   0.66181   0.00000  Uiso   1.00
H952   H     0.37038   0.49052   0.36882   0.00000  Uiso   1.00
C953   C     0.83432   0.41999   0.50107   0.00000  Uiso   1.00
C954   C     0.83234   0.58001   0.49893   0.00000  Uiso   1.00
C955   C     0.73393   0.50017   0.48848   0.00000  Uiso   1.00
C956   C     0.93273   0.49983   0.51152   0.00000  Uiso   1.00
C957   C     0.68012   0.50719   0.48340   0.00000  Uiso   1.00
C958   C     0.98655   0.49281   0.51660   0.00000  Uiso   1.00
C959   C     0.86476   0.35637   0.47234   0.00000  Uiso   1.00
C960   C     0.80191   0.64363   0.52766   0.00000  Uiso   1.00
C961   C     0.85921   0.64713   0.46741   0.00000  Uiso   1.00
C962   C     0.80745   0.35287   0.53259   0.00000  Uiso   1.00
C963   C     0.82983   0.62433   0.49672   0.00000  Uiso   1.00
C964   C     0.83683   0.37567   0.50328   0.00000  Uiso   1.00
C965   C     0.86651   0.52518   0.36016   0.00000  Uiso   1.00
C966   C     0.80015   0.47482   0.63984   0.00000  Uiso   1.00
C967   C     0.86682   0.52522   0.64547   0.00000  Uiso   1.00
C968   C     0.79985   0.47478   0.35453   0.00000  Uiso   1.00
H969   H     0.89285   0.54518   0.38080   0.00000  Uiso   1.00
H970   H     0.77382   0.45482   0.61920   0.00000  Uiso   1.00
N971   N     0.83332   0.49999   0.61907   0.00000  Uiso   1.00
N972   N     0.83335   0.50001   0.38093   0.00000  Uiso   1.00
O973   O     0.83333   0.43892   0.53821   0.00000  Uiso   1.00
O974   O     0.83334   0.56108   0.46179   0.00000  Uiso   1.00
O975   O     0.83333   0.43893   0.46176   0.00000  Uiso   1.00
O976   O     0.83334   0.56107   0.53824   0.00000  Uiso   1.00
O977   O     0.75725   0.50000   0.52928   0.00000  Uiso   1.00
O978   O     0.90942   0.50000   0.47072   0.00000  Uiso   1.00
O979   O     0.75725   0.50000   0.45284   0.00000  Uiso   1.00
O980   O     0.90942   0.50000   0.54716   0.00000  Uiso   1.00
Zn981  Zn    0.83333   0.49999   0.55104   0.00000  Uiso   1.00
Zn982  Zn    0.83333   0.50001   0.44896   0.00000  Uiso   1.00
Cl983  Cl    0.98940   0.54300   0.43840   0.00000  Uiso   1.00
Cl984  Cl    0.67726   0.45699   0.56160   0.00000  Uiso   1.00
N985   N     0.89891   0.38020   0.44704   0.00000  Uiso   1.00
H986   H     0.90101   0.37147   0.41424   0.00000  Uiso   1.00
C987   C     0.94955   0.38864   0.47216   0.00000  Uiso   1.00
H988   H     0.97276   0.35965   0.47780   0.00000  Uiso   1.00
H989   H     0.94528   0.40166   0.50562   0.00000  Uiso   1.00
H990   H     0.97071   0.41167   0.45245   0.00000  Uiso   1.00
N991   N     0.76775   0.61980   0.55296   0.00000  Uiso   1.00
H992   H     0.76566   0.62852   0.58577   0.00000  Uiso   1.00
C993   C     0.71711   0.61137   0.52784   0.00000  Uiso   1.00
H994   H     0.69390   0.64035   0.52222   0.00000  Uiso   1.00
H995   H     0.69596   0.58832   0.54755   0.00000  Uiso   1.00
H996   H     0.72138   0.59835   0.49438   0.00000  Uiso   1.00
N997   N     0.88358   0.62721   0.43365   0.00000  Uiso   1.00
H998   H     0.92200   0.63571   0.43281   0.00000  Uiso   1.00
C999   C     0.85288   0.62851   0.38884   0.00000  Uiso   1.00
H1000  H     0.84139   0.66082   0.37766   0.00000  Uiso   1.00
H1001  H     0.81696   0.60941   0.38922   0.00000  Uiso   1.00
H1002  H     0.87610   0.61623   0.36349   0.00000  Uiso   1.00
N1003  N     0.78308   0.37279   0.56635   0.00000  Uiso   1.00
H1004  H     0.74466   0.36429   0.56720   0.00000  Uiso   1.00
C1005  C     0.81379   0.37149   0.61116   0.00000  Uiso   1.00
H1006  H     0.82528   0.33919   0.62234   0.00000  Uiso   1.00
H1007  H     0.79057   0.38377   0.63650   0.00000  Uiso   1.00
H1008  H     0.84971   0.39060   0.61077   0.00000  Uiso   1.00
N1009  N     0.90086   0.55223   0.62431   0.00000  Uiso   1.00
H1010  H     0.89309   0.58318   0.62784   0.00000  Uiso   1.00
C1011  C     0.95574   0.54282   0.63571   0.00000  Uiso   1.00
H1012  H     0.96960   0.55062   0.33818   0.00000  Uiso   1.00
H1013  H     0.97840   0.56152   0.61280   0.00000  Uiso   1.00
H1014  H     0.96290   0.50940   0.63112   0.00000  Uiso   1.00
N1015  N     0.76583   0.44775   0.37570   0.00000  Uiso   1.00
H1016  H     0.77366   0.41681   0.37222   0.00000  Uiso   1.00
C1017  C     0.71094   0.45710   0.36427   0.00000  Uiso   1.00
H1018  H     0.68830   0.43840   0.38720   0.00000  Uiso   1.00
H1019  H     0.69710   0.44925   0.66181   0.00000  Uiso   1.00
H1020  H     0.70372   0.49052   0.36882   0.00000  Uiso   1.00
C1021  C     0.16765   0.75332   0.50107   0.00000  Uiso   1.00
C1022  C     0.16568   0.91335   0.49893   0.00000  Uiso   1.00
C1023  C     0.06727   0.83350   0.48848   0.00000  Uiso   1.00
C1024  C     0.26607   0.83317   0.51152   0.00000  Uiso   1.00
C1025  C     0.01345   0.84052   0.48340   0.00000  Uiso   1.00
C1026  C     0.31988   0.82615   0.51660   0.00000  Uiso   1.00
C1027  C     0.19809   0.68971   0.47234   0.00000  Uiso   1.00
C1028  C     0.13524   0.97696   0.52766   0.00000  Uiso   1.00
C1029  C     0.19254   0.98046   0.46741   0.00000  Uiso   1.00
C1030  C     0.14079   0.68620   0.53259   0.00000  Uiso   1.00
C1031  C     0.16316   0.95767   0.49672   0.00000  Uiso   1.00
C1032  C     0.17017   0.70900   0.50328   0.00000  Uiso   1.00
C1033  C     0.19984   0.85851   0.36016   0.00000  Uiso   1.00
C1034  C     0.13349   0.80816   0.63984   0.00000  Uiso   1.00
C1035  C     0.20015   0.85855   0.64547   0.00000  Uiso   1.00
C1036  C     0.13318   0.80812   0.35453   0.00000  Uiso   1.00
H1037  H     0.22618   0.87851   0.38080   0.00000  Uiso   1.00
H1038  H     0.10716   0.78815   0.61920   0.00000  Uiso   1.00
N1039  N     0.16665   0.83332   0.61907   0.00000  Uiso   1.00
N1040  N     0.16668   0.83334   0.38093   0.00000  Uiso   1.00
O1041  O     0.16666   0.77225   0.53821   0.00000  Uiso   1.00
O1042  O     0.16667   0.89442   0.46179   0.00000  Uiso   1.00
O1043  O     0.16666   0.77226   0.46176   0.00000  Uiso   1.00
O1044  O     0.16667   0.89441   0.53824   0.00000  Uiso   1.00
O1045  O     0.09058   0.83333   0.52928   0.00000  Uiso   1.00
O1046  O     0.24275   0.83334   0.47072   0.00000  Uiso   1.00
O1047  O     0.09058   0.83334   0.45284   0.00000  Uiso   1.00
O1048  O     0.24275   0.83333   0.54716   0.00000  Uiso   1.00
Zn1049 Zn    0.16667   0.83333   0.55104   0.00000  Uiso   1.00
Zn1050 Zn    0.16667   0.83334   0.44896   0.00000  Uiso   1.00
Cl1051 Cl    0.32274   0.87634   0.43840   0.00000  Uiso   1.00
Cl1052 Cl    0.01060   0.79033   0.56160   0.00000  Uiso   1.00
N1053  N     0.23225   0.71354   0.44704   0.00000  Uiso   1.00
H1054  H     0.23434   0.70481   0.41424   0.00000  Uiso   1.00
C1055  C     0.28288   0.72197   0.47216   0.00000  Uiso   1.00
H1056  H     0.30609   0.69298   0.47780   0.00000  Uiso   1.00
H1057  H     0.27861   0.73500   0.50562   0.00000  Uiso   1.00
H1058  H     0.30404   0.74500   0.45245   0.00000  Uiso   1.00
N1059  N     0.10109   0.95313   0.55296   0.00000  Uiso   1.00
H1060  H     0.09900   0.96186   0.58577   0.00000  Uiso   1.00
C1061  C     0.05045   0.94470   0.52784   0.00000  Uiso   1.00
H1062  H     0.02723   0.97369   0.52222   0.00000  Uiso   1.00
H1063  H     0.02930   0.92166   0.54755   0.00000  Uiso   1.00
H1064  H     0.05471   0.93169   0.49438   0.00000  Uiso   1.00
N1065  N     0.21691   0.96054   0.43365   0.00000  Uiso   1.00
H1066  H     0.25534   0.96904   0.43281   0.00000  Uiso   1.00
C1067  C     0.18621   0.96185   0.38884   0.00000  Uiso   1.00
H1068  H     0.17472   0.99415   0.37766   0.00000  Uiso   1.00
H1069  H     0.15029   0.94274   0.38922   0.00000  Uiso   1.00
H1070  H     0.20943   0.94956   0.36349   0.00000  Uiso   1.00
N1071  N     0.11642   0.70613   0.56635   0.00000  Uiso   1.00
H1072  H     0.07800   0.69762   0.56720   0.00000  Uiso   1.00
C1073  C     0.14712   0.70482   0.61116   0.00000  Uiso   1.00
H1074  H     0.15862   0.67252   0.62234   0.00000  Uiso   1.00
H1075  H     0.12390   0.71711   0.63650   0.00000  Uiso   1.00
H1076  H     0.18304   0.72393   0.61077   0.00000  Uiso   1.00
N1077  N     0.23419   0.88556   0.62431   0.00000  Uiso   1.00
H1078  H     0.22643   0.91651   0.62784   0.00000  Uiso   1.00
C1079  C     0.28907   0.87615   0.63571   0.00000  Uiso   1.00
H1080  H     0.30294   0.88396   0.33818   0.00000  Uiso   1.00
H1081  H     0.31174   0.89485   0.61280   0.00000  Uiso   1.00
H1082  H     0.29624   0.84273   0.63112   0.00000  Uiso   1.00
N1083  N     0.09917   0.78108   0.37570   0.00000  Uiso   1.00
H1084  H     0.10700   0.75014   0.37222   0.00000  Uiso   1.00
C1085  C     0.04427   0.79043   0.36427   0.00000  Uiso   1.00
H1086  H     0.02163   0.77173   0.38720   0.00000  Uiso   1.00
H1087  H     0.03043   0.78258   0.66181   0.00000  Uiso   1.00
H1088  H     0.03705   0.82385   0.36882   0.00000  Uiso   1.00
C1089  C     0.50099   0.75332   0.50107   0.00000  Uiso   1.00
C1090  C     0.49901   0.91335   0.49893   0.00000  Uiso   1.00
C1091  C     0.40060   0.83350   0.48848   0.00000  Uiso   1.00
C1092  C     0.59940   0.83317   0.51152   0.00000  Uiso   1.00
C1093  C     0.34679   0.84052   0.48340   0.00000  Uiso   1.00
C1094  C     0.65321   0.82615   0.51660   0.00000  Uiso   1.00
C1095  C     0.53143   0.68971   0.47234   0.00000  Uiso   1.00
C1096  C     0.46857   0.97696   0.52766   0.00000  Uiso   1.00
C1097  C     0.52588   0.98046   0.46741   0.00000  Uiso   1.00
C1098  C     0.47412   0.68620   0.53259   0.00000  Uiso   1.00
C1099  C     0.49650   0.95767   0.49672   0.00000  Uiso   1.00
C1100  C     0.50350   0.70900   0.50328   0.00000  Uiso   1.00
C1101  C     0.53318   0.85851   0.36016   0.00000  Uiso   1.00
C1102  C     0.46682   0.80816   0.63984   0.00000  Uiso   1.00
C1103  C     0.53349   0.85855   0.64547   0.00000  Uiso   1.00
C1104  C     0.46652   0.80812   0.35453   0.00000  Uiso   1.00
H1105  H     0.55951   0.87851   0.38080   0.00000  Uiso   1.00
H1106  H     0.44049   0.78815   0.61920   0.00000  Uiso   1.00
N1107  N     0.49999   0.83332   0.61907   0.00000  Uiso   1.00
N1108  N     0.50001   0.83334   0.38093   0.00000  Uiso   1.00
O1109  O     0.50000   0.77225   0.53821   0.00000  Uiso   1.00
O1110  O     0.50000   0.89442   0.46179   0.00000  Uiso   1.00
O1111  O     0.50000   0.77226   0.46176   0.00000  Uiso   1.00
O1112  O     0.50000   0.89441   0.53824   0.00000  Uiso   1.00
O1113  O     0.42392   0.83333   0.52928   0.00000  Uiso   1.00
O1114  O     0.57608   0.83334   0.47072   0.00000  Uiso   1.00
O1115  O     0.42392   0.83334   0.45284   0.00000  Uiso   1.00
O1116  O     0.57608   0.83333   0.54716   0.00000  Uiso   1.00
Zn1117 Zn    0.50000   0.83333   0.55104   0.00000  Uiso   1.00
Zn1118 Zn    0.50000   0.83334   0.44896   0.00000  Uiso   1.00
Cl1119 Cl    0.65607   0.87634   0.43840   0.00000  Uiso   1.00
Cl1120 Cl    0.34393   0.79033   0.56160   0.00000  Uiso   1.00
N1121  N     0.56558   0.71354   0.44704   0.00000  Uiso   1.00
H1122  H     0.56767   0.70481   0.41424   0.00000  Uiso   1.00
C1123  C     0.61622   0.72197   0.47216   0.00000  Uiso   1.00
H1124  H     0.63943   0.69298   0.47780   0.00000  Uiso   1.00
H1125  H     0.61194   0.73500   0.50562   0.00000  Uiso   1.00
H1126  H     0.63738   0.74500   0.45245   0.00000  Uiso   1.00
N1127  N     0.43442   0.95313   0.55296   0.00000  Uiso   1.00
H1128  H     0.43233   0.96186   0.58577   0.00000  Uiso   1.00
C1129  C     0.38378   0.94470   0.52784   0.00000  Uiso   1.00
H1130  H     0.36057   0.97369   0.52222   0.00000  Uiso   1.00
H1131  H     0.36263   0.92166   0.54755   0.00000  Uiso   1.00
H1132  H     0.38805   0.93169   0.49438   0.00000  Uiso   1.00
N1133  N     0.55025   0.96054   0.43365   0.00000  Uiso   1.00
H1134  H     0.58867   0.96904   0.43281   0.00000  Uiso   1.00
C1135  C     0.51955   0.96185   0.38884   0.00000  Uiso   1.00
H1136  H     0.50805   0.99415   0.37766   0.00000  Uiso   1.00
H1137  H     0.48363   0.94274   0.38922   0.00000  Uiso   1.00
H1138  H     0.54277   0.94956   0.36349   0.00000  Uiso   1.00
N1139  N     0.44975   0.70613   0.56635   0.00000  Uiso   1.00
H1140  H     0.41133   0.69762   0.56720   0.00000  Uiso   1.00
C1141  C     0.48045   0.70482   0.61116   0.00000  Uiso   1.00
H1142  H     0.49195   0.67252   0.62234   0.00000  Uiso   1.00
H1143  H     0.45724   0.71711   0.63650   0.00000  Uiso   1.00
H1144  H     0.51637   0.72393   0.61077   0.00000  Uiso   1.00
N1145  N     0.56753   0.88556   0.62431   0.00000  Uiso   1.00
H1146  H     0.55976   0.91651   0.62784   0.00000  Uiso   1.00
C1147  C     0.62241   0.87615   0.63571   0.00000  Uiso   1.00
H1148  H     0.63627   0.88396   0.33818   0.00000  Uiso   1.00
H1149  H     0.64507   0.89485   0.61280   0.00000  Uiso   1.00
H1150  H     0.62957   0.84273   0.63112   0.00000  Uiso   1.00
N1151  N     0.43250   0.78108   0.37570   0.00000  Uiso   1.00
H1152  H     0.44033   0.75014   0.37222   0.00000  Uiso   1.00
C1153  C     0.37760   0.79043   0.36427   0.00000  Uiso   1.00
H1154  H     0.35497   0.77173   0.38720   0.00000  Uiso   1.00
H1155  H     0.36376   0.78258   0.66181   0.00000  Uiso   1.00
H1156  H     0.37038   0.82385   0.36882   0.00000  Uiso   1.00
C1157  C     0.83432   0.75332   0.50107   0.00000  Uiso   1.00
C1158  C     0.83234   0.91335   0.49893   0.00000  Uiso   1.00
C1159  C     0.73393   0.83350   0.48848   0.00000  Uiso   1.00
C1160  C     0.93273   0.83317   0.51152   0.00000  Uiso   1.00
C1161  C     0.68012   0.84052   0.48340   0.00000  Uiso   1.00
C1162  C     0.98655   0.82615   0.51660   0.00000  Uiso   1.00
C1163  C     0.86476   0.68971   0.47234   0.00000  Uiso   1.00
C1164  C     0.80191   0.97696   0.52766   0.00000  Uiso   1.00
C1165  C     0.85921   0.98046   0.46741   0.00000  Uiso   1.00
C1166  C     0.80745   0.68620   0.53259   0.00000  Uiso   1.00
C1167  C     0.82983   0.95767   0.49672   0.00000  Uiso   1.00
C1168  C     0.83683   0.70900   0.50328   0.00000  Uiso   1.00
C1169  C     0.86651   0.85851   0.36016   0.00000  Uiso   1.00
C1170  C     0.80015   0.80816   0.63984   0.00000  Uiso   1.00
C1171  C     0.86682   0.85855   0.64547   0.00000  Uiso   1.00
C1172  C     0.79985   0.80812   0.35453   0.00000  Uiso   1.00
H1173  H     0.89285   0.87851   0.38080   0.00000  Uiso   1.00
H1174  H     0.77382   0.78815   0.61920   0.00000  Uiso   1.00
N1175  N     0.83332   0.83332   0.61907   0.00000  Uiso   1.00
N1176  N     0.83335   0.83334   0.38093   0.00000  Uiso   1.00
O1177  O     0.83333   0.77225   0.53821   0.00000  Uiso   1.00
O1178  O     0.83334   0.89442   0.46179   0.00000  Uiso   1.00
O1179  O     0.83333   0.77226   0.46176   0.00000  Uiso   1.00
O1180  O     0.83334   0.89441   0.53824   0.00000  Uiso   1.00
O1181  O     0.75725   0.83333   0.52928   0.00000  Uiso   1.00
O1182  O     0.90942   0.83334   0.47072   0.00000  Uiso   1.00
O1183  O     0.75725   0.83334   0.45284   0.00000  Uiso   1.00
O1184  O     0.90942   0.83333   0.54716   0.00000  Uiso   1.00
Zn1185 Zn    0.83333   0.83333   0.55104   0.00000  Uiso   1.00
Zn1186 Zn    0.83333   0.83334   0.44896   0.00000  Uiso   1.00
Cl1187 Cl    0.98940   0.87634   0.43840   0.00000  Uiso   1.00
Cl1188 Cl    0.67726   0.79033   0.56160   0.00000  Uiso   1.00
N1189  N     0.89891   0.71354   0.44704   0.00000  Uiso   1.00
H1190  H     0.90101   0.70481   0.41424   0.00000  Uiso   1.00
C1191  C     0.94955   0.72197   0.47216   0.00000  Uiso   1.00
H1192  H     0.97276   0.69298   0.47780   0.00000  Uiso   1.00
H1193  H     0.94528   0.73500   0.50562   0.00000  Uiso   1.00
H1194  H     0.97071   0.74500   0.45245   0.00000  Uiso   1.00
N1195  N     0.76775   0.95313   0.55296   0.00000  Uiso   1.00
H1196  H     0.76566   0.96186   0.58577   0.00000  Uiso   1.00
C1197  C     0.71711   0.94470   0.52784   0.00000  Uiso   1.00
H1198  H     0.69390   0.97369   0.52222   0.00000  Uiso   1.00
H1199  H     0.69596   0.92166   0.54755   0.00000  Uiso   1.00
H1200  H     0.72138   0.93169   0.49438   0.00000  Uiso   1.00
N1201  N     0.88358   0.96054   0.43365   0.00000  Uiso   1.00
H1202  H     0.92200   0.96904   0.43281   0.00000  Uiso   1.00
C1203  C     0.85288   0.96185   0.38884   0.00000  Uiso   1.00
H1204  H     0.84139   0.99415   0.37766   0.00000  Uiso   1.00
H1205  H     0.81696   0.94274   0.38922   0.00000  Uiso   1.00
H1206  H     0.87610   0.94956   0.36349   0.00000  Uiso   1.00
N1207  N     0.78308   0.70613   0.56635   0.00000  Uiso   1.00
H1208  H     0.74466   0.69762   0.56720   0.00000  Uiso   1.00
C1209  C     0.81379   0.70482   0.61116   0.00000  Uiso   1.00
H1210  H     0.82528   0.67252   0.62234   0.00000  Uiso   1.00
H1211  H     0.79057   0.71711   0.63650   0.00000  Uiso   1.00
H1212  H     0.84971   0.72393   0.61077   0.00000  Uiso   1.00
N1213  N     0.90086   0.88556   0.62431   0.00000  Uiso   1.00
H1214  H     0.89309   0.91651   0.62784   0.00000  Uiso   1.00
C1215  C     0.95574   0.87615   0.63571   0.00000  Uiso   1.00
H1216  H     0.96960   0.88396   0.33818   0.00000  Uiso   1.00
H1217  H     0.97840   0.89485   0.61280   0.00000  Uiso   1.00
H1218  H     0.96290   0.84273   0.63112   0.00000  Uiso   1.00
N1219  N     0.76583   0.78108   0.37570   0.00000  Uiso   1.00
H1220  H     0.77366   0.75014   0.37222   0.00000  Uiso   1.00
C1221  C     0.71094   0.79043   0.36427   0.00000  Uiso   1.00
H1222  H     0.68830   0.77173   0.38720   0.00000  Uiso   1.00
H1223  H     0.69710   0.78258   0.66181   0.00000  Uiso   1.00
H1224  H     0.70372   0.82385   0.36882   0.00000  Uiso   1.00
C1225  C     0.16765   0.08665   0.83440   0.00000  Uiso   1.00
C1226  C     0.16568   0.24668   0.83227   0.00000  Uiso   1.00
C1227  C     0.06727   0.16683   0.82181   0.00000  Uiso   1.00
C1228  C     0.26607   0.16650   0.84486   0.00000  Uiso   1.00
C1229  C     0.01345   0.17385   0.81673   0.00000  Uiso   1.00
C1230  C     0.31988   0.15948   0.84993   0.00000  Uiso   1.00
C1231  C     0.19809   0.02304   0.80567   0.00000  Uiso   1.00
C1232  C     0.13524   0.31029   0.86100   0.00000  Uiso   1.00
C1233  C     0.19254   0.31380   0.80074   0.00000  Uiso   1.00
C1234  C     0.14079   0.01954   0.86593   0.00000  Uiso   1.00
C1235  C     0.16316   0.29100   0.83005   0.00000  Uiso   1.00
C1236  C     0.17017   0.04233   0.83662   0.00000  Uiso   1.00
C1237  C     0.19984   0.19185   0.69350   0.00000  Uiso   1.00
C1238  C     0.13349   0.14149   0.97317   0.00000  Uiso   1.00
C1239  C     0.20015   0.19188   0.97881   0.00000  Uiso   1.00
C1240  C     0.13318   0.14145   0.68786   0.00000  Uiso   1.00
H1241  H     0.22618   0.21184   0.71413   0.00000  Uiso   1.00
H1242  H     0.10716   0.12149   0.95254   0.00000  Uiso   1.00
N1243  N     0.16665   0.16666   0.95240   0.00000  Uiso   1.00
N1244  N     0.16668   0.16668   0.71427   0.00000  Uiso   1.00
O1245  O     0.16666   0.10558   0.87154   0.00000  Uiso   1.00
O1246  O     0.16667   0.22775   0.79513   0.00000  Uiso   1.00
O1247  O     0.16666   0.10559   0.79510   0.00000  Uiso   1.00
O1248  O     0.16667   0.22774   0.87157   0.00000  Uiso   1.00
O1249  O     0.09058   0.16666   0.86261   0.00000  Uiso   1.00
O1250  O     0.24275   0.16667   0.80405   0.00000  Uiso   1.00
O1251  O     0.09058   0.16667   0.78617   0.00000  Uiso   1.00
O1252  O     0.24275   0.16666   0.88050   0.00000  Uiso   1.00
Zn1253 Zn    0.16667   0.16666   0.88437   0.00000  Uiso   1.00
Zn1254 Zn    0.16667   0.16667   0.78229   0.00000  Uiso   1.00
Cl1255 Cl    0.32274   0.20967   0.77173   0.00000  Uiso   1.00
Cl1256 Cl    0.01060   0.12366   0.89493   0.00000  Uiso   1.00
N1257  N     0.23225   0.04687   0.78037   0.00000  Uiso   1.00
H1258  H     0.23434   0.03814   0.74757   0.00000  Uiso   1.00
C1259  C     0.28288   0.05530   0.80550   0.00000  Uiso   1.00
H1260  H     0.30609   0.02631   0.81113   0.00000  Uiso   1.00
H1261  H     0.27861   0.06833   0.83896   0.00000  Uiso   1.00
H1262  H     0.30404   0.07834   0.78578   0.00000  Uiso   1.00
N1263  N     0.10109   0.28646   0.88630   0.00000  Uiso   1.00
H1264  H     0.09900   0.29519   0.91910   0.00000  Uiso   1.00
C1265  C     0.05045   0.27803   0.86118   0.00000  Uiso   1.00
H1266  H     0.02723   0.30702   0.85556   0.00000  Uiso   1.00
H1267  H     0.02930   0.25499   0.88088   0.00000  Uiso   1.00
H1268  H     0.05471   0.26502   0.82771   0.00000  Uiso   1.00
N1269  N     0.21691   0.29387   0.76699   0.00000  Uiso   1.00
H1270  H     0.25534   0.30238   0.76614   0.00000  Uiso   1.00
C1271  C     0.18621   0.29518   0.72217   0.00000  Uiso   1.00
H1272  H     0.17472   0.32749   0.71099   0.00000  Uiso   1.00
H1273  H     0.15029   0.27608   0.72256   0.00000  Uiso   1.00
H1274  H     0.20943   0.28290   0.69683   0.00000  Uiso   1.00
N1275  N     0.11642   0.03946   0.89968   0.00000  Uiso   1.00
H1276  H     0.07800   0.03096   0.90053   0.00000  Uiso   1.00
C1277  C     0.14712   0.03816   0.94449   0.00000  Uiso   1.00
H1278  H     0.15862   0.00585   0.95568   0.00000  Uiso   1.00
H1279  H     0.12390   0.05044   0.96984   0.00000  Uiso   1.00
H1280  H     0.18304   0.05726   0.94410   0.00000  Uiso   1.00
N1281  N     0.23419   0.21890   0.95765   0.00000  Uiso   1.00
H1282  H     0.22643   0.24984   0.96117   0.00000  Uiso   1.00
C1283  C     0.28907   0.20949   0.96904   0.00000  Uiso   1.00
H1284  H     0.30294   0.21729   0.67152   0.00000  Uiso   1.00
H1285  H     0.31174   0.22819   0.94613   0.00000  Uiso   1.00
H1286  H     0.29624   0.17607   0.96445   0.00000  Uiso   1.00
N1287  N     0.09917   0.11442   0.70903   0.00000  Uiso   1.00
H1288  H     0.10700   0.08347   0.70555   0.00000  Uiso   1.00
C1289  C     0.04427   0.12377   0.69761   0.00000  Uiso   1.00
H1290  H     0.02163   0.10506   0.72053   0.00000  Uiso   1.00
H1291  H     0.03043   0.11591   0.99514   0.00000  Uiso   1.00
H1292  H     0.03705   0.15718   0.70216   0.00000  Uiso   1.00
C1293  C     0.50099   0.08665   0.83440   0.00000  Uiso   1.00
C1294  C     0.49901   0.24668   0.83227   0.00000  Uiso   1.00
C1295  C     0.40060   0.16683   0.82181   0.00000  Uiso   1.00
C1296  C     0.59940   0.16650   0.84486   0.00000  Uiso   1.00
C1297  C     0.34679   0.17385   0.81673   0.00000  Uiso   1.00
C1298  C     0.65321   0.15948   0.84993   0.00000  Uiso   1.00
C1299  C     0.53143   0.02304   0.80567   0.00000  Uiso   1.00
C1300  C     0.46857   0.31029   0.86100   0.00000  Uiso   1.00
C1301  C     0.52588   0.31380   0.80074   0.00000  Uiso   1.00
C1302  C     0.47412   0.01954   0.86593   0.00000  Uiso   1.00
C1303  C     0.49650   0.29100   0.83005   0.00000  Uiso   1.00
C1304  C     0.50350   0.04233   0.83662   0.00000  Uiso   1.00
C1305  C     0.53318   0.19185   0.69350   0.00000  Uiso   1.00
C1306  C     0.46682   0.14149   0.97317   0.00000  Uiso   1.00
C1307  C     0.53349   0.19188   0.97881   0.00000  Uiso   1.00
C1308  C     0.46652   0.14145   0.68786   0.00000  Uiso   1.00
H1309  H     0.55951   0.21184   0.71413   0.00000  Uiso   1.00
H1310  H     0.44049   0.12149   0.95254   0.00000  Uiso   1.00
N1311  N     0.49999   0.16666   0.95240   0.00000  Uiso   1.00
N1312  N     0.50001   0.16668   0.71427   0.00000  Uiso   1.00
O1313  O     0.50000   0.10558   0.87154   0.00000  Uiso   1.00
O1314  O     0.50000   0.22775   0.79513   0.00000  Uiso   1.00
O1315  O     0.50000   0.10559   0.79510   0.00000  Uiso   1.00
O1316  O     0.50000   0.22774   0.87157   0.00000  Uiso   1.00
O1317  O     0.42392   0.16666   0.86261   0.00000  Uiso   1.00
O1318  O     0.57608   0.16667   0.80405   0.00000  Uiso   1.00
O1319  O     0.42392   0.16667   0.78617   0.00000  Uiso   1.00
O1320  O     0.57608   0.16666   0.88050   0.00000  Uiso   1.00
Zn1321 Zn    0.50000   0.16666   0.88437   0.00000  Uiso   1.00
Zn1322 Zn    0.50000   0.16667   0.78229   0.00000  Uiso   1.00
Cl1323 Cl    0.65607   0.20967   0.77173   0.00000  Uiso   1.00
Cl1324 Cl    0.34393   0.12366   0.89493   0.00000  Uiso   1.00
N1325  N     0.56558   0.04687   0.78037   0.00000  Uiso   1.00
H1326  H     0.56767   0.03814   0.74757   0.00000  Uiso   1.00
C1327  C     0.61622   0.05530   0.80550   0.00000  Uiso   1.00
H1328  H     0.63943   0.02631   0.81113   0.00000  Uiso   1.00
H1329  H     0.61194   0.06833   0.83896   0.00000  Uiso   1.00
H1330  H     0.63738   0.07834   0.78578   0.00000  Uiso   1.00
N1331  N     0.43442   0.28646   0.88630   0.00000  Uiso   1.00
H1332  H     0.43233   0.29519   0.91910   0.00000  Uiso   1.00
C1333  C     0.38378   0.27803   0.86118   0.00000  Uiso   1.00
H1334  H     0.36057   0.30702   0.85556   0.00000  Uiso   1.00
H1335  H     0.36263   0.25499   0.88088   0.00000  Uiso   1.00
H1336  H     0.38805   0.26502   0.82771   0.00000  Uiso   1.00
N1337  N     0.55025   0.29387   0.76699   0.00000  Uiso   1.00
H1338  H     0.58867   0.30238   0.76614   0.00000  Uiso   1.00
C1339  C     0.51955   0.29518   0.72217   0.00000  Uiso   1.00
H1340  H     0.50805   0.32749   0.71099   0.00000  Uiso   1.00
H1341  H     0.48363   0.27608   0.72256   0.00000  Uiso   1.00
H1342  H     0.54277   0.28290   0.69683   0.00000  Uiso   1.00
N1343  N     0.44975   0.03946   0.89968   0.00000  Uiso   1.00
H1344  H     0.41133   0.03096   0.90053   0.00000  Uiso   1.00
C1345  C     0.48045   0.03816   0.94449   0.00000  Uiso   1.00
H1346  H     0.49195   0.00585   0.95568   0.00000  Uiso   1.00
H1347  H     0.45724   0.05044   0.96984   0.00000  Uiso   1.00
H1348  H     0.51637   0.05726   0.94410   0.00000  Uiso   1.00
N1349  N     0.56753   0.21890   0.95765   0.00000  Uiso   1.00
H1350  H     0.55976   0.24984   0.96117   0.00000  Uiso   1.00
C1351  C     0.62241   0.20949   0.96904   0.00000  Uiso   1.00
H1352  H     0.63627   0.21729   0.67152   0.00000  Uiso   1.00
H1353  H     0.64507   0.22819   0.94613   0.00000  Uiso   1.00
H1354  H     0.62957   0.17607   0.96445   0.00000  Uiso   1.00
N1355  N     0.43250   0.11442   0.70903   0.00000  Uiso   1.00
H1356  H     0.44033   0.08347   0.70555   0.00000  Uiso   1.00
C1357  C     0.37760   0.12377   0.69761   0.00000  Uiso   1.00
H1358  H     0.35497   0.10506   0.72053   0.00000  Uiso   1.00
H1359  H     0.36376   0.11591   0.99514   0.00000  Uiso   1.00
H1360  H     0.37038   0.15718   0.70216   0.00000  Uiso   1.00
C1361  C     0.83432   0.08665   0.83440   0.00000  Uiso   1.00
C1362  C     0.83234   0.24668   0.83227   0.00000  Uiso   1.00
C1363  C     0.73393   0.16683   0.82181   0.00000  Uiso   1.00
C1364  C     0.93273   0.16650   0.84486   0.00000  Uiso   1.00
C1365  C     0.68012   0.17385   0.81673   0.00000  Uiso   1.00
C1366  C     0.98655   0.15948   0.84993   0.00000  Uiso   1.00
C1367  C     0.86476   0.02304   0.80567   0.00000  Uiso   1.00
C1368  C     0.80191   0.31029   0.86100   0.00000  Uiso   1.00
C1369  C     0.85921   0.31380   0.80074   0.00000  Uiso   1.00
C1370  C     0.80745   0.01954   0.86593   0.00000  Uiso   1.00
C1371  C     0.82983   0.29100   0.83005   0.00000  Uiso   1.00
C1372  C     0.83683   0.04233   0.83662   0.00000  Uiso   1.00
C1373  C     0.86651   0.19185   0.69350   0.00000  Uiso   1.00
C1374  C     0.80015   0.14149   0.97317   0.00000  Uiso   1.00
C1375  C     0.86682   0.19188   0.97881   0.00000  Uiso   1.00
C1376  C     0.79985   0.14145   0.68786   0.00000  Uiso   1.00
H1377  H     0.89285   0.21184   0.71413   0.00000  Uiso   1.00
H1378  H     0.77382   0.12149   0.95254   0.00000  Uiso   1.00
N1379  N     0.83332   0.16666   0.95240   0.00000  Uiso   1.00
N1380  N     0.83335   0.16668   0.71427   0.00000  Uiso   1.00
O1381  O     0.83333   0.10558   0.87154   0.00000  Uiso   1.00
O1382  O     0.83334   0.22775   0.79513   0.00000  Uiso   1.00
O1383  O     0.83333   0.10559   0.79510   0.00000  Uiso   1.00
O1384  O     0.83334   0.22774   0.87157   0.00000  Uiso   1.00
O1385  O     0.75725   0.16666   0.86261   0.00000  Uiso   1.00
O1386  O     0.90942   0.16667   0.80405   0.00000  Uiso   1.00
O1387  O     0.75725   0.16667   0.78617   0.00000  Uiso   1.00
O1388  O     0.90942   0.16666   0.88050   0.00000  Uiso   1.00
Zn1389 Zn    0.83333   0.16666   0.88437   0.00000  Uiso   1.00
Zn1390 Zn    0.83333   0.16667   0.78229   0.00000  Uiso   1.00
Cl1391 Cl    0.98940   0.20967   0.77173   0.00000  Uiso   1.00
Cl1392 Cl    0.67726   0.12366   0.89493   0.00000  Uiso   1.00
N1393  N     0.89891   0.04687   0.78037   0.00000  Uiso   1.00
H1394  H     0.90101   0.03814   0.74757   0.00000  Uiso   1.00
C1395  C     0.94955   0.05530   0.80550   0.00000  Uiso   1.00
H1396  H     0.97276   0.02631   0.81113   0.00000  Uiso   1.00
H1397  H     0.94528   0.06833   0.83896   0.00000  Uiso   1.00
H1398  H     0.97071   0.07834   0.78578   0.00000  Uiso   1.00
N1399  N     0.76775   0.28646   0.88630   0.00000  Uiso   1.00
H1400  H     0.76566   0.29519   0.91910   0.00000  Uiso   1.00
C1401  C     0.71711   0.27803   0.86118   0.00000  Uiso   1.00
H1402  H     0.69390   0.30702   0.85556   0.00000  Uiso   1.00
H1403  H     0.69596   0.25499   0.88088   0.00000  Uiso   1.00
H1404  H     0.72138   0.26502   0.82771   0.00000  Uiso   1.00
N1405  N     0.88358   0.29387   0.76699   0.00000  Uiso   1.00
H1406  H     0.92200   0.30238   0.76614   0.00000  Uiso   1.00
C1407  C     0.85288   0.29518   0.72217   0.00000  Uiso   1.00
H1408  H     0.84139   0.32749   0.71099   0.00000  Uiso   1.00
H1409  H     0.81696   0.27608   0.72256   0.00000  Uiso   1.00
H1410  H     0.87610   0.28290   0.69683   0.00000  Uiso   1.00
N1411  N     0.78308   0.03946   0.89968   0.00000  Uiso   1.00
H1412  H     0.74466   0.03096   0.90053   0.00000  Uiso   1.00
C1413  C     0.81379   0.03816   0.94449   0.00000  Uiso   1.00
H1414  H     0.82528   0.00585   0.95568   0.00000  Uiso   1.00
H1415  H     0.79057   0.05044   0.96984   0.00000  Uiso   1.00
H1416  H     0.84971   0.05726   0.94410   0.00000  Uiso   1.00
N1417  N     0.90086   0.21890   0.95765   0.00000  Uiso   1.00
H1418  H     0.89309   0.24984   0.96117   0.00000  Uiso   1.00
C1419  C     0.95574   0.20949   0.96904   0.00000  Uiso   1.00
H1420  H     0.96960   0.21729   0.67152   0.00000  Uiso   1.00
H1421  H     0.97840   0.22819   0.94613   0.00000  Uiso   1.00
H1422  H     0.96290   0.17607   0.96445   0.00000  Uiso   1.00
N1423  N     0.76583   0.11442   0.70903   0.00000  Uiso   1.00
H1424  H     0.77366   0.08347   0.70555   0.00000  Uiso   1.00
C1425  C     0.71094   0.12377   0.69761   0.00000  Uiso   1.00
H1426  H     0.68830   0.10506   0.72053   0.00000  Uiso   1.00
H1427  H     0.69710   0.11591   0.99514   0.00000  Uiso   1.00
H1428  H     0.70372   0.15718   0.70216   0.00000  Uiso   1.00
C1429  C     0.16765   0.41999   0.83440   0.00000  Uiso   1.00
C1430  C     0.16568   0.58001   0.83227   0.00000  Uiso   1.00
C1431  C     0.06727   0.50017   0.82181   0.00000  Uiso   1.00
C1432  C     0.26607   0.49983   0.84486   0.00000  Uiso   1.00
C1433  C     0.01345   0.50719   0.81673   0.00000  Uiso   1.00
C1434  C     0.31988   0.49281   0.84993   0.00000  Uiso   1.00
C1435  C     0.19809   0.35637   0.80567   0.00000  Uiso   1.00
C1436  C     0.13524   0.64363   0.86100   0.00000  Uiso   1.00
C1437  C     0.19254   0.64713   0.80074   0.00000  Uiso   1.00
C1438  C     0.14079   0.35287   0.86593   0.00000  Uiso   1.00
C1439  C     0.16316   0.62433   0.83005   0.00000  Uiso   1.00
C1440  C     0.17017   0.37567   0.83662   0.00000  Uiso   1.00
C1441  C     0.19984   0.52518   0.69350   0.00000  Uiso   1.00
C1442  C     0.13349   0.47482   0.97317   0.00000  Uiso   1.00
C1443  C     0.20015   0.52522   0.97881   0.00000  Uiso   1.00
C1444  C     0.13318   0.47478   0.68786   0.00000  Uiso   1.00
H1445  H     0.22618   0.54518   0.71413   0.00000  Uiso   1.00
H1446  H     0.10716   0.45482   0.95254   0.00000  Uiso   1.00
N1447  N     0.16665   0.49999   0.95240   0.00000  Uiso   1.00
N1448  N     0.16668   0.50001   0.71427   0.00000  Uiso   1.00
O1449  O     0.16666   0.43892   0.87154   0.00000  Uiso   1.00
O1450  O     0.16667   0.56108   0.79513   0.00000  Uiso   1.00
O1451  O     0.16666   0.43893   0.79510   0.00000  Uiso   1.00
O1452  O     0.16667   0.56107   0.87157   0.00000  Uiso   1.00
O1453  O     0.09058   0.50000   0.86261   0.00000  Uiso   1.00
O1454  O     0.24275   0.50000   0.80405   0.00000  Uiso   1.00
O1455  O     0.09058   0.50000   0.78617   0.00000  Uiso   1.00
O1456  O     0.24275   0.50000   0.88050   0.00000  Uiso   1.00
Zn1457 Zn    0.16667   0.49999   0.88437   0.00000  Uiso   1.00
Zn1458 Zn    0.16667   0.50001   0.78229   0.00000  Uiso   1.00
Cl1459 Cl    0.32274   0.54300   0.77173   0.00000  Uiso   1.00
Cl1460 Cl    0.01060   0.45699   0.89493   0.00000  Uiso   1.00
N1461  N     0.23225   0.38020   0.78037   0.00000  Uiso   1.00
H1462  H     0.23434   0.37147   0.74757   0.00000  Uiso   1.00
C1463  C     0.28288   0.38864   0.80550   0.00000  Uiso   1.00
H1464  H     0.30609   0.35965   0.81113   0.00000  Uiso   1.00
H1465  H     0.27861   0.40166   0.83896   0.00000  Uiso   1.00
H1466  H     0.30404   0.41167   0.78578   0.00000  Uiso   1.00
N1467  N     0.10109   0.61980   0.88630   0.00000  Uiso   1.00
H1468  H     0.09900   0.62852   0.91910   0.00000  Uiso   1.00
C1469  C     0.05045   0.61137   0.86118   0.00000  Uiso   1.00
H1470  H     0.02723   0.64035   0.85556   0.00000  Uiso   1.00
H1471  H     0.02930   0.58832   0.88088   0.00000  Uiso   1.00
H1472  H     0.05471   0.59835   0.82771   0.00000  Uiso   1.00
N1473  N     0.21691   0.62721   0.76699   0.00000  Uiso   1.00
H1474  H     0.25534   0.63571   0.76614   0.00000  Uiso   1.00
C1475  C     0.18621   0.62851   0.72217   0.00000  Uiso   1.00
H1476  H     0.17472   0.66082   0.71099   0.00000  Uiso   1.00
H1477  H     0.15029   0.60941   0.72256   0.00000  Uiso   1.00
H1478  H     0.20943   0.61623   0.69683   0.00000  Uiso   1.00
N1479  N     0.11642   0.37279   0.89968   0.00000  Uiso   1.00
H1480  H     0.07800   0.36429   0.90053   0.00000  Uiso   1.00
C1481  C     0.14712   0.37149   0.94449   0.00000  Uiso   1.00
H1482  H     0.15862   0.33919   0.95568   0.00000  Uiso   1.00
H1483  H     0.12390   0.38377   0.96984   0.00000  Uiso   1.00
H1484  H     0.18304   0.39060   0.94410   0.00000  Uiso   1.00
N1485  N     0.23419   0.55223   0.95765   0.00000  Uiso   1.00
H1486  H     0.22643   0.58318   0.96117   0.00000  Uiso   1.00
C1487  C     0.28907   0.54282   0.96904   0.00000  Uiso   1.00
H1488  H     0.30294   0.55062   0.67152   0.00000  Uiso   1.00
H1489  H     0.31174   0.56152   0.94613   0.00000  Uiso   1.00
H1490  H     0.29624   0.50940   0.96445   0.00000  Uiso   1.00
N1491  N     0.09917   0.44775   0.70903   0.00000  Uiso   1.00
H1492  H     0.10700   0.41681   0.70555   0.00000  Uiso   1.00
C1493  C     0.04427   0.45710   0.69761   0.00000  Uiso   1.00
H1494  H     0.02163   0.43840   0.72053   0.00000  Uiso   1.00
H1495  H     0.03043   0.44925   0.99514   0.00000  Uiso   1.00
H1496  H     0.03705   0.49052   0.70216   0.00000  Uiso   1.00
C1497  C     0.50099   0.41999   0.83440   0.00000  Uiso   1.00
C1498  C     0.49901   0.58001   0.83227   0.00000  Uiso   1.00
C1499  C     0.40060   0.50017   0.82181   0.00000  Uiso   1.00
C1500  C     0.59940   0.49983   0.84486   0.00000  Uiso   1.00
C1501  C     0.34679   0.50719   0.81673   0.00000  Uiso   1.00
C1502  C     0.65321   0.49281   0.84993   0.00000  Uiso   1.00
C1503  C     0.53143   0.35637   0.80567   0.00000  Uiso   1.00
C1504  C     0.46857   0.64363   0.86100   0.00000  Uiso   1.00
C1505  C     0.52588   0.64713   0.80074   0.00000  Uiso   1.00
C1506  C     0.47412   0.35287   0.86593   0.00000  Uiso   1.00
C1507  C     0.49650   0.62433   0.83005   0.00000  Uiso   1.00
C1508  C     0.50350   0.37567   0.83662   0.00000  Uiso   1.00
C1509  C     0.53318   0.52518   0.69350   0.00000  Uiso   1.00
C1510  C     0.46682   0.47482   0.97317   0.00000  Uiso   1.00
C1511  C     0.53349   0.52522   0.97881   0.00000  Uiso   1.00
C1512  C     0.46652   0.47478   0.68786   0.00000  Uiso   1.00
H1513  H     0.55951   0.54518   0.71413   0.00000  Uiso   1.00
H1514  H     0.44049   0.45482   0.95254   0.00000  Uiso   1.00
N1515  N     0.49999   0.49999   0.95240   0.00000  Uiso   1.00
N1516  N     0.50001   0.50001   0.71427   0.00000  Uiso   1.00
O1517  O     0.50000   0.43892   0.87154   0.00000  Uiso   1.00
O1518  O     0.50000   0.56108   0.79513   0.00000  Uiso   1.00
O1519  O     0.50000   0.43893   0.79510   0.00000  Uiso   1.00
O1520  O     0.50000   0.56107   0.87157   0.00000  Uiso   1.00
O1521  O     0.42392   0.50000   0.86261   0.00000  Uiso   1.00
O1522  O     0.57608   0.50000   0.80405   0.00000  Uiso   1.00
O1523  O     0.42392   0.50000   0.78617   0.00000  Uiso   1.00
O1524  O     0.57608   0.50000   0.88050   0.00000  Uiso   1.00
Zn1525 Zn    0.50000   0.49999   0.88437   0.00000  Uiso   1.00
Zn1526 Zn    0.50000   0.50001   0.78229   0.00000  Uiso   1.00
Cl1527 Cl    0.65607   0.54300   0.77173   0.00000  Uiso   1.00
Cl1528 Cl    0.34393   0.45699   0.89493   0.00000  Uiso   1.00
N1529  N     0.56558   0.38020   0.78037   0.00000  Uiso   1.00
H1530  H     0.56767   0.37147   0.74757   0.00000  Uiso   1.00
C1531  C     0.61622   0.38864   0.80550   0.00000  Uiso   1.00
H1532  H     0.63943   0.35965   0.81113   0.00000  Uiso   1.00
H1533  H     0.61194   0.40166   0.83896   0.00000  Uiso   1.00
H1534  H     0.63738   0.41167   0.78578   0.00000  Uiso   1.00
N1535  N     0.43442   0.61980   0.88630   0.00000  Uiso   1.00
H1536  H     0.43233   0.62852   0.91910   0.00000  Uiso   1.00
C1537  C     0.38378   0.61137   0.86118   0.00000  Uiso   1.00
H1538  H     0.36057   0.64035   0.85556   0.00000  Uiso   1.00
H1539  H     0.36263   0.58832   0.88088   0.00000  Uiso   1.00
H1540  H     0.38805   0.59835   0.82771   0.00000  Uiso   1.00
N1541  N     0.55025   0.62721   0.76699   0.00000  Uiso   1.00
H1542  H     0.58867   0.63571   0.76614   0.00000  Uiso   1.00
C1543  C     0.51955   0.62851   0.72217   0.00000  Uiso   1.00
H1544  H     0.50805   0.66082   0.71099   0.00000  Uiso   1.00
H1545  H     0.48363   0.60941   0.72256   0.00000  Uiso   1.00
H1546  H     0.54277   0.61623   0.69683   0.00000  Uiso   1.00
N1547  N     0.44975   0.37279   0.89968   0.00000  Uiso   1.00
H1548  H     0.41133   0.36429   0.90053   0.00000  Uiso   1.00
C1549  C     0.48045   0.37149   0.94449   0.00000  Uiso   1.00
H1550  H     0.49195   0.33919   0.95568   0.00000  Uiso   1.00
H1551  H     0.45724   0.38377   0.96984   0.00000  Uiso   1.00
H1552  H     0.51637   0.39060   0.94410   0.00000  Uiso   1.00
N1553  N     0.56753   0.55223   0.95765   0.00000  Uiso   1.00
H1554  H     0.55976   0.58318   0.96117   0.00000  Uiso   1.00
C1555  C     0.62241   0.54282   0.96904   0.00000  Uiso   1.00
H1556  H     0.63627   0.55062   0.67152   0.00000  Uiso   1.00
H1557  H     0.64507   0.56152   0.94613   0.00000  Uiso   1.00
H1558  H     0.62957   0.50940   0.96445   0.00000  Uiso   1.00
N1559  N     0.43250   0.44775   0.70903   0.00000  Uiso   1.00
H1560  H     0.44033   0.41681   0.70555   0.00000  Uiso   1.00
C1561  C     0.37760   0.45710   0.69761   0.00000  Uiso   1.00
H1562  H     0.35497   0.43840   0.72053   0.00000  Uiso   1.00
H1563  H     0.36376   0.44925   0.99514   0.00000  Uiso   1.00
H1564  H     0.37038   0.49052   0.70216   0.00000  Uiso   1.00
C1565  C     0.83432   0.41999   0.83440   0.00000  Uiso   1.00
C1566  C     0.83234   0.58001   0.83227   0.00000  Uiso   1.00
C1567  C     0.73393   0.50017   0.82181   0.00000  Uiso   1.00
C1568  C     0.93273   0.49983   0.84486   0.00000  Uiso   1.00
C1569  C     0.68012   0.50719   0.81673   0.00000  Uiso   1.00
C1570  C     0.98655   0.49281   0.84993   0.00000  Uiso   1.00
C1571  C     0.86476   0.35637   0.80567   0.00000  Uiso   1.00
C1572  C     0.80191   0.64363   0.86100   0.00000  Uiso   1.00
C1573  C     0.85921   0.64713   0.80074   0.00000  Uiso   1.00
C1574  C     0.80745   0.35287   0.86593   0.00000  Uiso   1.00
C1575  C     0.82983   0.62433   0.83005   0.00000  Uiso   1.00
C1576  C     0.83683   0.37567   0.83662   0.00000  Uiso   1.00
C1577  C     0.86651   0.52518   0.69350   0.00000  Uiso   1.00
C1578  C     0.80015   0.47482   0.97317   0.00000  Uiso   1.00
C1579  C     0.86682   0.52522   0.97881   0.00000  Uiso   1.00
C1580  C     0.79985   0.47478   0.68786   0.00000  Uiso   1.00
H1581  H     0.89285   0.54518   0.71413   0.00000  Uiso   1.00
H1582  H     0.77382   0.45482   0.95254   0.00000  Uiso   1.00
N1583  N     0.83332   0.49999   0.95240   0.00000  Uiso   1.00
N1584  N     0.83335   0.50001   0.71427   0.00000  Uiso   1.00
O1585  O     0.83333   0.43892   0.87154   0.00000  Uiso   1.00
O1586  O     0.83334   0.56108   0.79513   0.00000  Uiso   1.00
O1587  O     0.83333   0.43893   0.79510   0.00000  Uiso   1.00
O1588  O     0.83334   0.56107   0.87157   0.00000  Uiso   1.00
O1589  O     0.75725   0.50000   0.86261   0.00000  Uiso   1.00
O1590  O     0.90942   0.50000   0.80405   0.00000  Uiso   1.00
O1591  O     0.75725   0.50000   0.78617   0.00000  Uiso   1.00
O1592  O     0.90942   0.50000   0.88050   0.00000  Uiso   1.00
Zn1593 Zn    0.83333   0.49999   0.88437   0.00000  Uiso   1.00
Zn1594 Zn    0.83333   0.50001   0.78229   0.00000  Uiso   1.00
Cl1595 Cl    0.98940   0.54300   0.77173   0.00000  Uiso   1.00
Cl1596 Cl    0.67726   0.45699   0.89493   0.00000  Uiso   1.00
N1597  N     0.89891   0.38020   0.78037   0.00000  Uiso   1.00
H1598  H     0.90101   0.37147   0.74757   0.00000  Uiso   1.00
C1599  C     0.94955   0.38864   0.80550   0.00000  Uiso   1.00
H1600  H     0.97276   0.35965   0.81113   0.00000  Uiso   1.00
H1601  H     0.94528   0.40166   0.83896   0.00000  Uiso   1.00
H1602  H     0.97071   0.41167   0.78578   0.00000  Uiso   1.00
N1603  N     0.76775   0.61980   0.88630   0.00000  Uiso   1.00
H1604  H     0.76566   0.62852   0.91910   0.00000  Uiso   1.00
C1605  C     0.71711   0.61137   0.86118   0.00000  Uiso   1.00
H1606  H     0.69390   0.64035   0.85556   0.00000  Uiso   1.00
H1607  H     0.69596   0.58832   0.88088   0.00000  Uiso   1.00
H1608  H     0.72138   0.59835   0.82771   0.00000  Uiso   1.00
N1609  N     0.88358   0.62721   0.76699   0.00000  Uiso   1.00
H1610  H     0.92200   0.63571   0.76614   0.00000  Uiso   1.00
C1611  C     0.85288   0.62851   0.72217   0.00000  Uiso   1.00
H1612  H     0.84139   0.66082   0.71099   0.00000  Uiso   1.00
H1613  H     0.81696   0.60941   0.72256   0.00000  Uiso   1.00
H1614  H     0.87610   0.61623   0.69683   0.00000  Uiso   1.00
N1615  N     0.78308   0.37279   0.89968   0.00000  Uiso   1.00
H1616  H     0.74466   0.36429   0.90053   0.00000  Uiso   1.00
C1617  C     0.81379   0.37149   0.94449   0.00000  Uiso   1.00
H1618  H     0.82528   0.33919   0.95568   0.00000  Uiso   1.00
H1619  H     0.79057   0.38377   0.96984   0.00000  Uiso   1.00
H1620  H     0.84971   0.39060   0.94410   0.00000  Uiso   1.00
N1621  N     0.90086   0.55223   0.95765   0.00000  Uiso   1.00
H1622  H     0.89309   0.58318   0.96117   0.00000  Uiso   1.00
C1623  C     0.95574   0.54282   0.96904   0.00000  Uiso   1.00
H1624  H     0.96960   0.55062   0.67152   0.00000  Uiso   1.00
H1625  H     0.97840   0.56152   0.94613   0.00000  Uiso   1.00
H1626  H     0.96290   0.50940   0.96445   0.00000  Uiso   1.00
N1627  N     0.76583   0.44775   0.70903   0.00000  Uiso   1.00
H1628  H     0.77366   0.41681   0.70555   0.00000  Uiso   1.00
C1629  C     0.71094   0.45710   0.69761   0.00000  Uiso   1.00
H1630  H     0.68830   0.43840   0.72053   0.00000  Uiso   1.00
H1631  H     0.69710   0.44925   0.99514   0.00000  Uiso   1.00
H1632  H     0.70372   0.49052   0.70216   0.00000  Uiso   1.00
C1633  C     0.16765   0.75332   0.83440   0.00000  Uiso   1.00
C1634  C     0.16568   0.91335   0.83227   0.00000  Uiso   1.00
C1635  C     0.06727   0.83350   0.82181   0.00000  Uiso   1.00
C1636  C     0.26607   0.83317   0.84486   0.00000  Uiso   1.00
C1637  C     0.01345   0.84052   0.81673   0.00000  Uiso   1.00
C1638  C     0.31988   0.82615   0.84993   0.00000  Uiso   1.00
C1639  C     0.19809   0.68971   0.80567   0.00000  Uiso   1.00
C1640  C     0.13524   0.97696   0.86100   0.00000  Uiso   1.00
C1641  C     0.19254   0.98046   0.80074   0.00000  Uiso   1.00
C1642  C     0.14079   0.68620   0.86593   0.00000  Uiso   1.00
C1643  C     0.16316   0.95767   0.83005   0.00000  Uiso   1.00
C1644  C     0.17017   0.70900   0.83662   0.00000  Uiso   1.00
C1645  C     0.19984   0.85851   0.69350   0.00000  Uiso   1.00
C1646  C     0.13349   0.80816   0.97317   0.00000  Uiso   1.00
C1647  C     0.20015   0.85855   0.97881   0.00000  Uiso   1.00
C1648  C     0.13318   0.80812   0.68786   0.00000  Uiso   1.00
H1649  H     0.22618   0.87851   0.71413   0.00000  Uiso   1.00
H1650  H     0.10716   0.78815   0.95254   0.00000  Uiso   1.00
N1651  N     0.16665   0.83332   0.95240   0.00000  Uiso   1.00
N1652  N     0.16668   0.83334   0.71427   0.00000  Uiso   1.00
O1653  O     0.16666   0.77225   0.87154   0.00000  Uiso   1.00
O1654  O     0.16667   0.89442   0.79513   0.00000  Uiso   1.00
O1655  O     0.16666   0.77226   0.79510   0.00000  Uiso   1.00
O1656  O     0.16667   0.89441   0.87157   0.00000  Uiso   1.00
O1657  O     0.09058   0.83333   0.86261   0.00000  Uiso   1.00
O1658  O     0.24275   0.83334   0.80405   0.00000  Uiso   1.00
O1659  O     0.09058   0.83334   0.78617   0.00000  Uiso   1.00
O1660  O     0.24275   0.83333   0.88050   0.00000  Uiso   1.00
Zn1661 Zn    0.16667   0.83333   0.88437   0.00000  Uiso   1.00
Zn1662 Zn    0.16667   0.83334   0.78229   0.00000  Uiso   1.00
Cl1663 Cl    0.32274   0.87634   0.77173   0.00000  Uiso   1.00
Cl1664 Cl    0.01060   0.79033   0.89493   0.00000  Uiso   1.00
N1665  N     0.23225   0.71354   0.78037   0.00000  Uiso   1.00
H1666  H     0.23434   0.70481   0.74757   0.00000  Uiso   1.00
C1667  C     0.28288   0.72197   0.80550   0.00000  Uiso   1.00
H1668  H     0.30609   0.69298   0.81113   0.00000  Uiso   1.00
H1669  H     0.27861   0.73500   0.83896   0.00000  Uiso   1.00
H1670  H     0.30404   0.74500   0.78578   0.00000  Uiso   1.00
N1671  N     0.10109   0.95313   0.88630   0.00000  Uiso   1.00
H1672  H     0.09900   0.96186   0.91910   0.00000  Uiso   1.00
C1673  C     0.05045   0.94470   0.86118   0.00000  Uiso   1.00
H1674  H     0.02723   0.97369   0.85556   0.00000  Uiso   1.00
H1675  H     0.02930   0.92166   0.88088   0.00000  Uiso   1.00
H1676  H     0.05471   0.93169   0.82771   0.00000  Uiso   1.00
N1677  N     0.21691   0.96054   0.76699   0.00000  Uiso   1.00
H1678  H     0.25534   0.96904   0.76614   0.00000  Uiso   1.00
C1679  C     0.18621   0.96185   0.72217   0.00000  Uiso   1.00
H1680  H     0.17472   0.99415   0.71099   0.00000  Uiso   1.00
H1681  H     0.15029   0.94274   0.72256   0.00000  Uiso   1.00
H1682  H     0.20943   0.94956   0.69683   0.00000  Uiso   1.00
N1683  N     0.11642   0.70613   0.89968   0.00000  Uiso   1.00
H1684  H     0.07800   0.69762   0.90053   0.00000  Uiso   1.00
C1685  C     0.14712   0.70482   0.94449   0.00000  Uiso   1.00
H1686  H     0.15862   0.67252   0.95568   0.00000  Uiso   1.00
H1687  H     0.12390   0.71711   0.96984   0.00000  Uiso   1.00
H1688  H     0.18304   0.72393   0.94410   0.00000  Uiso   1.00
N1689  N     0.23419   0.88556   0.95765   0.00000  Uiso   1.00
H1690  H     0.22643   0.91651   0.96117   0.00000  Uiso   1.00
C1691  C     0.28907   0.87615   0.96904   0.00000  Uiso   1.00
H1692  H     0.30294   0.88396   0.67152   0.00000  Uiso   1.00
H1693  H     0.31174   0.89485   0.94613   0.00000  Uiso   1.00
H1694  H     0.29624   0.84273   0.96445   0.00000  Uiso   1.00
N1695  N     0.09917   0.78108   0.70903   0.00000  Uiso   1.00
H1696  H     0.10700   0.75014   0.70555   0.00000  Uiso   1.00
C1697  C     0.04427   0.79043   0.69761   0.00000  Uiso   1.00
H1698  H     0.02163   0.77173   0.72053   0.00000  Uiso   1.00
H1699  H     0.03043   0.78258   0.99514   0.00000  Uiso   1.00
H1700  H     0.03705   0.82385   0.70216   0.00000  Uiso   1.00
C1701  C     0.50099   0.75332   0.83440   0.00000  Uiso   1.00
C1702  C     0.49901   0.91335   0.83227   0.00000  Uiso   1.00
C1703  C     0.40060   0.83350   0.82181   0.00000  Uiso   1.00
C1704  C     0.59940   0.83317   0.84486   0.00000  Uiso   1.00
C1705  C     0.34679   0.84052   0.81673   0.00000  Uiso   1.00
C1706  C     0.65321   0.82615   0.84993   0.00000  Uiso   1.00
C1707  C     0.53143   0.68971   0.80567   0.00000  Uiso   1.00
C1708  C     0.46857   0.97696   0.86100   0.00000  Uiso   1.00
C1709  C     0.52588   0.98046   0.80074   0.00000  Uiso   1.00
C1710  C     0.47412   0.68620   0.86593   0.00000  Uiso   1.00
C1711  C     0.49650   0.95767   0.83005   0.00000  Uiso   1.00
C1712  C     0.50350   0.70900   0.83662   0.00000  Uiso   1.00
C1713  C     0.53318   0.85851   0.69350   0.00000  Uiso   1.00
C1714  C     0.46682   0.80816   0.97317   0.00000  Uiso   1.00
C1715  C     0.53349   0.85855   0.97881   0.00000  Uiso   1.00
C1716  C     0.46652   0.80812   0.68786   0.00000  Uiso   1.00
H1717  H     0.55951   0.87851   0.71413   0.00000  Uiso   1.00
H1718  H     0.44049   0.78815   0.95254   0.00000  Uiso   1.00
N1719  N     0.49999   0.83332   0.95240   0.00000  Uiso   1.00
N1720  N     0.50001   0.83334   0.71427   0.00000  Uiso   1.00
O1721  O     0.50000   0.77225   0.87154   0.00000  Uiso   1.00
O1722  O     0.50000   0.89442   0.79513   0.00000  Uiso   1.00
O1723  O     0.50000   0.77226   0.79510   0.00000  Uiso   1.00
O1724  O     0.50000   0.89441   0.87157   0.00000  Uiso   1.00
O1725  O     0.42392   0.83333   0.86261   0.00000  Uiso   1.00
O1726  O     0.57608   0.83334   0.80405   0.00000  Uiso   1.00
O1727  O     0.42392   0.83334   0.78617   0.00000  Uiso   1.00
O1728  O     0.57608   0.83333   0.88050   0.00000  Uiso   1.00
Zn1729 Zn    0.50000   0.83333   0.88437   0.00000  Uiso   1.00
Zn1730 Zn    0.50000   0.83334   0.78229   0.00000  Uiso   1.00
Cl1731 Cl    0.65607   0.87634   0.77173   0.00000  Uiso   1.00
Cl1732 Cl    0.34393   0.79033   0.89493   0.00000  Uiso   1.00
N1733  N     0.56558   0.71354   0.78037   0.00000  Uiso   1.00
H1734  H     0.56767   0.70481   0.74757   0.00000  Uiso   1.00
C1735  C     0.61622   0.72197   0.80550   0.00000  Uiso   1.00
H1736  H     0.63943   0.69298   0.81113   0.00000  Uiso   1.00
H1737  H     0.61194   0.73500   0.83896   0.00000  Uiso   1.00
H1738  H     0.63738   0.74500   0.78578   0.00000  Uiso   1.00
N1739  N     0.43442   0.95313   0.88630   0.00000  Uiso   1.00
H1740  H     0.43233   0.96186   0.91910   0.00000  Uiso   1.00
C1741  C     0.38378   0.94470   0.86118   0.00000  Uiso   1.00
H1742  H     0.36057   0.97369   0.85556   0.00000  Uiso   1.00
H1743  H     0.36263   0.92166   0.88088   0.00000  Uiso   1.00
H1744  H     0.38805   0.93169   0.82771   0.00000  Uiso   1.00
N1745  N     0.55025   0.96054   0.76699   0.00000  Uiso   1.00
H1746  H     0.58867   0.96904   0.76614   0.00000  Uiso   1.00
C1747  C     0.51955   0.96185   0.72217   0.00000  Uiso   1.00
H1748  H     0.50805   0.99415   0.71099   0.00000  Uiso   1.00
H1749  H     0.48363   0.94274   0.72256   0.00000  Uiso   1.00
H1750  H     0.54277   0.94956   0.69683   0.00000  Uiso   1.00
N1751  N     0.44975   0.70613   0.89968   0.00000  Uiso   1.00
H1752  H     0.41133   0.69762   0.90053   0.00000  Uiso   1.00
C1753  C     0.48045   0.70482   0.94449   0.00000  Uiso   1.00
H1754  H     0.49195   0.67252   0.95568   0.00000  Uiso   1.00
H1755  H     0.45724   0.71711   0.96984   0.00000  Uiso   1.00
H1756  H     0.51637   0.72393   0.94410   0.00000  Uiso   1.00
N1757  N     0.56753   0.88556   0.95765   0.00000  Uiso   1.00
H1758  H     0.55976   0.91651   0.96117   0.00000  Uiso   1.00
C1759  C     0.62241   0.87615   0.96904   0.00000  Uiso   1.00
H1760  H     0.63627   0.88396   0.67152   0.00000  Uiso   1.00
H1761  H     0.64507   0.89485   0.94613   0.00000  Uiso   1.00
H1762  H     0.62957   0.84273   0.96445   0.00000  Uiso   1.00
N1763  N     0.43250   0.78108   0.70903   0.00000  Uiso   1.00
H1764  H     0.44033   0.75014   0.70555   0.00000  Uiso   1.00
C1765  C     0.37760   0.79043   0.69761   0.00000  Uiso   1.00
H1766  H     0.35497   0.77173   0.72053   0.00000  Uiso   1.00
H1767  H     0.36376   0.78258   0.99514   0.00000  Uiso   1.00
H1768  H     0.37038   0.82385   0.70216   0.00000  Uiso   1.00
C1769  C     0.83432   0.75332   0.83440   0.00000  Uiso   1.00
C1770  C     0.83234   0.91335   0.83227   0.00000  Uiso   1.00
C1771  C     0.73393   0.83350   0.82181   0.00000  Uiso   1.00
C1772  C     0.93273   0.83317   0.84486   0.00000  Uiso   1.00
C1773  C     0.68012   0.84052   0.81673   0.00000  Uiso   1.00
C1774  C     0.98655   0.82615   0.84993   0.00000  Uiso   1.00
C1775  C     0.86476   0.68971   0.80567   0.00000  Uiso   1.00
C1776  C     0.80191   0.97696   0.86100   0.00000  Uiso   1.00
C1777  C     0.85921   0.98046   0.80074   0.00000  Uiso   1.00
C1778  C     0.80745   0.68620   0.86593   0.00000  Uiso   1.00
C1779  C     0.82983   0.95767   0.83005   0.00000  Uiso   1.00
C1780  C     0.83683   0.70900   0.83662   0.00000  Uiso   1.00
C1781  C     0.86651   0.85851   0.69350   0.00000  Uiso   1.00
C1782  C     0.80015   0.80816   0.97317   0.00000  Uiso   1.00
C1783  C     0.86682   0.85855   0.97881   0.00000  Uiso   1.00
C1784  C     0.79985   0.80812   0.68786   0.00000  Uiso   1.00
H1785  H     0.89285   0.87851   0.71413   0.00000  Uiso   1.00
H1786  H     0.77382   0.78815   0.95254   0.00000  Uiso   1.00
N1787  N     0.83332   0.83332   0.95240   0.00000  Uiso   1.00
N1788  N     0.83335   0.83334   0.71427   0.00000  Uiso   1.00
O1789  O     0.83333   0.77225   0.87154   0.00000  Uiso   1.00
O1790  O     0.83334   0.89442   0.79513   0.00000  Uiso   1.00
O1791  O     0.83333   0.77226   0.79510   0.00000  Uiso   1.00
O1792  O     0.83334   0.89441   0.87157   0.00000  Uiso   1.00
O1793  O     0.75725   0.83333   0.86261   0.00000  Uiso   1.00
O1794  O     0.90942   0.83334   0.80405   0.00000  Uiso   1.00
O1795  O     0.75725   0.83334   0.78617   0.00000  Uiso   1.00
O1796  O     0.90942   0.83333   0.88050   0.00000  Uiso   1.00
Zn1797 Zn    0.83333   0.83333   0.88437   0.00000  Uiso   1.00
Zn1798 Zn    0.83333   0.83334   0.78229   0.00000  Uiso   1.00
Cl1799 Cl    0.98940   0.87634   0.77173   0.00000  Uiso   1.00
Cl1800 Cl    0.67726   0.79033   0.89493   0.00000  Uiso   1.00
N1801  N     0.89891   0.71354   0.78037   0.00000  Uiso   1.00
H1802  H     0.90101   0.70481   0.74757   0.00000  Uiso   1.00
C1803  C     0.94955   0.72197   0.80550   0.00000  Uiso   1.00
H1804  H     0.97276   0.69298   0.81113   0.00000  Uiso   1.00
H1805  H     0.94528   0.73500   0.83896   0.00000  Uiso   1.00
H1806  H     0.97071   0.74500   0.78578   0.00000  Uiso   1.00
N1807  N     0.76775   0.95313   0.88630   0.00000  Uiso   1.00
H1808  H     0.76566   0.96186   0.91910   0.00000  Uiso   1.00
C1809  C     0.71711   0.94470   0.86118   0.00000  Uiso   1.00
H1810  H     0.69390   0.97369   0.85556   0.00000  Uiso   1.00
H1811  H     0.69596   0.92166   0.88088   0.00000  Uiso   1.00
H1812  H     0.72138   0.93169   0.82771   0.00000  Uiso   1.00
N1813  N     0.88358   0.96054   0.76699   0.00000  Uiso   1.00
H1814  H     0.92200   0.96904   0.76614   0.00000  Uiso   1.00
C1815  C     0.85288   0.96185   0.72217   0.00000  Uiso   1.00
H1816  H     0.84139   0.99415   0.71099   0.00000  Uiso   1.00
H1817  H     0.81696   0.94274   0.72256   0.00000  Uiso   1.00
H1818  H     0.87610   0.94956   0.69683   0.00000  Uiso   1.00
N1819  N     0.78308   0.70613   0.89968   0.00000  Uiso   1.00
H1820  H     0.74466   0.69762   0.90053   0.00000  Uiso   1.00
C1821  C     0.81379   0.70482   0.94449   0.00000  Uiso   1.00
H1822  H     0.82528   0.67252   0.95568   0.00000  Uiso   1.00
H1823  H     0.79057   0.71711   0.96984   0.00000  Uiso   1.00
H1824  H     0.84971   0.72393   0.94410   0.00000  Uiso   1.00
N1825  N     0.90086   0.88556   0.95765   0.00000  Uiso   1.00
H1826  H     0.89309   0.91651   0.96117   0.00000  Uiso   1.00
C1827  C     0.95574   0.87615   0.96904   0.00000  Uiso   1.00
H1828  H     0.96960   0.88396   0.67152   0.00000  Uiso   1.00
H1829  H     0.97840   0.89485   0.94613   0.00000  Uiso   1.00
H1830  H     0.96290   0.84273   0.96445   0.00000  Uiso   1.00
N1831  N     0.76583   0.78108   0.70903   0.00000  Uiso   1.00
H1832  H     0.77366   0.75014   0.70555   0.00000  Uiso   1.00
C1833  C     0.71094   0.79043   0.69761   0.00000  Uiso   1.00
H1834  H     0.68830   0.77173   0.72053   0.00000  Uiso   1.00
H1835  H     0.69710   0.78258   0.99514   0.00000  Uiso   1.00
H1836  H     0.70372   0.82385   0.70216   0.00000  Uiso   1.00
loop_
_geom_bond_atom_site_label_1
_geom_bond_atom_site_label_2
_geom_bond_distance
_geom_bond_site_symmetry_2
_ccdc_geom_bond_type
C1     O21     1.281   .     A
C1     C12     1.428   .     S
C1     O23     1.288   .     A
C2     O22     1.281   .     A
C2     O24     1.288   .     A
C2     C11     1.428   .     S
C3     O27     1.283   .     A
C3     C5      1.399   .     S
C3     O25     1.275   .     A
C4     O26     1.275   .     A
C4     C6      1.399   .     S
C4     O28     1.283   .     A
C5     C142    1.343   1_455 S
C5     Cl167   1.777   1_455 S
C6     C73     1.343   .     S
C6     Cl100   1.777   .     S
C7     C12     1.406   .     A
C7     N33     1.430   .     S
C7     C417    1.389   1_545 S
C8     C11     1.406   .     A
C8     N39     1.430   .     S
C8     C214    1.389   .     S
C9     C11     1.408   .     A
C9     N45     1.426   .     S
C9     C211    1.389   .     S
C10    C12     1.408   .     A
C10    N51     1.426   .     S
C10    C416    1.389   1_545 S
C13    H17     1.078   .     S
C13    N20     1.363   .     A
C13    C1239   1.421   1_554 S
C14    H18     1.078   .     S
C14    N19     1.363   .     A
C14    C628    1.421   .     S
C15    N19     1.370   .     A
C15    N57     1.418   .     S
C15    C625    1.421   .     S
C16    N63     1.418   .     S
C16    N20     1.370   .     A
C16    C1238   1.421   1_554 S
N19    Zn29    2.012   .     S
N20    Zn30    2.012   .     S
O21    Zn29    2.018   .     S
O22    Zn30    2.018   .     S
O23    Zn30    1.988   .     S
O24    Zn29    1.988   .     S
O25    Zn29    1.986   .     S
O26    Zn30    1.986   .     S
O27    Zn30    1.986   .     S
O28    Zn29    1.986   .     S
Cl31   C73     1.777   .     S
Cl32   C142    1.777   1_455 S
N33    H34     1.029   .     S
N33    C35     1.445   .     S
C35    H37     1.109   .     S
C35    H38     1.110   .     S
C35    H36     1.110   .     S
N39    C41     1.445   .     S
N39    H40     1.029   .     S
C41    H43     1.110   .     S
C41    H42     1.110   .     S
C41    H44     1.109   .     S
N45    H46     1.031   .     S
N45    C47     1.450   .     S
C47    H48     1.110   .     S
C47    H49     1.110   .     S
C47    H50     1.108   .     S
N51    H52     1.031   .     S
N51    C53     1.450   .     S
C53    H55     1.108   .     S
C53    H56     1.110   .     S
C53    H54     1.110   .     S
N57    H58     1.031   .     S
N57    C59     1.446   .     S
C59    H61     1.110   .     S
C59    H62     1.111   .     S
C59    H672    1.109   .     S
H60    C1283   1.109   1_554 S
N63    C65     1.446   .     S
N63    H64     1.031   .     S
C65    H68     1.111   .     S
C65    H66     1.110   .     S
C65    H1291   1.109   1_554 S
H67    C677    1.109   .     S
C69    O89     1.281   .     A
C69    C80     1.428   .     S
C69    O91     1.288   .     A
C70    O90     1.281   .     A
C70    O92     1.288   .     A
C70    C79     1.428   .     S
C71    O95     1.283   .     A
C71    C73     1.399   .     S
C71    O93     1.275   .     A
C72    O94     1.275   .     A
C72    C74     1.399   .     S
C72    O96     1.283   .     A
C74    C141    1.343   .     S
C74    Cl168   1.777   .     S
C75    C80     1.406   .     A
C75    N101    1.430   .     S
C75    C485    1.389   1_545 S
C76    C79     1.406   .     A
C76    N107    1.430   .     S
C76    C282    1.389   .     S
C77    C79     1.408   .     A
C77    N113    1.426   .     S
C77    C279    1.389   .     S
C78    C80     1.408   .     A
C78    N119    1.426   .     S
C78    C484    1.389   1_545 S
C81    H85     1.078   .     S
C81    N88     1.363   .     A
C81    C1307   1.421   1_554 S
C82    H86     1.078   .     S
C82    N87     1.363   .     A
C82    C696    1.421   .     S
C83    N87     1.370   .     A
C83    N125    1.418   .     S
C83    C693    1.421   .     S
C84    N131    1.418   .     S
C84    N88     1.370   .     A
C84    C1306   1.421   1_554 S
N87    Zn97    2.012   .     S
N88    Zn98    2.012   .     S
O89    Zn97    2.018   .     S
O90    Zn98    2.018   .     S
O91    Zn98    1.988   .     S
O92    Zn97    1.988   .     S
O93    Zn97    1.986   .     S
O94    Zn98    1.986   .     S
O95    Zn98    1.986   .     S
O96    Zn97    1.986   .     S
Cl99   C141    1.777   .     S
N101   H102    1.029   .     S
N101   C103    1.445   .     S
C103   H105    1.109   .     S
C103   H106    1.110   .     S
C103   H104    1.110   .     S
N107   C109    1.445   .     S
N107   H108    1.029   .     S
C109   H111    1.110   .     S
C109   H110    1.110   .     S
C109   H112    1.109   .     S
N113   H114    1.031   .     S
N113   C115    1.450   .     S
C115   H116    1.110   .     S
C115   H117    1.110   .     S
C115   H118    1.108   .     S
N119   H120    1.031   .     S
N119   C121    1.450   .     S
C121   H123    1.108   .     S
C121   H124    1.110   .     S
C121   H122    1.110   .     S
N125   H126    1.031   .     S
N125   C127    1.446   .     S
C127   H129    1.110   .     S
C127   H130    1.111   .     S
C127   H740    1.109   .     S
H128   C1351   1.109   1_554 S
N131   C133    1.446   .     S
N131   H132    1.031   .     S
C133   H136    1.111   .     S
C133   H134    1.110   .     S
C133   H1359   1.109   1_554 S
H135   C745    1.109   .     S
C137   O157    1.281   .     A
C137   C148    1.428   .     S
C137   O159    1.288   .     A
C138   O158    1.281   .     A
C138   O160    1.288   .     A
C138   C147    1.428   .     S
C139   O163    1.283   .     A
C139   C141    1.399   .     S
C139   O161    1.275   .     A
C140   O162    1.275   .     A
C140   C142    1.399   .     S
C140   O164    1.283   .     A
C142   C5      1.343   1_655 S
C142   Cl32    1.777   1_655 S
C143   C148    1.406   .     A
C143   N169    1.430   .     S
C143   C553    1.389   1_545 S
C144   C147    1.406   .     A
C144   N175    1.430   .     S
C144   C350    1.389   .     S
C145   C147    1.408   .     A
C145   N181    1.426   .     S
C145   C347    1.389   .     S
C146   C148    1.408   .     A
C146   N187    1.426   .     S
C146   C552    1.389   1_545 S
C149   H153    1.078   .     S
C149   N156    1.363   .     A
C149   C1375   1.421   1_554 S
C150   H154    1.078   .     S
C150   N155    1.363   .     A
C150   C764    1.421   .     S
C151   N155    1.370   .     A
C151   N193    1.418   .     S
C151   C761    1.421   .     S
C152   N199    1.418   .     S
C152   N156    1.370   .     A
C152   C1374   1.421   1_554 S
N155   Zn165   2.012   .     S
N156   Zn166   2.012   .     S
O157   Zn165   2.018   .     S
O158   Zn166   2.018   .     S
O159   Zn166   1.988   .     S
O160   Zn165   1.988   .     S
O161   Zn165   1.986   .     S
O162   Zn166   1.986   .     S
O163   Zn166   1.986   .     S
O164   Zn165   1.986   .     S
Cl167  C5      1.777   1_655 S
N169   H170    1.029   .     S
N169   C171    1.445   .     S
C171   H173    1.109   .     S
C171   H174    1.110   .     S
C171   H172    1.110   .     S
N175   C177    1.445   .     S
N175   H176    1.029   .     S
C177   H179    1.110   .     S
C177   H178    1.110   .     S
C177   H180    1.109   .     S
N181   H182    1.031   .     S
N181   C183    1.450   .     S
C183   H184    1.110   .     S
C183   H185    1.110   .     S
C183   H186    1.108   .     S
N187   H188    1.031   .     S
N187   C189    1.450   .     S
C189   H191    1.108   .     S
C189   H192    1.110   .     S
C189   H190    1.110   .     S
N193   H194    1.031   .     S
N193   C195    1.446   .     S
C195   H197    1.110   .     S
C195   H198    1.111   .     S
C195   H808    1.109   .     S
H196   C1419   1.109   1_554 S
N199   C201    1.446   .     S
N199   H200    1.031   .     S
C201   H204    1.111   .     S
C201   H202    1.110   .     S
C201   H1427   1.109   1_554 S
H203   C813    1.109   .     S
C205   O225    1.281   .     A
C205   C216    1.428   .     S
C205   O227    1.288   .     A
C206   O226    1.281   .     A
C206   O228    1.288   .     A
C206   C215    1.428   .     S
C207   O231    1.283   .     A
C207   C209    1.399   .     S
C207   O229    1.275   .     A
C208   O230    1.275   .     A
C208   C210    1.399   .     S
C208   O232    1.283   .     A
C209   C346    1.343   1_455 S
C209   Cl371   1.777   1_455 S
C210   C277    1.343   .     S
C210   Cl304   1.777   .     S
C211   C216    1.406   .     A
C211   N237    1.430   .     S
C212   C215    1.406   .     A
C212   N243    1.430   .     S
C212   C418    1.389   .     S
C213   C215    1.408   .     A
C213   N249    1.426   .     S
C213   C415    1.389   .     S
C214   C216    1.408   .     A
C214   N255    1.426   .     S
C217   H221    1.078   .     S
C217   N224    1.363   .     A
C217   C1443   1.421   1_554 S
C218   H222    1.078   .     S
C218   N223    1.363   .     A
C218   C832    1.421   .     S
C219   N223    1.370   .     A
C219   N261    1.418   .     S
C219   C829    1.421   .     S
C220   N267    1.418   .     S
C220   N224    1.370   .     A
C220   C1442   1.421   1_554 S
N223   Zn233   2.012   .     S
N224   Zn234   2.012   .     S
O225   Zn233   2.018   .     S
O226   Zn234   2.018   .     S
O227   Zn234   1.988   .     S
O228   Zn233   1.988   .     S
O229   Zn233   1.986   .     S
O230   Zn234   1.986   .     S
O231   Zn234   1.986   .     S
O232   Zn233   1.986   .     S
Cl235  C277    1.777   .     S
Cl236  C346    1.777   1_455 S
N237   H238    1.029   .     S
N237   C239    1.445   .     S
C239   H241    1.109   .     S
C239   H242    1.110   .     S
C239   H240    1.110   .     S
N243   C245    1.445   .     S
N243   H244    1.029   .     S
C245   H247    1.110   .     S
C245   H246    1.110   .     S
C245   H248    1.109   .     S
N249   H250    1.031   .     S
N249   C251    1.450   .     S
C251   H252    1.110   .     S
C251   H253    1.110   .     S
C251   H254    1.108   .     S
N255   H256    1.031   .     S
N255   C257    1.450   .     S
C257   H259    1.108   .     S
C257   H260    1.110   .     S
C257   H258    1.110   .     S
N261   H262    1.031   .     S
N261   C263    1.446   .     S
C263   H265    1.110   .     S
C263   H266    1.111   .     S
C263   H876    1.109   .     S
H264   C1487   1.109   1_554 S
N267   C269    1.446   .     S
N267   H268    1.031   .     S
C269   H272    1.111   .     S
C269   H270    1.110   .     S
C269   H1495   1.109   1_554 S
H271   C881    1.109   .     S
C273   O293    1.281   .     A
C273   C284    1.428   .     S
C273   O295    1.288   .     A
C274   O294    1.281   .     A
C274   O296    1.288   .     A
C274   C283    1.428   .     S
C275   O299    1.283   .     A
C275   C277    1.399   .     S
C275   O297    1.275   .     A
C276   O298    1.275   .     A
C276   C278    1.399   .     S
C276   O300    1.283   .     A
C278   C345    1.343   .     S
C278   Cl372   1.777   .     S
C279   C284    1.406   .     A
C279   N305    1.430   .     S
C280   C283    1.406   .     A
C280   N311    1.430   .     S
C280   C486    1.389   .     S
C281   C283    1.408   .     A
C281   N317    1.426   .     S
C281   C483    1.389   .     S
C282   C284    1.408   .     A
C282   N323    1.426   .     S
C285   H289    1.078   .     S
C285   N292    1.363   .     A
C285   C1511   1.421   1_554 S
C286   H290    1.078   .     S
C286   N291    1.363   .     A
C286   C900    1.421   .     S
C287   N291    1.370   .     A
C287   N329    1.418   .     S
C287   C897    1.421   .     S
C288   N335    1.418   .     S
C288   N292    1.370   .     A
C288   C1510   1.421   1_554 S
N291   Zn301   2.012   .     S
N292   Zn302   2.012   .     S
O293   Zn301   2.018   .     S
O294   Zn302   2.018   .     S
O295   Zn302   1.988   .     S
O296   Zn301   1.988   .     S
O297   Zn301   1.986   .     S
O298   Zn302   1.986   .     S
O299   Zn302   1.986   .     S
O300   Zn301   1.986   .     S
Cl303  C345    1.777   .     S
N305   H306    1.029   .     S
N305   C307    1.445   .     S
C307   H309    1.109   .     S
C307   H310    1.110   .     S
C307   H308    1.110   .     S
N311   C313    1.445   .     S
N311   H312    1.029   .     S
C313   H315    1.110   .     S
C313   H314    1.110   .     S
C313   H316    1.109   .     S
N317   H318    1.031   .     S
N317   C319    1.450   .     S
C319   H320    1.110   .     S
C319   H321    1.110   .     S
C319   H322    1.108   .     S
N323   H324    1.031   .     S
N323   C325    1.450   .     S
C325   H327    1.108   .     S
C325   H328    1.110   .     S
C325   H326    1.110   .     S
N329   H330    1.031   .     S
N329   C331    1.446   .     S
C331   H333    1.110   .     S
C331   H334    1.111   .     S
C331   H944    1.109   .     S
H332   C1555   1.109   1_554 S
N335   C337    1.446   .     S
N335   H336    1.031   .     S
C337   H340    1.111   .     S
C337   H338    1.110   .     S
C337   H1563   1.109   1_554 S
H339   C949    1.109   .     S
C341   O361    1.281   .     A
C341   C352    1.428   .     S
C341   O363    1.288   .     A
C342   O362    1.281   .     A
C342   O364    1.288   .     A
C342   C351    1.428   .     S
C343   O367    1.283   .     A
C343   C345    1.399   .     S
C343   O365    1.275   .     A
C344   O366    1.275   .     A
C344   C346    1.399   .     S
C344   O368    1.283   .     A
C346   C209    1.343   1_655 S
C346   Cl236   1.777   1_655 S
C347   C352    1.406   .     A
C347   N373    1.430   .     S
C348   C351    1.406   .     A
C348   N379    1.430   .     S
C348   C554    1.389   .     S
C349   C351    1.408   .     A
C349   N385    1.426   .     S
C349   C551    1.389   .     S
C350   C352    1.408   .     A
C350   N391    1.426   .     S
C353   H357    1.078   .     S
C353   N360    1.363   .     A
C353   C1579   1.421   1_554 S
C354   H358    1.078   .     S
C354   N359    1.363   .     A
C354   C968    1.421   .     S
C355   N359    1.370   .     A
C355   N397    1.418   .     S
C355   C965    1.421   .     S
C356   N403    1.418   .     S
C356   N360    1.370   .     A
C356   C1578   1.421   1_554 S
N359   Zn369   2.012   .     S
N360   Zn370   2.012   .     S
O361   Zn369   2.018   .     S
O362   Zn370   2.018   .     S
O363   Zn370   1.988   .     S
O364   Zn369   1.988   .     S
O365   Zn369   1.986   .     S
O366   Zn370   1.986   .     S
O367   Zn370   1.986   .     S
O368   Zn369   1.986   .     S
Cl371  C209    1.777   1_655 S
N373   H374    1.029   .     S
N373   C375    1.445   .     S
C375   H377    1.109   .     S
C375   H378    1.110   .     S
C375   H376    1.110   .     S
N379   C381    1.445   .     S
N379   H380    1.029   .     S
C381   H383    1.110   .     S
C381   H382    1.110   .     S
C381   H384    1.109   .     S
N385   H386    1.031   .     S
N385   C387    1.450   .     S
C387   H388    1.110   .     S
C387   H389    1.110   .     S
C387   H390    1.108   .     S
N391   H392    1.031   .     S
N391   C393    1.450   .     S
C393   H395    1.108   .     S
C393   H396    1.110   .     S
C393   H394    1.110   .     S
N397   H398    1.031   .     S
N397   C399    1.446   .     S
C399   H401    1.110   .     S
C399   H402    1.111   .     S
C399   H1012   1.109   .     S
H400   C1623   1.109   1_554 S
N403   C405    1.446   .     S
N403   H404    1.031   .     S
C405   H408    1.111   .     S
C405   H406    1.110   .     S
C405   H1631   1.109   1_554 S
H407   C1017   1.109   .     S
C409   O429    1.281   .     A
C409   C420    1.428   .     S
C409   O431    1.288   .     A
C410   O430    1.281   .     A
C410   O432    1.288   .     A
C410   C419    1.428   .     S
C411   O435    1.283   .     A
C411   C413    1.399   .     S
C411   O433    1.275   .     A
C412   O434    1.275   .     A
C412   C414    1.399   .     S
C412   O436    1.283   .     A
C413   C550    1.343   1_455 S
C413   Cl575   1.777   1_455 S
C414   C481    1.343   .     S
C414   Cl508   1.777   .     S
C415   C420    1.406   .     A
C415   N441    1.430   .     S
C416   C419    1.406   .     A
C416   N447    1.430   .     S
C416   C10     1.389   1_565 S
C417   C419    1.408   .     A
C417   N453    1.426   .     S
C417   C7      1.389   1_565 S
C418   C420    1.408   .     A
C418   N459    1.426   .     S
C421   H425    1.078   .     S
C421   N428    1.363   .     A
C421   C1647   1.421   1_554 S
C422   H426    1.078   .     S
C422   N427    1.363   .     A
C422   C1036   1.421   .     S
C423   N427    1.370   .     A
C423   N465    1.418   .     S
C423   C1033   1.421   .     S
C424   N471    1.418   .     S
C424   N428    1.370   .     A
C424   C1646   1.421   1_554 S
N427   Zn437   2.012   .     S
N428   Zn438   2.012   .     S
O429   Zn437   2.018   .     S
O430   Zn438   2.018   .     S
O431   Zn438   1.988   .     S
O432   Zn437   1.988   .     S
O433   Zn437   1.986   .     S
O434   Zn438   1.986   .     S
O435   Zn438   1.986   .     S
O436   Zn437   1.986   .     S
Cl439  C481    1.777   .     S
Cl440  C550    1.777   1_455 S
N441   H442    1.029   .     S
N441   C443    1.445   .     S
C443   H445    1.109   .     S
C443   H446    1.110   .     S
C443   H444    1.110   .     S
N447   C449    1.445   .     S
N447   H448    1.029   .     S
C449   H451    1.110   .     S
C449   H450    1.110   .     S
C449   H452    1.109   .     S
N453   H454    1.031   .     S
N453   C455    1.450   .     S
C455   H456    1.110   .     S
C455   H457    1.110   .     S
C455   H458    1.108   .     S
N459   H460    1.031   .     S
N459   C461    1.450   .     S
C461   H463    1.108   .     S
C461   H464    1.110   .     S
C461   H462    1.110   .     S
N465   H466    1.031   .     S
N465   C467    1.446   .     S
C467   H469    1.110   .     S
C467   H470    1.111   .     S
C467   H1080   1.109   .     S
H468   C1691   1.109   1_554 S
N471   C473    1.446   .     S
N471   H472    1.031   .     S
C473   H476    1.111   .     S
C473   H474    1.110   .     S
C473   H1699   1.109   1_554 S
H475   C1085   1.109   .     S
C477   O497    1.281   .     A
C477   C488    1.428   .     S
C477   O499    1.288   .     A
C478   O498    1.281   .     A
C478   O500    1.288   .     A
C478   C487    1.428   .     S
C479   O503    1.283   .     A
C479   C481    1.399   .     S
C479   O501    1.275   .     A
C480   O502    1.275   .     A
C480   C482    1.399   .     S
C480   O504    1.283   .     A
C482   C549    1.343   .     S
C482   Cl576   1.777   .     S
C483   C488    1.406   .     A
C483   N509    1.430   .     S
C484   C487    1.406   .     A
C484   N515    1.430   .     S
C484   C78     1.389   1_565 S
C485   C487    1.408   .     A
C485   N521    1.426   .     S
C485   C75     1.389   1_565 S
C486   C488    1.408   .     A
C486   N527    1.426   .     S
C489   H493    1.078   .     S
C489   N496    1.363   .     A
C489   C1715   1.421   1_554 S
C490   H494    1.078   .     S
C490   N495    1.363   .     A
C490   C1104   1.421   .     S
C491   N495    1.370   .     A
C491   N533    1.418   .     S
C491   C1101   1.421   .     S
C492   N539    1.418   .     S
C492   N496    1.370   .     A
C492   C1714   1.421   1_554 S
N495   Zn505   2.012   .     S
N496   Zn506   2.012   .     S
O497   Zn505   2.018   .     S
O498   Zn506   2.018   .     S
O499   Zn506   1.988   .     S
O500   Zn505   1.988   .     S
O501   Zn505   1.986   .     S
O502   Zn506   1.986   .     S
O503   Zn506   1.986   .     S
O504   Zn505   1.986   .     S
Cl507  C549    1.777   .     S
N509   H510    1.029   .     S
N509   C511    1.445   .     S
C511   H513    1.109   .     S
C511   H514    1.110   .     S
C511   H512    1.110   .     S
N515   C517    1.445   .     S
N515   H516    1.029   .     S
C517   H519    1.110   .     S
C517   H518    1.110   .     S
C517   H520    1.109   .     S
N521   H522    1.031   .     S
N521   C523    1.450   .     S
C523   H524    1.110   .     S
C523   H525    1.110   .     S
C523   H526    1.108   .     S
N527   H528    1.031   .     S
N527   C529    1.450   .     S
C529   H531    1.108   .     S
C529   H532    1.110   .     S
C529   H530    1.110   .     S
N533   H534    1.031   .     S
N533   C535    1.446   .     S
C535   H537    1.110   .     S
C535   H538    1.111   .     S
C535   H1148   1.109   .     S
H536   C1759   1.109   1_554 S
N539   C541    1.446   .     S
N539   H540    1.031   .     S
C541   H544    1.111   .     S
C541   H542    1.110   .     S
C541   H1767   1.109   1_554 S
H543   C1153   1.109   .     S
C545   O565    1.281   .     A
C545   C556    1.428   .     S
C545   O567    1.288   .     A
C546   O566    1.281   .     A
C546   O568    1.288   .     A
C546   C555    1.428   .     S
C547   O571    1.283   .     A
C547   C549    1.399   .     S
C547   O569    1.275   .     A
C548   O570    1.275   .     A
C548   C550    1.399   .     S
C548   O572    1.283   .     A
C550   C413    1.343   1_655 S
C550   Cl440   1.777   1_655 S
C551   C556    1.406   .     A
C551   N577    1.430   .     S
C552   C555    1.406   .     A
C552   N583    1.430   .     S
C552   C146    1.389   1_565 S
C553   C555    1.408   .     A
C553   N589    1.426   .     S
C553   C143    1.389   1_565 S
C554   C556    1.408   .     A
C554   N595    1.426   .     S
C557   H561    1.078   .     S
C557   N564    1.363   .     A
C557   C1783   1.421   1_554 S
C558   H562    1.078   .     S
C558   N563    1.363   .     A
C558   C1172   1.421   .     S
C559   N563    1.370   .     A
C559   N601    1.418   .     S
C559   C1169   1.421   .     S
C560   N607    1.418   .     S
C560   N564    1.370   .     A
C560   C1782   1.421   1_554 S
N563   Zn573   2.012   .     S
N564   Zn574   2.012   .     S
O565   Zn573   2.018   .     S
O566   Zn574   2.018   .     S
O567   Zn574   1.988   .     S
O568   Zn573   1.988   .     S
O569   Zn573   1.986   .     S
O570   Zn574   1.986   .     S
O571   Zn574   1.986   .     S
O572   Zn573   1.986   .     S
Cl575  C413    1.777   1_655 S
N577   H578    1.029   .     S
N577   C579    1.445   .     S
C579   H581    1.109   .     S
C579   H582    1.110   .     S
C579   H580    1.110   .     S
N583   C585    1.445   .     S
N583   H584    1.029   .     S
C585   H587    1.110   .     S
C585   H586    1.110   .     S
C585   H588    1.109   .     S
N589   H590    1.031   .     S
N589   C591    1.450   .     S
C591   H592    1.110   .     S
C591   H593    1.110   .     S
C591   H594    1.108   .     S
N595   H596    1.031   .     S
N595   C597    1.450   .     S
C597   H599    1.108   .     S
C597   H600    1.110   .     S
C597   H598    1.110   .     S
N601   H602    1.031   .     S
N601   C603    1.446   .     S
C603   H605    1.110   .     S
C603   H606    1.111   .     S
C603   H1216   1.109   .     S
H604   C1827   1.109   1_554 S
N607   C609    1.446   .     S
N607   H608    1.031   .     S
C609   H612    1.111   .     S
C609   H610    1.110   .     S
C609   H1835   1.109   1_554 S
H611   C1221   1.109   .     S
C613   O633    1.281   .     A
C613   C624    1.428   .     S
C613   O635    1.288   .     A
C614   O634    1.281   .     A
C614   O636    1.288   .     A
C614   C623    1.428   .     S
C615   O639    1.283   .     A
C615   C617    1.399   .     S
C615   O637    1.275   .     A
C616   O638    1.275   .     A
C616   C618    1.399   .     S
C616   O640    1.283   .     A
C617   C754    1.343   1_455 S
C617   Cl779   1.777   1_455 S
C618   C685    1.343   .     S
C618   Cl712   1.777   .     S
C619   C624    1.406   .     A
C619   N645    1.430   .     S
C619   C1029   1.389   1_545 S
C620   C623    1.406   .     A
C620   N651    1.430   .     S
C620   C826    1.389   .     S
C621   C623    1.408   .     A
C621   N657    1.426   .     S
C621   C823    1.389   .     S
C622   C624    1.408   .     A
C622   N663    1.426   .     S
C622   C1028   1.389   1_545 S
C625   H629    1.078   .     S
C625   N632    1.363   .     A
C626   H630    1.078   .     S
C626   N631    1.363   .     A
C626   C1240   1.421   .     S
C627   N631    1.370   .     A
C627   N669    1.418   .     S
C627   C1237   1.421   .     S
C628   N675    1.418   .     S
C628   N632    1.370   .     A
N631   Zn641   2.012   .     S
N632   Zn642   2.012   .     S
O633   Zn641   2.018   .     S
O634   Zn642   2.018   .     S
O635   Zn642   1.988   .     S
O636   Zn641   1.988   .     S
O637   Zn641   1.986   .     S
O638   Zn642   1.986   .     S
O639   Zn642   1.986   .     S
O640   Zn641   1.986   .     S
Cl643  C685    1.777   .     S
Cl644  C754    1.777   1_455 S
N645   H646    1.029   .     S
N645   C647    1.445   .     S
C647   H649    1.109   .     S
C647   H650    1.110   .     S
C647   H648    1.110   .     S
N651   C653    1.445   .     S
N651   H652    1.029   .     S
C653   H655    1.110   .     S
C653   H654    1.110   .     S
C653   H656    1.109   .     S
N657   H658    1.031   .     S
N657   C659    1.450   .     S
C659   H660    1.110   .     S
C659   H661    1.110   .     S
C659   H662    1.108   .     S
N663   H664    1.031   .     S
N663   C665    1.450   .     S
C665   H667    1.108   .     S
C665   H668    1.110   .     S
C665   H666    1.110   .     S
N669   H670    1.031   .     S
N669   C671    1.446   .     S
C671   H673    1.110   .     S
C671   H674    1.111   .     S
C671   H1284   1.109   .     S
N675   C677    1.446   .     S
N675   H676    1.031   .     S
C677   H680    1.111   .     S
C677   H678    1.110   .     S
H679   C1289   1.109   .     S
C681   O701    1.281   .     A
C681   C692    1.428   .     S
C681   O703    1.288   .     A
C682   O702    1.281   .     A
C682   O704    1.288   .     A
C682   C691    1.428   .     S
C683   O707    1.283   .     A
C683   C685    1.399   .     S
C683   O705    1.275   .     A
C684   O706    1.275   .     A
C684   C686    1.399   .     S
C684   O708    1.283   .     A
C686   C753    1.343   .     S
C686   Cl780   1.777   .     S
C687   C692    1.406   .     A
C687   N713    1.430   .     S
C687   C1097   1.389   1_545 S
C688   C691    1.406   .     A
C688   N719    1.430   .     S
C688   C894    1.389   .     S
C689   C691    1.408   .     A
C689   N725    1.426   .     S
C689   C891    1.389   .     S
C690   C692    1.408   .     A
C690   N731    1.426   .     S
C690   C1096   1.389   1_545 S
C693   H697    1.078   .     S
C693   N700    1.363   .     A
C694   H698    1.078   .     S
C694   N699    1.363   .     A
C694   C1308   1.421   .     S
C695   N699    1.370   .     A
C695   N737    1.418   .     S
C695   C1305   1.421   .     S
C696   N743    1.418   .     S
C696   N700    1.370   .     A
N699   Zn709   2.012   .     S
N700   Zn710   2.012   .     S
O701   Zn709   2.018   .     S
O702   Zn710   2.018   .     S
O703   Zn710   1.988   .     S
O704   Zn709   1.988   .     S
O705   Zn709   1.986   .     S
O706   Zn710   1.986   .     S
O707   Zn710   1.986   .     S
O708   Zn709   1.986   .     S
Cl711  C753    1.777   .     S
N713   H714    1.029   .     S
N713   C715    1.445   .     S
C715   H717    1.109   .     S
C715   H718    1.110   .     S
C715   H716    1.110   .     S
N719   C721    1.445   .     S
N719   H720    1.029   .     S
C721   H723    1.110   .     S
C721   H722    1.110   .     S
C721   H724    1.109   .     S
N725   H726    1.031   .     S
N725   C727    1.450   .     S
C727   H728    1.110   .     S
C727   H729    1.110   .     S
C727   H730    1.108   .     S
N731   H732    1.031   .     S
N731   C733    1.450   .     S
C733   H735    1.108   .     S
C733   H736    1.110   .     S
C733   H734    1.110   .     S
N737   H738    1.031   .     S
N737   C739    1.446   .     S
C739   H741    1.110   .     S
C739   H742    1.111   .     S
C739   H1352   1.109   .     S
N743   C745    1.446   .     S
N743   H744    1.031   .     S
C745   H748    1.111   .     S
C745   H746    1.110   .     S
H747   C1357   1.109   .     S
C749   O769    1.281   .     A
C749   C760    1.428   .     S
C749   O771    1.288   .     A
C750   O770    1.281   .     A
C750   O772    1.288   .     A
C750   C759    1.428   .     S
C751   O775    1.283   .     A
C751   C753    1.399   .     S
C751   O773    1.275   .     A
C752   O774    1.275   .     A
C752   C754    1.399   .     S
C752   O776    1.283   .     A
C754   C617    1.343   1_655 S
C754   Cl644   1.777   1_655 S
C755   C760    1.406   .     A
C755   N781    1.430   .     S
C755   C1165   1.389   1_545 S
C756   C759    1.406   .     A
C756   N787    1.430   .     S
C756   C962    1.389   .     S
C757   C759    1.408   .     A
C757   N793    1.426   .     S
C757   C959    1.389   .     S
C758   C760    1.408   .     A
C758   N799    1.426   .     S
C758   C1164   1.389   1_545 S
C761   H765    1.078   .     S
C761   N768    1.363   .     A
C762   H766    1.078   .     S
C762   N767    1.363   .     A
C762   C1376   1.421   .     S
C763   N767    1.370   .     A
C763   N805    1.418   .     S
C763   C1373   1.421   .     S
C764   N811    1.418   .     S
C764   N768    1.370   .     A
N767   Zn777   2.012   .     S
N768   Zn778   2.012   .     S
O769   Zn777   2.018   .     S
O770   Zn778   2.018   .     S
O771   Zn778   1.988   .     S
O772   Zn777   1.988   .     S
O773   Zn777   1.986   .     S
O774   Zn778   1.986   .     S
O775   Zn778   1.986   .     S
O776   Zn777   1.986   .     S
Cl779  C617    1.777   1_655 S
N781   H782    1.029   .     S
N781   C783    1.445   .     S
C783   H785    1.109   .     S
C783   H786    1.110   .     S
C783   H784    1.110   .     S
N787   C789    1.445   .     S
N787   H788    1.029   .     S
C789   H791    1.110   .     S
C789   H790    1.110   .     S
C789   H792    1.109   .     S
N793   H794    1.031   .     S
N793   C795    1.450   .     S
C795   H796    1.110   .     S
C795   H797    1.110   .     S
C795   H798    1.108   .     S
N799   H800    1.031   .     S
N799   C801    1.450   .     S
C801   H803    1.108   .     S
C801   H804    1.110   .     S
C801   H802    1.110   .     S
N805   H806    1.031   .     S
N805   C807    1.446   .     S
C807   H809    1.110   .     S
C807   H810    1.111   .     S
C807   H1420   1.109   .     S
N811   C813    1.446   .     S
N811   H812    1.031   .     S
C813   H816    1.111   .     S
C813   H814    1.110   .     S
H815   C1425   1.109   .     S
C817   O837    1.281   .     A
C817   C828    1.428   .     S
C817   O839    1.288   .     A
C818   O838    1.281   .     A
C818   O840    1.288   .     A
C818   C827    1.428   .     S
C819   O843    1.283   .     A
C819   C821    1.399   .     S
C819   O841    1.275   .     A
C820   O842    1.275   .     A
C820   C822    1.399   .     S
C820   O844    1.283   .     A
C821   C958    1.343   1_455 S
C821   Cl983   1.777   1_455 S
C822   C889    1.343   .     S
C822   Cl916   1.777   .     S
C823   C828    1.406   .     A
C823   N849    1.430   .     S
C824   C827    1.406   .     A
C824   N855    1.430   .     S
C824   C1030   1.389   .     S
C825   C827    1.408   .     A
C825   N861    1.426   .     S
C825   C1027   1.389   .     S
C826   C828    1.408   .     A
C826   N867    1.426   .     S
C829   H833    1.078   .     S
C829   N836    1.363   .     A
C830   H834    1.078   .     S
C830   N835    1.363   .     A
C830   C1444   1.421   .     S
C831   N835    1.370   .     A
C831   N873    1.418   .     S
C831   C1441   1.421   .     S
C832   N879    1.418   .     S
C832   N836    1.370   .     A
N835   Zn845   2.012   .     S
N836   Zn846   2.012   .     S
O837   Zn845   2.018   .     S
O838   Zn846   2.018   .     S
O839   Zn846   1.988   .     S
O840   Zn845   1.988   .     S
O841   Zn845   1.986   .     S
O842   Zn846   1.986   .     S
O843   Zn846   1.986   .     S
O844   Zn845   1.986   .     S
Cl847  C889    1.777   .     S
Cl848  C958    1.777   1_455 S
N849   H850    1.029   .     S
N849   C851    1.445   .     S
C851   H853    1.109   .     S
C851   H854    1.110   .     S
C851   H852    1.110   .     S
N855   C857    1.445   .     S
N855   H856    1.029   .     S
C857   H859    1.110   .     S
C857   H858    1.110   .     S
C857   H860    1.109   .     S
N861   H862    1.031   .     S
N861   C863    1.450   .     S
C863   H864    1.110   .     S
C863   H865    1.110   .     S
C863   H866    1.108   .     S
N867   H868    1.031   .     S
N867   C869    1.450   .     S
C869   H871    1.108   .     S
C869   H872    1.110   .     S
C869   H870    1.110   .     S
N873   H874    1.031   .     S
N873   C875    1.446   .     S
C875   H877    1.110   .     S
C875   H878    1.111   .     S
C875   H1488   1.109   .     S
N879   C881    1.446   .     S
N879   H880    1.031   .     S
C881   H884    1.111   .     S
C881   H882    1.110   .     S
H883   C1493   1.109   .     S
C885   O905    1.281   .     A
C885   C896    1.428   .     S
C885   O907    1.288   .     A
C886   O906    1.281   .     A
C886   O908    1.288   .     A
C886   C895    1.428   .     S
C887   O911    1.283   .     A
C887   C889    1.399   .     S
C887   O909    1.275   .     A
C888   O910    1.275   .     A
C888   C890    1.399   .     S
C888   O912    1.283   .     A
C890   C957    1.343   .     S
C890   Cl984   1.777   .     S
C891   C896    1.406   .     A
C891   N917    1.430   .     S
C892   C895    1.406   .     A
C892   N923    1.430   .     S
C892   C1098   1.389   .     S
C893   C895    1.408   .     A
C893   N929    1.426   .     S
C893   C1095   1.389   .     S
C894   C896    1.408   .     A
C894   N935    1.426   .     S
C897   H901    1.078   .     S
C897   N904    1.363   .     A
C898   H902    1.078   .     S
C898   N903    1.363   .     A
C898   C1512   1.421   .     S
C899   N903    1.370   .     A
C899   N941    1.418   .     S
C899   C1509   1.421   .     S
C900   N947    1.418   .     S
C900   N904    1.370   .     A
N903   Zn913   2.012   .     S
N904   Zn914   2.012   .     S
O905   Zn913   2.018   .     S
O906   Zn914   2.018   .     S
O907   Zn914   1.988   .     S
O908   Zn913   1.988   .     S
O909   Zn913   1.986   .     S
O910   Zn914   1.986   .     S
O911   Zn914   1.986   .     S
O912   Zn913   1.986   .     S
Cl915  C957    1.777   .     S
N917   H918    1.029   .     S
N917   C919    1.445   .     S
C919   H921    1.109   .     S
C919   H922    1.110   .     S
C919   H920    1.110   .     S
N923   C925    1.445   .     S
N923   H924    1.029   .     S
C925   H927    1.110   .     S
C925   H926    1.110   .     S
C925   H928    1.109   .     S
N929   H930    1.031   .     S
N929   C931    1.450   .     S
C931   H932    1.110   .     S
C931   H933    1.110   .     S
C931   H934    1.108   .     S
N935   H936    1.031   .     S
N935   C937    1.450   .     S
C937   H939    1.108   .     S
C937   H940    1.110   .     S
C937   H938    1.110   .     S
N941   H942    1.031   .     S
N941   C943    1.446   .     S
C943   H945    1.110   .     S
C943   H946    1.111   .     S
C943   H1556   1.109   .     S
N947   C949    1.446   .     S
N947   H948    1.031   .     S
C949   H952    1.111   .     S
C949   H950    1.110   .     S
H951   C1561   1.109   .     S
C953   O973    1.281   .     A
C953   C964    1.428   .     S
C953   O975    1.288   .     A
C954   O974    1.281   .     A
C954   O976    1.288   .     A
C954   C963    1.428   .     S
C955   O979    1.283   .     A
C955   C957    1.399   .     S
C955   O977    1.275   .     A
C956   O978    1.275   .     A
C956   C958    1.399   .     S
C956   O980    1.283   .     A
C958   C821    1.343   1_655 S
C958   Cl848   1.777   1_655 S
C959   C964    1.406   .     A
C959   N985    1.430   .     S
C960   C963    1.406   .     A
C960   N991    1.430   .     S
C960   C1166   1.389   .     S
C961   C963    1.408   .     A
C961   N997    1.426   .     S
C961   C1163   1.389   .     S
C962   C964    1.408   .     A
C962   N1003   1.426   .     S
C965   H969    1.078   .     S
C965   N972    1.363   .     A
C966   H970    1.078   .     S
C966   N971    1.363   .     A
C966   C1580   1.421   .     S
C967   N971    1.370   .     A
C967   N1009   1.418   .     S
C967   C1577   1.421   .     S
C968   N1015   1.418   .     S
C968   N972    1.370   .     A
N971   Zn981   2.012   .     S
N972   Zn982   2.012   .     S
O973   Zn981   2.018   .     S
O974   Zn982   2.018   .     S
O975   Zn982   1.988   .     S
O976   Zn981   1.988   .     S
O977   Zn981   1.986   .     S
O978   Zn982   1.986   .     S
O979   Zn982   1.986   .     S
O980   Zn981   1.986   .     S
Cl983  C821    1.777   1_655 S
N985   H986    1.029   .     S
N985   C987    1.445   .     S
C987   H989    1.109   .     S
C987   H990    1.110   .     S
C987   H988    1.110   .     S
N991   C993    1.445   .     S
N991   H992    1.029   .     S
C993   H995    1.110   .     S
C993   H994    1.110   .     S
C993   H996    1.109   .     S
N997   H998    1.031   .     S
N997   C999    1.450   .     S
C999   H1000   1.110   .     S
C999   H1001   1.110   .     S
C999   H1002   1.108   .     S
N1003  H1004   1.031   .     S
N1003  C1005   1.450   .     S
C1005  H1007   1.108   .     S
C1005  H1008   1.110   .     S
C1005  H1006   1.110   .     S
N1009  H1010   1.031   .     S
N1009  C1011   1.446   .     S
C1011  H1013   1.110   .     S
C1011  H1014   1.111   .     S
C1011  H1624   1.109   .     S
N1015  C1017   1.446   .     S
N1015  H1016   1.031   .     S
C1017  H1020   1.111   .     S
C1017  H1018   1.110   .     S
H1019  C1629   1.109   .     S
C1021  O1041   1.281   .     A
C1021  C1032   1.428   .     S
C1021  O1043   1.288   .     A
C1022  O1042   1.281   .     A
C1022  O1044   1.288   .     A
C1022  C1031   1.428   .     S
C1023  O1047   1.283   .     A
C1023  C1025   1.399   .     S
C1023  O1045   1.275   .     A
C1024  O1046   1.275   .     A
C1024  C1026   1.399   .     S
C1024  O1048   1.283   .     A
C1025  C1162   1.343   1_455 S
C1025  Cl1187  1.777   1_455 S
C1026  C1093   1.343   .     S
C1026  Cl1120  1.777   .     S
C1027  C1032   1.406   .     A
C1027  N1053   1.430   .     S
C1028  C1031   1.406   .     A
C1028  N1059   1.430   .     S
C1028  C622    1.389   1_565 S
C1029  C1031   1.408   .     A
C1029  N1065   1.426   .     S
C1029  C619    1.389   1_565 S
C1030  C1032   1.408   .     A
C1030  N1071   1.426   .     S
C1033  H1037   1.078   .     S
C1033  N1040   1.363   .     A
C1034  H1038   1.078   .     S
C1034  N1039   1.363   .     A
C1034  C1648   1.421   .     S
C1035  N1039   1.370   .     A
C1035  N1077   1.418   .     S
C1035  C1645   1.421   .     S
C1036  N1083   1.418   .     S
C1036  N1040   1.370   .     A
N1039  Zn1049  2.012   .     S
N1040  Zn1050  2.012   .     S
O1041  Zn1049  2.018   .     S
O1042  Zn1050  2.018   .     S
O1043  Zn1050  1.988   .     S
O1044  Zn1049  1.988   .     S
O1045  Zn1049  1.986   .     S
O1046  Zn1050  1.986   .     S
O1047  Zn1050  1.986   .     S
O1048  Zn1049  1.986   .     S
Cl1051 C1093   1.777   .     S
Cl1052 C1162   1.777   1_455 S
N1053  H1054   1.029   .     S
N1053  C1055   1.445   .     S
C1055  H1057   1.109   .     S
C1055  H1058   1.110   .     S
C1055  H1056   1.110   .     S
N1059  C1061   1.445   .     S
N1059  H1060   1.029   .     S
C1061  H1063   1.110   .     S
C1061  H1062   1.110   .     S
C1061  H1064   1.109   .     S
N1065  H1066   1.031   .     S
N1065  C1067   1.450   .     S
C1067  H1068   1.110   .     S
C1067  H1069   1.110   .     S
C1067  H1070   1.108   .     S
N1071  H1072   1.031   .     S
N1071  C1073   1.450   .     S
C1073  H1075   1.108   .     S
C1073  H1076   1.110   .     S
C1073  H1074   1.110   .     S
N1077  H1078   1.031   .     S
N1077  C1079   1.446   .     S
C1079  H1081   1.110   .     S
C1079  H1082   1.111   .     S
C1079  H1692   1.109   .     S
N1083  C1085   1.446   .     S
N1083  H1084   1.031   .     S
C1085  H1088   1.111   .     S
C1085  H1086   1.110   .     S
H1087  C1697   1.109   .     S
C1089  O1109   1.281   .     A
C1089  C1100   1.428   .     S
C1089  O1111   1.288   .     A
C1090  O1110   1.281   .     A
C1090  O1112   1.288   .     A
C1090  C1099   1.428   .     S
C1091  O1115   1.283   .     A
C1091  C1093   1.399   .     S
C1091  O1113   1.275   .     A
C1092  O1114   1.275   .     A
C1092  C1094   1.399   .     S
C1092  O1116   1.283   .     A
C1094  C1161   1.343   .     S
C1094  Cl1188  1.777   .     S
C1095  C1100   1.406   .     A
C1095  N1121   1.430   .     S
C1096  C1099   1.406   .     A
C1096  N1127   1.430   .     S
C1096  C690    1.389   1_565 S
C1097  C1099   1.408   .     A
C1097  N1133   1.426   .     S
C1097  C687    1.389   1_565 S
C1098  C1100   1.408   .     A
C1098  N1139   1.426   .     S
C1101  H1105   1.078   .     S
C1101  N1108   1.363   .     A
C1102  H1106   1.078   .     S
C1102  N1107   1.363   .     A
C1102  C1716   1.421   .     S
C1103  N1107   1.370   .     A
C1103  N1145   1.418   .     S
C1103  C1713   1.421   .     S
C1104  N1151   1.418   .     S
C1104  N1108   1.370   .     A
N1107  Zn1117  2.012   .     S
N1108  Zn1118  2.012   .     S
O1109  Zn1117  2.018   .     S
O1110  Zn1118  2.018   .     S
O1111  Zn1118  1.988   .     S
O1112  Zn1117  1.988   .     S
O1113  Zn1117  1.986   .     S
O1114  Zn1118  1.986   .     S
O1115  Zn1118  1.986   .     S
O1116  Zn1117  1.986   .     S
Cl1119 C1161   1.777   .     S
N1121  H1122   1.029   .     S
N1121  C1123   1.445   .     S
C1123  H1125   1.109   .     S
C1123  H1126   1.110   .     S
C1123  H1124   1.110   .     S
N1127  C1129   1.445   .     S
N1127  H1128   1.029   .     S
C1129  H1131   1.110   .     S
C1129  H1130   1.110   .     S
C1129  H1132   1.109   .     S
N1133  H1134   1.031   .     S
N1133  C1135   1.450   .     S
C1135  H1136   1.110   .     S
C1135  H1137   1.110   .     S
C1135  H1138   1.108   .     S
N1139  H1140   1.031   .     S
N1139  C1141   1.450   .     S
C1141  H1143   1.108   .     S
C1141  H1144   1.110   .     S
C1141  H1142   1.110   .     S
N1145  H1146   1.031   .     S
N1145  C1147   1.446   .     S
C1147  H1149   1.110   .     S
C1147  H1150   1.111   .     S
C1147  H1760   1.109   .     S
N1151  C1153   1.446   .     S
N1151  H1152   1.031   .     S
C1153  H1156   1.111   .     S
C1153  H1154   1.110   .     S
H1155  C1765   1.109   .     S
C1157  O1177   1.281   .     A
C1157  C1168   1.428   .     S
C1157  O1179   1.288   .     A
C1158  O1178   1.281   .     A
C1158  O1180   1.288   .     A
C1158  C1167   1.428   .     S
C1159  O1183   1.283   .     A
C1159  C1161   1.399   .     S
C1159  O1181   1.275   .     A
C1160  O1182   1.275   .     A
C1160  C1162   1.399   .     S
C1160  O1184   1.283   .     A
C1162  C1025   1.343   1_655 S
C1162  Cl1052  1.777   1_655 S
C1163  C1168   1.406   .     A
C1163  N1189   1.430   .     S
C1164  C1167   1.406   .     A
C1164  N1195   1.430   .     S
C1164  C758    1.389   1_565 S
C1165  C1167   1.408   .     A
C1165  N1201   1.426   .     S
C1165  C755    1.389   1_565 S
C1166  C1168   1.408   .     A
C1166  N1207   1.426   .     S
C1169  H1173   1.078   .     S
C1169  N1176   1.363   .     A
C1170  H1174   1.078   .     S
C1170  N1175   1.363   .     A
C1170  C1784   1.421   .     S
C1171  N1175   1.370   .     A
C1171  N1213   1.418   .     S
C1171  C1781   1.421   .     S
C1172  N1219   1.418   .     S
C1172  N1176   1.370   .     A
N1175  Zn1185  2.012   .     S
N1176  Zn1186  2.012   .     S
O1177  Zn1185  2.018   .     S
O1178  Zn1186  2.018   .     S
O1179  Zn1186  1.988   .     S
O1180  Zn1185  1.988   .     S
O1181  Zn1185  1.986   .     S
O1182  Zn1186  1.986   .     S
O1183  Zn1186  1.986   .     S
O1184  Zn1185  1.986   .     S
Cl1187 C1025   1.777   1_655 S
N1189  H1190   1.029   .     S
N1189  C1191   1.445   .     S
C1191  H1193   1.109   .     S
C1191  H1194   1.110   .     S
C1191  H1192   1.110   .     S
N1195  C1197   1.445   .     S
N1195  H1196   1.029   .     S
C1197  H1199   1.110   .     S
C1197  H1198   1.110   .     S
C1197  H1200   1.109   .     S
N1201  H1202   1.031   .     S
N1201  C1203   1.450   .     S
C1203  H1204   1.110   .     S
C1203  H1205   1.110   .     S
C1203  H1206   1.108   .     S
N1207  H1208   1.031   .     S
N1207  C1209   1.450   .     S
C1209  H1211   1.108   .     S
C1209  H1212   1.110   .     S
C1209  H1210   1.110   .     S
N1213  H1214   1.031   .     S
N1213  C1215   1.446   .     S
C1215  H1217   1.110   .     S
C1215  H1218   1.111   .     S
C1215  H1828   1.109   .     S
N1219  C1221   1.446   .     S
N1219  H1220   1.031   .     S
C1221  H1224   1.111   .     S
C1221  H1222   1.110   .     S
H1223  C1833   1.109   .     S
C1225  O1245   1.281   .     A
C1225  C1236   1.428   .     S
C1225  O1247   1.288   .     A
C1226  O1246   1.281   .     A
C1226  O1248   1.288   .     A
C1226  C1235   1.428   .     S
C1227  O1251   1.283   .     A
C1227  C1229   1.399   .     S
C1227  O1249   1.275   .     A
C1228  O1250   1.275   .     A
C1228  C1230   1.399   .     S
C1228  O1252   1.283   .     A
C1229  C1366   1.343   1_455 S
C1229  Cl1391  1.777   1_455 S
C1230  C1297   1.343   .     S
C1230  Cl1324  1.777   .     S
C1231  C1236   1.406   .     A
C1231  N1257   1.430   .     S
C1231  C1641   1.389   1_545 S
C1232  C1235   1.406   .     A
C1232  N1263   1.430   .     S
C1232  C1438   1.389   .     S
C1233  C1235   1.408   .     A
C1233  N1269   1.426   .     S
C1233  C1435   1.389   .     S
C1234  C1236   1.408   .     A
C1234  N1275   1.426   .     S
C1234  C1640   1.389   1_545 S
C1237  H1241   1.078   .     S
C1237  N1244   1.363   .     A
C1238  H1242   1.078   .     S
C1238  N1243   1.363   .     A
C1238  C16     1.421   1_556 S
C1239  N1243   1.370   .     A
C1239  N1281   1.418   .     S
C1239  C13     1.421   1_556 S
C1240  N1287   1.418   .     S
C1240  N1244   1.370   .     A
N1243  Zn1253  2.012   .     S
N1244  Zn1254  2.012   .     S
O1245  Zn1253  2.018   .     S
O1246  Zn1254  2.018   .     S
O1247  Zn1254  1.988   .     S
O1248  Zn1253  1.988   .     S
O1249  Zn1253  1.986   .     S
O1250  Zn1254  1.986   .     S
O1251  Zn1254  1.986   .     S
O1252  Zn1253  1.986   .     S
Cl1255 C1297   1.777   .     S
Cl1256 C1366   1.777   1_455 S
N1257  H1258   1.029   .     S
N1257  C1259   1.445   .     S
C1259  H1261   1.109   .     S
C1259  H1262   1.110   .     S
C1259  H1260   1.110   .     S
N1263  C1265   1.445   .     S
N1263  H1264   1.029   .     S
C1265  H1267   1.110   .     S
C1265  H1266   1.110   .     S
C1265  H1268   1.109   .     S
N1269  H1270   1.031   .     S
N1269  C1271   1.450   .     S
C1271  H1272   1.110   .     S
C1271  H1273   1.110   .     S
C1271  H1274   1.108   .     S
N1275  H1276   1.031   .     S
N1275  C1277   1.450   .     S
C1277  H1279   1.108   .     S
C1277  H1280   1.110   .     S
C1277  H1278   1.110   .     S
N1281  H1282   1.031   .     S
N1281  C1283   1.446   .     S
C1283  H1285   1.110   .     S
C1283  H1286   1.111   .     S
C1283  H60     1.109   1_556 S
N1287  C1289   1.446   .     S
N1287  H1288   1.031   .     S
C1289  H1292   1.111   .     S
C1289  H1290   1.110   .     S
H1291  C65     1.109   1_556 S
C1293  O1313   1.281   .     A
C1293  C1304   1.428   .     S
C1293  O1315   1.288   .     A
C1294  O1314   1.281   .     A
C1294  O1316   1.288   .     A
C1294  C1303   1.428   .     S
C1295  O1319   1.283   .     A
C1295  C1297   1.399   .     S
C1295  O1317   1.275   .     A
C1296  O1318   1.275   .     A
C1296  C1298   1.399   .     S
C1296  O1320   1.283   .     A
C1298  C1365   1.343   .     S
C1298  Cl1392  1.777   .     S
C1299  C1304   1.406   .     A
C1299  N1325   1.430   .     S
C1299  C1709   1.389   1_545 S
C1300  C1303   1.406   .     A
C1300  N1331   1.430   .     S
C1300  C1506   1.389   .     S
C1301  C1303   1.408   .     A
C1301  N1337   1.426   .     S
C1301  C1503   1.389   .     S
C1302  C1304   1.408   .     A
C1302  N1343   1.426   .     S
C1302  C1708   1.389   1_545 S
C1305  H1309   1.078   .     S
C1305  N1312   1.363   .     A
C1306  H1310   1.078   .     S
C1306  N1311   1.363   .     A
C1306  C84     1.421   1_556 S
C1307  N1311   1.370   .     A
C1307  N1349   1.418   .     S
C1307  C81     1.421   1_556 S
C1308  N1355   1.418   .     S
C1308  N1312   1.370   .     A
N1311  Zn1321  2.012   .     S
N1312  Zn1322  2.012   .     S
O1313  Zn1321  2.018   .     S
O1314  Zn1322  2.018   .     S
O1315  Zn1322  1.988   .     S
O1316  Zn1321  1.988   .     S
O1317  Zn1321  1.986   .     S
O1318  Zn1322  1.986   .     S
O1319  Zn1322  1.986   .     S
O1320  Zn1321  1.986   .     S
Cl1323 C1365   1.777   .     S
N1325  H1326   1.029   .     S
N1325  C1327   1.445   .     S
C1327  H1329   1.109   .     S
C1327  H1330   1.110   .     S
C1327  H1328   1.110   .     S
N1331  C1333   1.445   .     S
N1331  H1332   1.029   .     S
C1333  H1335   1.110   .     S
C1333  H1334   1.110   .     S
C1333  H1336   1.109   .     S
N1337  H1338   1.031   .     S
N1337  C1339   1.450   .     S
C1339  H1340   1.110   .     S
C1339  H1341   1.110   .     S
C1339  H1342   1.108   .     S
N1343  H1344   1.031   .     S
N1343  C1345   1.450   .     S
C1345  H1347   1.108   .     S
C1345  H1348   1.110   .     S
C1345  H1346   1.110   .     S
N1349  H1350   1.031   .     S
N1349  C1351   1.446   .     S
C1351  H1353   1.110   .     S
C1351  H1354   1.111   .     S
C1351  H128    1.109   1_556 S
N1355  C1357   1.446   .     S
N1355  H1356   1.031   .     S
C1357  H1360   1.111   .     S
C1357  H1358   1.110   .     S
H1359  C133    1.109   1_556 S
C1361  O1381   1.281   .     A
C1361  C1372   1.428   .     S
C1361  O1383   1.288   .     A
C1362  O1382   1.281   .     A
C1362  O1384   1.288   .     A
C1362  C1371   1.428   .     S
C1363  O1387   1.283   .     A
C1363  C1365   1.399   .     S
C1363  O1385   1.275   .     A
C1364  O1386   1.275   .     A
C1364  C1366   1.399   .     S
C1364  O1388   1.283   .     A
C1366  C1229   1.343   1_655 S
C1366  Cl1256  1.777   1_655 S
C1367  C1372   1.406   .     A
C1367  N1393   1.430   .     S
C1367  C1777   1.389   1_545 S
C1368  C1371   1.406   .     A
C1368  N1399   1.430   .     S
C1368  C1574   1.389   .     S
C1369  C1371   1.408   .     A
C1369  N1405   1.426   .     S
C1369  C1571   1.389   .     S
C1370  C1372   1.408   .     A
C1370  N1411   1.426   .     S
C1370  C1776   1.389   1_545 S
C1373  H1377   1.078   .     S
C1373  N1380   1.363   .     A
C1374  H1378   1.078   .     S
C1374  N1379   1.363   .     A
C1374  C152    1.421   1_556 S
C1375  N1379   1.370   .     A
C1375  N1417   1.418   .     S
C1375  C149    1.421   1_556 S
C1376  N1423   1.418   .     S
C1376  N1380   1.370   .     A
N1379  Zn1389  2.012   .     S
N1380  Zn1390  2.012   .     S
O1381  Zn1389  2.018   .     S
O1382  Zn1390  2.018   .     S
O1383  Zn1390  1.988   .     S
O1384  Zn1389  1.988   .     S
O1385  Zn1389  1.986   .     S
O1386  Zn1390  1.986   .     S
O1387  Zn1390  1.986   .     S
O1388  Zn1389  1.986   .     S
Cl1391 C1229   1.777   1_655 S
N1393  H1394   1.029   .     S
N1393  C1395   1.445   .     S
C1395  H1397   1.109   .     S
C1395  H1398   1.110   .     S
C1395  H1396   1.110   .     S
N1399  C1401   1.445   .     S
N1399  H1400   1.029   .     S
C1401  H1403   1.110   .     S
C1401  H1402   1.110   .     S
C1401  H1404   1.109   .     S
N1405  H1406   1.031   .     S
N1405  C1407   1.450   .     S
C1407  H1408   1.110   .     S
C1407  H1409   1.110   .     S
C1407  H1410   1.108   .     S
N1411  H1412   1.031   .     S
N1411  C1413   1.450   .     S
C1413  H1415   1.108   .     S
C1413  H1416   1.110   .     S
C1413  H1414   1.110   .     S
N1417  H1418   1.031   .     S
N1417  C1419   1.446   .     S
C1419  H1421   1.110   .     S
C1419  H1422   1.111   .     S
C1419  H196    1.109   1_556 S
N1423  C1425   1.446   .     S
N1423  H1424   1.031   .     S
C1425  H1428   1.111   .     S
C1425  H1426   1.110   .     S
H1427  C201    1.109   1_556 S
C1429  O1449   1.281   .     A
C1429  C1440   1.428   .     S
C1429  O1451   1.288   .     A
C1430  O1450   1.281   .     A
C1430  O1452   1.288   .     A
C1430  C1439   1.428   .     S
C1431  O1455   1.283   .     A
C1431  C1433   1.399   .     S
C1431  O1453   1.275   .     A
C1432  O1454   1.275   .     A
C1432  C1434   1.399   .     S
C1432  O1456   1.283   .     A
C1433  C1570   1.343   1_455 S
C1433  Cl1595  1.777   1_455 S
C1434  C1501   1.343   .     S
C1434  Cl1528  1.777   .     S
C1435  C1440   1.406   .     A
C1435  N1461   1.430   .     S
C1436  C1439   1.406   .     A
C1436  N1467   1.430   .     S
C1436  C1642   1.389   .     S
C1437  C1439   1.408   .     A
C1437  N1473   1.426   .     S
C1437  C1639   1.389   .     S
C1438  C1440   1.408   .     A
C1438  N1479   1.426   .     S
C1441  H1445   1.078   .     S
C1441  N1448   1.363   .     A
C1442  H1446   1.078   .     S
C1442  N1447   1.363   .     A
C1442  C220    1.421   1_556 S
C1443  N1447   1.370   .     A
C1443  N1485   1.418   .     S
C1443  C217    1.421   1_556 S
C1444  N1491   1.418   .     S
C1444  N1448   1.370   .     A
N1447  Zn1457  2.012   .     S
N1448  Zn1458  2.012   .     S
O1449  Zn1457  2.018   .     S
O1450  Zn1458  2.018   .     S
O1451  Zn1458  1.988   .     S
O1452  Zn1457  1.988   .     S
O1453  Zn1457  1.986   .     S
O1454  Zn1458  1.986   .     S
O1455  Zn1458  1.986   .     S
O1456  Zn1457  1.986   .     S
Cl1459 C1501   1.777   .     S
Cl1460 C1570   1.777   1_455 S
N1461  H1462   1.029   .     S
N1461  C1463   1.445   .     S
C1463  H1465   1.109   .     S
C1463  H1466   1.110   .     S
C1463  H1464   1.110   .     S
N1467  C1469   1.445   .     S
N1467  H1468   1.029   .     S
C1469  H1471   1.110   .     S
C1469  H1470   1.110   .     S
C1469  H1472   1.109   .     S
N1473  H1474   1.031   .     S
N1473  C1475   1.450   .     S
C1475  H1476   1.110   .     S
C1475  H1477   1.110   .     S
C1475  H1478   1.108   .     S
N1479  H1480   1.031   .     S
N1479  C1481   1.450   .     S
C1481  H1483   1.108   .     S
C1481  H1484   1.110   .     S
C1481  H1482   1.110   .     S
N1485  H1486   1.031   .     S
N1485  C1487   1.446   .     S
C1487  H1489   1.110   .     S
C1487  H1490   1.111   .     S
C1487  H264    1.109   1_556 S
N1491  C1493   1.446   .     S
N1491  H1492   1.031   .     S
C1493  H1496   1.111   .     S
C1493  H1494   1.110   .     S
H1495  C269    1.109   1_556 S
C1497  O1517   1.281   .     A
C1497  C1508   1.428   .     S
C1497  O1519   1.288   .     A
C1498  O1518   1.281   .     A
C1498  O1520   1.288   .     A
C1498  C1507   1.428   .     S
C1499  O1523   1.283   .     A
C1499  C1501   1.399   .     S
C1499  O1521   1.275   .     A
C1500  O1522   1.275   .     A
C1500  C1502   1.399   .     S
C1500  O1524   1.283   .     A
C1502  C1569   1.343   .     S
C1502  Cl1596  1.777   .     S
C1503  C1508   1.406   .     A
C1503  N1529   1.430   .     S
C1504  C1507   1.406   .     A
C1504  N1535   1.430   .     S
C1504  C1710   1.389   .     S
C1505  C1507   1.408   .     A
C1505  N1541   1.426   .     S
C1505  C1707   1.389   .     S
C1506  C1508   1.408   .     A
C1506  N1547   1.426   .     S
C1509  H1513   1.078   .     S
C1509  N1516   1.363   .     A
C1510  H1514   1.078   .     S
C1510  N1515   1.363   .     A
C1510  C288    1.421   1_556 S
C1511  N1515   1.370   .     A
C1511  N1553   1.418   .     S
C1511  C285    1.421   1_556 S
C1512  N1559   1.418   .     S
C1512  N1516   1.370   .     A
N1515  Zn1525  2.012   .     S
N1516  Zn1526  2.012   .     S
O1517  Zn1525  2.018   .     S
O1518  Zn1526  2.018   .     S
O1519  Zn1526  1.988   .     S
O1520  Zn1525  1.988   .     S
O1521  Zn1525  1.986   .     S
O1522  Zn1526  1.986   .     S
O1523  Zn1526  1.986   .     S
O1524  Zn1525  1.986   .     S
Cl1527 C1569   1.777   .     S
N1529  H1530   1.029   .     S
N1529  C1531   1.445   .     S
C1531  H1533   1.109   .     S
C1531  H1534   1.110   .     S
C1531  H1532   1.110   .     S
N1535  C1537   1.445   .     S
N1535  H1536   1.029   .     S
C1537  H1539   1.110   .     S
C1537  H1538   1.110   .     S
C1537  H1540   1.109   .     S
N1541  H1542   1.031   .     S
N1541  C1543   1.450   .     S
C1543  H1544   1.110   .     S
C1543  H1545   1.110   .     S
C1543  H1546   1.108   .     S
N1547  H1548   1.031   .     S
N1547  C1549   1.450   .     S
C1549  H1551   1.108   .     S
C1549  H1552   1.110   .     S
C1549  H1550   1.110   .     S
N1553  H1554   1.031   .     S
N1553  C1555   1.446   .     S
C1555  H1557   1.110   .     S
C1555  H1558   1.111   .     S
C1555  H332    1.109   1_556 S
N1559  C1561   1.446   .     S
N1559  H1560   1.031   .     S
C1561  H1564   1.111   .     S
C1561  H1562   1.110   .     S
H1563  C337    1.109   1_556 S
C1565  O1585   1.281   .     A
C1565  C1576   1.428   .     S
C1565  O1587   1.288   .     A
C1566  O1586   1.281   .     A
C1566  O1588   1.288   .     A
C1566  C1575   1.428   .     S
C1567  O1591   1.283   .     A
C1567  C1569   1.399   .     S
C1567  O1589   1.275   .     A
C1568  O1590   1.275   .     A
C1568  C1570   1.399   .     S
C1568  O1592   1.283   .     A
C1570  C1433   1.343   1_655 S
C1570  Cl1460  1.777   1_655 S
C1571  C1576   1.406   .     A
C1571  N1597   1.430   .     S
C1572  C1575   1.406   .     A
C1572  N1603   1.430   .     S
C1572  C1778   1.389   .     S
C1573  C1575   1.408   .     A
C1573  N1609   1.426   .     S
C1573  C1775   1.389   .     S
C1574  C1576   1.408   .     A
C1574  N1615   1.426   .     S
C1577  H1581   1.078   .     S
C1577  N1584   1.363   .     A
C1578  H1582   1.078   .     S
C1578  N1583   1.363   .     A
C1578  C356    1.421   1_556 S
C1579  N1583   1.370   .     A
C1579  N1621   1.418   .     S
C1579  C353    1.421   1_556 S
C1580  N1627   1.418   .     S
C1580  N1584   1.370   .     A
N1583  Zn1593  2.012   .     S
N1584  Zn1594  2.012   .     S
O1585  Zn1593  2.018   .     S
O1586  Zn1594  2.018   .     S
O1587  Zn1594  1.988   .     S
O1588  Zn1593  1.988   .     S
O1589  Zn1593  1.986   .     S
O1590  Zn1594  1.986   .     S
O1591  Zn1594  1.986   .     S
O1592  Zn1593  1.986   .     S
Cl1595 C1433   1.777   1_655 S
N1597  H1598   1.029   .     S
N1597  C1599   1.445   .     S
C1599  H1601   1.109   .     S
C1599  H1602   1.110   .     S
C1599  H1600   1.110   .     S
N1603  C1605   1.445   .     S
N1603  H1604   1.029   .     S
C1605  H1607   1.110   .     S
C1605  H1606   1.110   .     S
C1605  H1608   1.109   .     S
N1609  H1610   1.031   .     S
N1609  C1611   1.450   .     S
C1611  H1612   1.110   .     S
C1611  H1613   1.110   .     S
C1611  H1614   1.108   .     S
N1615  H1616   1.031   .     S
N1615  C1617   1.450   .     S
C1617  H1619   1.108   .     S
C1617  H1620   1.110   .     S
C1617  H1618   1.110   .     S
N1621  H1622   1.031   .     S
N1621  C1623   1.446   .     S
C1623  H1625   1.110   .     S
C1623  H1626   1.111   .     S
C1623  H400    1.109   1_556 S
N1627  C1629   1.446   .     S
N1627  H1628   1.031   .     S
C1629  H1632   1.111   .     S
C1629  H1630   1.110   .     S
H1631  C405    1.109   1_556 S
C1633  O1653   1.281   .     A
C1633  C1644   1.428   .     S
C1633  O1655   1.288   .     A
C1634  O1654   1.281   .     A
C1634  O1656   1.288   .     A
C1634  C1643   1.428   .     S
C1635  O1659   1.283   .     A
C1635  C1637   1.399   .     S
C1635  O1657   1.275   .     A
C1636  O1658   1.275   .     A
C1636  C1638   1.399   .     S
C1636  O1660   1.283   .     A
C1637  C1774   1.343   1_455 S
C1637  Cl1799  1.777   1_455 S
C1638  C1705   1.343   .     S
C1638  Cl1732  1.777   .     S
C1639  C1644   1.406   .     A
C1639  N1665   1.430   .     S
C1640  C1643   1.406   .     A
C1640  N1671   1.430   .     S
C1640  C1234   1.389   1_565 S
C1641  C1643   1.408   .     A
C1641  N1677   1.426   .     S
C1641  C1231   1.389   1_565 S
C1642  C1644   1.408   .     A
C1642  N1683   1.426   .     S
C1645  H1649   1.078   .     S
C1645  N1652   1.363   .     A
C1646  H1650   1.078   .     S
C1646  N1651   1.363   .     A
C1646  C424    1.421   1_556 S
C1647  N1651   1.370   .     A
C1647  N1689   1.418   .     S
C1647  C421    1.421   1_556 S
C1648  N1695   1.418   .     S
C1648  N1652   1.370   .     A
N1651  Zn1661  2.012   .     S
N1652  Zn1662  2.012   .     S
O1653  Zn1661  2.018   .     S
O1654  Zn1662  2.018   .     S
O1655  Zn1662  1.988   .     S
O1656  Zn1661  1.988   .     S
O1657  Zn1661  1.986   .     S
O1658  Zn1662  1.986   .     S
O1659  Zn1662  1.986   .     S
O1660  Zn1661  1.986   .     S
Cl1663 C1705   1.777   .     S
Cl1664 C1774   1.777   1_455 S
N1665  H1666   1.029   .     S
N1665  C1667   1.445   .     S
C1667  H1669   1.109   .     S
C1667  H1670   1.110   .     S
C1667  H1668   1.110   .     S
N1671  C1673   1.445   .     S
N1671  H1672   1.029   .     S
C1673  H1675   1.110   .     S
C1673  H1674   1.110   .     S
C1673  H1676   1.109   .     S
N1677  H1678   1.031   .     S
N1677  C1679   1.450   .     S
C1679  H1680   1.110   .     S
C1679  H1681   1.110   .     S
C1679  H1682   1.108   .     S
N1683  H1684   1.031   .     S
N1683  C1685   1.450   .     S
C1685  H1687   1.108   .     S
C1685  H1688   1.110   .     S
C1685  H1686   1.110   .     S
N1689  H1690   1.031   .     S
N1689  C1691   1.446   .     S
C1691  H1693   1.110   .     S
C1691  H1694   1.111   .     S
C1691  H468    1.109   1_556 S
N1695  C1697   1.446   .     S
N1695  H1696   1.031   .     S
C1697  H1700   1.111   .     S
C1697  H1698   1.110   .     S
H1699  C473    1.109   1_556 S
C1701  O1721   1.281   .     A
C1701  C1712   1.428   .     S
C1701  O1723   1.288   .     A
C1702  O1722   1.281   .     A
C1702  O1724   1.288   .     A
C1702  C1711   1.428   .     S
C1703  O1727   1.283   .     A
C1703  C1705   1.399   .     S
C1703  O1725   1.275   .     A
C1704  O1726   1.275   .     A
C1704  C1706   1.399   .     S
C1704  O1728   1.283   .     A
C1706  C1773   1.343   .     S
C1706  Cl1800  1.777   .     S
C1707  C1712   1.406   .     A
C1707  N1733   1.430   .     S
C1708  C1711   1.406   .     A
C1708  N1739   1.430   .     S
C1708  C1302   1.389   1_565 S
C1709  C1711   1.408   .     A
C1709  N1745   1.426   .     S
C1709  C1299   1.389   1_565 S
C1710  C1712   1.408   .     A
C1710  N1751   1.426   .     S
C1713  H1717   1.078   .     S
C1713  N1720   1.363   .     A
C1714  H1718   1.078   .     S
C1714  N1719   1.363   .     A
C1714  C492    1.421   1_556 S
C1715  N1719   1.370   .     A
C1715  N1757   1.418   .     S
C1715  C489    1.421   1_556 S
C1716  N1763   1.418   .     S
C1716  N1720   1.370   .     A
N1719  Zn1729  2.012   .     S
N1720  Zn1730  2.012   .     S
O1721  Zn1729  2.018   .     S
O1722  Zn1730  2.018   .     S
O1723  Zn1730  1.988   .     S
O1724  Zn1729  1.988   .     S
O1725  Zn1729  1.986   .     S
O1726  Zn1730  1.986   .     S
O1727  Zn1730  1.986   .     S
O1728  Zn1729  1.986   .     S
Cl1731 C1773   1.777   .     S
N1733  H1734   1.029   .     S
N1733  C1735   1.445   .     S
C1735  H1737   1.109   .     S
C1735  H1738   1.110   .     S
C1735  H1736   1.110   .     S
N1739  C1741   1.445   .     S
N1739  H1740   1.029   .     S
C1741  H1743   1.110   .     S
C1741  H1742   1.110   .     S
C1741  H1744   1.109   .     S
N1745  H1746   1.031   .     S
N1745  C1747   1.450   .     S
C1747  H1748   1.110   .     S
C1747  H1749   1.110   .     S
C1747  H1750   1.108   .     S
N1751  H1752   1.031   .     S
N1751  C1753   1.450   .     S
C1753  H1755   1.108   .     S
C1753  H1756   1.110   .     S
C1753  H1754   1.110   .     S
N1757  H1758   1.031   .     S
N1757  C1759   1.446   .     S
C1759  H1761   1.110   .     S
C1759  H1762   1.111   .     S
C1759  H536    1.109   1_556 S
N1763  C1765   1.446   .     S
N1763  H1764   1.031   .     S
C1765  H1768   1.111   .     S
C1765  H1766   1.110   .     S
H1767  C541    1.109   1_556 S
C1769  O1789   1.281   .     A
C1769  C1780   1.428   .     S
C1769  O1791   1.288   .     A
C1770  O1790   1.281   .     A
C1770  O1792   1.288   .     A
C1770  C1779   1.428   .     S
C1771  O1795   1.283   .     A
C1771  C1773   1.399   .     S
C1771  O1793   1.275   .     A
C1772  O1794   1.275   .     A
C1772  C1774   1.399   .     S
C1772  O1796   1.283   .     A
C1774  C1637   1.343   1_655 S
C1774  Cl1664  1.777   1_655 S
C1775  C1780   1.406   .     A
C1775  N1801   1.430   .     S
C1776  C1779   1.406   .     A
C1776  N1807   1.430   .     S
C1776  C1370   1.389   1_565 S
C1777  C1779   1.408   .     A
C1777  N1813   1.426   .     S
C1777  C1367   1.389   1_565 S
C1778  C1780   1.408   .     A
C1778  N1819   1.426   .     S
C1781  H1785   1.078   .     S
C1781  N1788   1.363   .     A
C1782  H1786   1.078   .     S
C1782  N1787   1.363   .     A
C1782  C560    1.421   1_556 S
C1783  N1787   1.370   .     A
C1783  N1825   1.418   .     S
C1783  C557    1.421   1_556 S
C1784  N1831   1.418   .     S
C1784  N1788   1.370   .     A
N1787  Zn1797  2.012   .     S
N1788  Zn1798  2.012   .     S
O1789  Zn1797  2.018   .     S
O1790  Zn1798  2.018   .     S
O1791  Zn1798  1.988   .     S
O1792  Zn1797  1.988   .     S
O1793  Zn1797  1.986   .     S
O1794  Zn1798  1.986   .     S
O1795  Zn1798  1.986   .     S
O1796  Zn1797  1.986   .     S
Cl1799 C1637   1.777   1_655 S
N1801  H1802   1.029   .     S
N1801  C1803   1.445   .     S
C1803  H1805   1.109   .     S
C1803  H1806   1.110   .     S
C1803  H1804   1.110   .     S
N1807  C1809   1.445   .     S
N1807  H1808   1.029   .     S
C1809  H1811   1.110   .     S
C1809  H1810   1.110   .     S
C1809  H1812   1.109   .     S
N1813  H1814   1.031   .     S
N1813  C1815   1.450   .     S
C1815  H1816   1.110   .     S
C1815  H1817   1.110   .     S
C1815  H1818   1.108   .     S
N1819  H1820   1.031   .     S
N1819  C1821   1.450   .     S
C1821  H1823   1.108   .     S
C1821  H1824   1.110   .     S
C1821  H1822   1.110   .     S
N1825  H1826   1.031   .     S
N1825  C1827   1.446   .     S
C1827  H1829   1.110   .     S
C1827  H1830   1.111   .     S
C1827  H604    1.109   1_556 S
N1831  C1833   1.446   .     S
N1831  H1832   1.031   .     S
C1833  H1836   1.111   .     S
C1833  H1834   1.110   .     S
H1835  C609    1.109   1_556 S
