data_str_m2_o2_o10_pcu_sym.108
_audit_creation_date              2020-01-03
_audit_creation_method            'Materials Studio'
_symmetry_space_group_name_H-M    'P1'
_symmetry_Int_Tables_number       1
_symmetry_cell_setting            triclinic
loop_
_symmetry_equiv_pos_as_xyz
  x,y,z
_cell_length_a                    26.3620
_cell_length_b                    30.1770
_cell_length_c                    27.7181
_cell_angle_alpha                 90.1805
_cell_angle_beta                  97.7652
_cell_angle_gamma                 90.1595
loop_
_atom_site_label
_atom_site_type_symbol
_atom_site_fract_x
_atom_site_fract_y
_atom_site_fract_z
_atom_site_U_iso_or_equiv
_atom_site_adp_type
_atom_site_occupancy
O1     O     0.16667   0.18572   0.29071   0.00000  Uiso   1.00
O2     O     0.16666   0.31427   0.20928   0.00000  Uiso   1.00
O3     O     0.16667   0.18573   0.20928   0.00000  Uiso   1.00
O4     O     0.16666   0.31427   0.29072   0.00000  Uiso   1.00
C5     C     0.16716   0.16491   0.24997   0.00000  Uiso   1.00
C6     C     0.16720   0.33511   0.25017   0.00000  Uiso   1.00
O7     O     0.09161   0.24999   0.28132   0.00000  Uiso   1.00
O8     O     0.24172   0.25000   0.21868   0.00000  Uiso   1.00
O9     O     0.09161   0.25000   0.19988   0.00000  Uiso   1.00
O10    O     0.24172   0.25000   0.30011   0.00000  Uiso   1.00
C11    C     0.06804   0.24981   0.23771   0.00000  Uiso   1.00
C12    C     0.26529   0.25015   0.26229   0.00000  Uiso   1.00
Cu13   Cu    0.16667   0.24999   0.29821   0.00000  Uiso   1.00
Cu14   Cu    0.16667   0.25000   0.20178   0.00000  Uiso   1.00
C15    C     0.01335   0.24398   0.23170   0.00000  Uiso   1.00
C16    C     0.31998   0.25590   0.26831   0.00000  Uiso   1.00
C17    C     0.15409   0.04636   0.28629   0.00000  Uiso   1.00
C18    C     0.15552   0.45363   0.21024   0.00000  Uiso   1.00
H19    H     0.13694   0.02782   0.31337   0.00000  Uiso   1.00
H20    H     0.13946   0.47208   0.17834   0.00000  Uiso   1.00
C21    C     0.15031   0.09224   0.28592   0.00000  Uiso   1.00
C22    C     0.15174   0.40773   0.20952   0.00000  Uiso   1.00
H23    H     0.13096   0.10858   0.31311   0.00000  Uiso   1.00
H24    H     0.13348   0.39130   0.17689   0.00000  Uiso   1.00
C25    C     0.17032   0.11666   0.25006   0.00000  Uiso   1.00
C26    C     0.17036   0.38340   0.25096   0.00000  Uiso   1.00
C27    C     0.19503   0.09496   0.21505   0.00000  Uiso   1.00
C28    C     0.19364   0.40526   0.29292   0.00000  Uiso   1.00
H29    H     0.21159   0.11413   0.18807   0.00000  Uiso   1.00
H30    H     0.20915   0.38623   0.32457   0.00000  Uiso   1.00
C31    C     0.20083   0.04889   0.21605   0.00000  Uiso   1.00
C32    C     0.19937   0.45137   0.29362   0.00000  Uiso   1.00
C33    C     0.17936   0.02439   0.25180   0.00000  Uiso   1.00
C34    C     0.17936   0.47575   0.25185   0.00000  Uiso   1.00
C35    C     0.20632   0.27038   0.05912   0.00000  Uiso   1.00
C36    C     0.14211   0.21621   0.44275   0.00000  Uiso   1.00
H37    H     0.23846   0.28588   0.04534   0.00000  Uiso   1.00
H38    H     0.12341   0.18877   0.45822   0.00000  Uiso   1.00
C39    C     0.20534   0.27034   0.10973   0.00000  Uiso   1.00
C40    C     0.14223   0.21702   0.39204   0.00000  Uiso   1.00
H41    H     0.23588   0.28655   0.13333   0.00000  Uiso   1.00
H42    H     0.12283   0.19096   0.36981   0.00000  Uiso   1.00
N43    N     0.16667   0.25001   0.12934   0.00000  Uiso   1.00
N44    N     0.16667   0.24999   0.37065   0.00000  Uiso   1.00
C45    C     0.12802   0.22965   0.09967   0.00000  Uiso   1.00
C46    C     0.19101   0.28301   0.39852   0.00000  Uiso   1.00
H47    H     0.09751   0.21341   0.11533   0.00000  Uiso   1.00
H48    H     0.21037   0.30909   0.38144   0.00000  Uiso   1.00
C49    C     0.12703   0.22959   0.04880   0.00000  Uiso   1.00
C50    C     0.19112   0.28384   0.44928   0.00000  Uiso   1.00
H51    H     0.09489   0.21407   0.02667   0.00000  Uiso   1.00
H52    H     0.20980   0.31129   0.46973   0.00000  Uiso   1.00
C53    C     0.16666   0.25000   0.02734   0.00000  Uiso   1.00
C54    C     0.16663   0.25002   0.47264   0.00000  Uiso   1.00
N55    N     0.32383   0.21912   0.18978   0.00000  Uiso   1.00
O56    O     0.33101   0.23138   0.14624   0.00000  Uiso   1.00
O57    O     0.30231   0.18098   0.19554   0.00000  Uiso   1.00
N58    N     0.00951   0.28068   0.31028   0.00000  Uiso   1.00
O59    O     0.00257   0.26820   0.35381   0.00000  Uiso   1.00
O60    O     0.03081   0.31894   0.30461   0.00000  Uiso   1.00
N61    N     0.22951   0.02789   0.18169   0.00000  Uiso   1.00
O62    O     0.25830   0.49379   0.19441   0.00000  Uiso   1.00
O63    O     0.23173   0.04588   0.13940   0.00000  Uiso   1.00
N64    N     0.22648   0.47255   0.33614   0.00000  Uiso   1.00
O65    O     0.25577   0.00671   0.33187   0.00000  Uiso   1.00
O66    O     0.22669   0.45475   0.37888   0.00000  Uiso   1.00
O67    O     0.50000   0.18572   0.29071   0.00000  Uiso   1.00
O68    O     0.50000   0.31427   0.20928   0.00000  Uiso   1.00
O69    O     0.50000   0.18573   0.20928   0.00000  Uiso   1.00
O70    O     0.50000   0.31427   0.29072   0.00000  Uiso   1.00
C71    C     0.50049   0.16491   0.24997   0.00000  Uiso   1.00
C72    C     0.50053   0.33511   0.25017   0.00000  Uiso   1.00
O73    O     0.42495   0.24999   0.28132   0.00000  Uiso   1.00
O74    O     0.57505   0.25000   0.21868   0.00000  Uiso   1.00
O75    O     0.42495   0.25000   0.19988   0.00000  Uiso   1.00
O76    O     0.57505   0.25000   0.30011   0.00000  Uiso   1.00
C77    C     0.40137   0.24981   0.23771   0.00000  Uiso   1.00
C78    C     0.59863   0.25015   0.26229   0.00000  Uiso   1.00
Cu79   Cu    0.50000   0.24999   0.29821   0.00000  Uiso   1.00
Cu80   Cu    0.50000   0.25000   0.20178   0.00000  Uiso   1.00
C81    C     0.34668   0.24398   0.23170   0.00000  Uiso   1.00
C82    C     0.65332   0.25590   0.26831   0.00000  Uiso   1.00
C83    C     0.48743   0.04636   0.28629   0.00000  Uiso   1.00
C84    C     0.48885   0.45363   0.21024   0.00000  Uiso   1.00
H85    H     0.47028   0.02782   0.31337   0.00000  Uiso   1.00
H86    H     0.47280   0.47208   0.17834   0.00000  Uiso   1.00
C87    C     0.48364   0.09224   0.28592   0.00000  Uiso   1.00
C88    C     0.48507   0.40773   0.20952   0.00000  Uiso   1.00
H89    H     0.46430   0.10858   0.31311   0.00000  Uiso   1.00
H90    H     0.46682   0.39130   0.17689   0.00000  Uiso   1.00
C91    C     0.50365   0.11666   0.25006   0.00000  Uiso   1.00
C92    C     0.50370   0.38340   0.25096   0.00000  Uiso   1.00
C93    C     0.52836   0.09496   0.21505   0.00000  Uiso   1.00
C94    C     0.52697   0.40526   0.29292   0.00000  Uiso   1.00
H95    H     0.54492   0.11413   0.18807   0.00000  Uiso   1.00
H96    H     0.54248   0.38623   0.32457   0.00000  Uiso   1.00
C97    C     0.53416   0.04889   0.21605   0.00000  Uiso   1.00
C98    C     0.53270   0.45137   0.29362   0.00000  Uiso   1.00
C99    C     0.51270   0.02439   0.25180   0.00000  Uiso   1.00
C100   C     0.51270   0.47575   0.25185   0.00000  Uiso   1.00
C101   C     0.53965   0.27038   0.05912   0.00000  Uiso   1.00
C102   C     0.47544   0.21621   0.44275   0.00000  Uiso   1.00
H103   H     0.57180   0.28588   0.04534   0.00000  Uiso   1.00
H104   H     0.45674   0.18877   0.45822   0.00000  Uiso   1.00
C105   C     0.53867   0.27034   0.10973   0.00000  Uiso   1.00
C106   C     0.47557   0.21702   0.39204   0.00000  Uiso   1.00
H107   H     0.56921   0.28655   0.13333   0.00000  Uiso   1.00
H108   H     0.45616   0.19096   0.36981   0.00000  Uiso   1.00
N109   N     0.50000   0.25001   0.12934   0.00000  Uiso   1.00
N110   N     0.50000   0.24999   0.37065   0.00000  Uiso   1.00
C111   C     0.46135   0.22965   0.09967   0.00000  Uiso   1.00
C112   C     0.52435   0.28301   0.39852   0.00000  Uiso   1.00
H113   H     0.43084   0.21341   0.11533   0.00000  Uiso   1.00
H114   H     0.54371   0.30909   0.38144   0.00000  Uiso   1.00
C115   C     0.46037   0.22959   0.04880   0.00000  Uiso   1.00
C116   C     0.52445   0.28384   0.44928   0.00000  Uiso   1.00
H117   H     0.42823   0.21407   0.02667   0.00000  Uiso   1.00
H118   H     0.54313   0.31129   0.46973   0.00000  Uiso   1.00
C119   C     0.49999   0.25000   0.02734   0.00000  Uiso   1.00
C120   C     0.49997   0.25002   0.47264   0.00000  Uiso   1.00
N121   N     0.65717   0.21912   0.18978   0.00000  Uiso   1.00
O122   O     0.66434   0.23138   0.14624   0.00000  Uiso   1.00
O123   O     0.63564   0.18098   0.19554   0.00000  Uiso   1.00
N124   N     0.34284   0.28068   0.31028   0.00000  Uiso   1.00
O125   O     0.33590   0.26820   0.35381   0.00000  Uiso   1.00
O126   O     0.36415   0.31894   0.30461   0.00000  Uiso   1.00
N127   N     0.56284   0.02789   0.18169   0.00000  Uiso   1.00
O128   O     0.59164   0.49379   0.19441   0.00000  Uiso   1.00
O129   O     0.56506   0.04588   0.13940   0.00000  Uiso   1.00
N130   N     0.55981   0.47255   0.33614   0.00000  Uiso   1.00
O131   O     0.58910   0.00671   0.33187   0.00000  Uiso   1.00
O132   O     0.56002   0.45475   0.37888   0.00000  Uiso   1.00
O133   O     0.83334   0.18572   0.29071   0.00000  Uiso   1.00
O134   O     0.83333   0.31427   0.20928   0.00000  Uiso   1.00
O135   O     0.83334   0.18573   0.20928   0.00000  Uiso   1.00
O136   O     0.83333   0.31427   0.29072   0.00000  Uiso   1.00
C137   C     0.83383   0.16491   0.24997   0.00000  Uiso   1.00
C138   C     0.83387   0.33511   0.25017   0.00000  Uiso   1.00
O139   O     0.75828   0.24999   0.28132   0.00000  Uiso   1.00
O140   O     0.90839   0.25000   0.21868   0.00000  Uiso   1.00
O141   O     0.75828   0.25000   0.19988   0.00000  Uiso   1.00
O142   O     0.90839   0.25000   0.30011   0.00000  Uiso   1.00
C143   C     0.73470   0.24981   0.23771   0.00000  Uiso   1.00
C144   C     0.93196   0.25015   0.26229   0.00000  Uiso   1.00
Cu145  Cu    0.83333   0.24999   0.29821   0.00000  Uiso   1.00
Cu146  Cu    0.83333   0.25000   0.20178   0.00000  Uiso   1.00
C147   C     0.68001   0.24398   0.23170   0.00000  Uiso   1.00
C148   C     0.98665   0.25590   0.26831   0.00000  Uiso   1.00
C149   C     0.82076   0.04636   0.28629   0.00000  Uiso   1.00
C150   C     0.82218   0.45363   0.21024   0.00000  Uiso   1.00
H151   H     0.80361   0.02782   0.31337   0.00000  Uiso   1.00
H152   H     0.80613   0.47208   0.17834   0.00000  Uiso   1.00
C153   C     0.81697   0.09224   0.28592   0.00000  Uiso   1.00
C154   C     0.81840   0.40773   0.20952   0.00000  Uiso   1.00
H155   H     0.79763   0.10858   0.31311   0.00000  Uiso   1.00
H156   H     0.80015   0.39130   0.17689   0.00000  Uiso   1.00
C157   C     0.83699   0.11666   0.25006   0.00000  Uiso   1.00
C158   C     0.83703   0.38340   0.25096   0.00000  Uiso   1.00
C159   C     0.86169   0.09496   0.21505   0.00000  Uiso   1.00
C160   C     0.86031   0.40526   0.29292   0.00000  Uiso   1.00
H161   H     0.87825   0.11413   0.18807   0.00000  Uiso   1.00
H162   H     0.87581   0.38623   0.32457   0.00000  Uiso   1.00
C163   C     0.86750   0.04889   0.21605   0.00000  Uiso   1.00
C164   C     0.86603   0.45137   0.29362   0.00000  Uiso   1.00
C165   C     0.84603   0.02439   0.25180   0.00000  Uiso   1.00
C166   C     0.84603   0.47575   0.25185   0.00000  Uiso   1.00
C167   C     0.87298   0.27038   0.05912   0.00000  Uiso   1.00
C168   C     0.80878   0.21621   0.44275   0.00000  Uiso   1.00
H169   H     0.90513   0.28588   0.04534   0.00000  Uiso   1.00
H170   H     0.79007   0.18877   0.45822   0.00000  Uiso   1.00
C171   C     0.87201   0.27034   0.10973   0.00000  Uiso   1.00
C172   C     0.80890   0.21702   0.39204   0.00000  Uiso   1.00
H173   H     0.90255   0.28655   0.13333   0.00000  Uiso   1.00
H174   H     0.78949   0.19096   0.36981   0.00000  Uiso   1.00
N175   N     0.83333   0.25001   0.12934   0.00000  Uiso   1.00
N176   N     0.83333   0.24999   0.37065   0.00000  Uiso   1.00
C177   C     0.79468   0.22965   0.09967   0.00000  Uiso   1.00
C178   C     0.85768   0.28301   0.39852   0.00000  Uiso   1.00
H179   H     0.76417   0.21341   0.11533   0.00000  Uiso   1.00
H180   H     0.87704   0.30909   0.38144   0.00000  Uiso   1.00
C181   C     0.79370   0.22959   0.04880   0.00000  Uiso   1.00
C182   C     0.85779   0.28384   0.44928   0.00000  Uiso   1.00
H183   H     0.76156   0.21407   0.02667   0.00000  Uiso   1.00
H184   H     0.87646   0.31129   0.46973   0.00000  Uiso   1.00
C185   C     0.83333   0.25000   0.02734   0.00000  Uiso   1.00
C186   C     0.83330   0.25002   0.47264   0.00000  Uiso   1.00
N187   N     0.99050   0.21912   0.18978   0.00000  Uiso   1.00
O188   O     0.99767   0.23138   0.14624   0.00000  Uiso   1.00
O189   O     0.96897   0.18098   0.19554   0.00000  Uiso   1.00
N190   N     0.67617   0.28068   0.31028   0.00000  Uiso   1.00
O191   O     0.66924   0.26820   0.35381   0.00000  Uiso   1.00
O192   O     0.69748   0.31894   0.30461   0.00000  Uiso   1.00
N193   N     0.89618   0.02789   0.18169   0.00000  Uiso   1.00
O194   O     0.92497   0.49379   0.19441   0.00000  Uiso   1.00
O195   O     0.89840   0.04588   0.13940   0.00000  Uiso   1.00
N196   N     0.89315   0.47255   0.33614   0.00000  Uiso   1.00
O197   O     0.92243   0.00671   0.33187   0.00000  Uiso   1.00
O198   O     0.89336   0.45475   0.37888   0.00000  Uiso   1.00
O199   O     0.16667   0.68572   0.29071   0.00000  Uiso   1.00
O200   O     0.16666   0.81427   0.20928   0.00000  Uiso   1.00
O201   O     0.16667   0.68573   0.20928   0.00000  Uiso   1.00
O202   O     0.16666   0.81427   0.29072   0.00000  Uiso   1.00
C203   C     0.16716   0.66491   0.24997   0.00000  Uiso   1.00
C204   C     0.16720   0.83511   0.25017   0.00000  Uiso   1.00
O205   O     0.09161   0.74999   0.28132   0.00000  Uiso   1.00
O206   O     0.24172   0.75000   0.21868   0.00000  Uiso   1.00
O207   O     0.09161   0.75000   0.19988   0.00000  Uiso   1.00
O208   O     0.24172   0.75000   0.30011   0.00000  Uiso   1.00
C209   C     0.06804   0.74981   0.23771   0.00000  Uiso   1.00
C210   C     0.26529   0.75015   0.26229   0.00000  Uiso   1.00
Cu211  Cu    0.16667   0.74999   0.29821   0.00000  Uiso   1.00
Cu212  Cu    0.16667   0.75000   0.20178   0.00000  Uiso   1.00
C213   C     0.01335   0.74398   0.23170   0.00000  Uiso   1.00
C214   C     0.31998   0.75590   0.26831   0.00000  Uiso   1.00
C215   C     0.15409   0.54636   0.28629   0.00000  Uiso   1.00
C216   C     0.15552   0.95363   0.21024   0.00000  Uiso   1.00
H217   H     0.13694   0.52782   0.31337   0.00000  Uiso   1.00
H218   H     0.13946   0.97208   0.17834   0.00000  Uiso   1.00
C219   C     0.15031   0.59224   0.28592   0.00000  Uiso   1.00
C220   C     0.15174   0.90773   0.20952   0.00000  Uiso   1.00
H221   H     0.13096   0.60858   0.31311   0.00000  Uiso   1.00
H222   H     0.13348   0.89130   0.17689   0.00000  Uiso   1.00
C223   C     0.17032   0.61666   0.25006   0.00000  Uiso   1.00
C224   C     0.17036   0.88340   0.25096   0.00000  Uiso   1.00
C225   C     0.19503   0.59496   0.21505   0.00000  Uiso   1.00
C226   C     0.19364   0.90526   0.29292   0.00000  Uiso   1.00
H227   H     0.21159   0.61413   0.18807   0.00000  Uiso   1.00
H228   H     0.20915   0.88623   0.32457   0.00000  Uiso   1.00
C229   C     0.20083   0.54889   0.21605   0.00000  Uiso   1.00
C230   C     0.19937   0.95137   0.29362   0.00000  Uiso   1.00
C231   C     0.17936   0.52439   0.25180   0.00000  Uiso   1.00
C232   C     0.17936   0.97575   0.25185   0.00000  Uiso   1.00
C233   C     0.20632   0.77038   0.05912   0.00000  Uiso   1.00
C234   C     0.14211   0.71621   0.44275   0.00000  Uiso   1.00
H235   H     0.23846   0.78588   0.04534   0.00000  Uiso   1.00
H236   H     0.12341   0.68877   0.45822   0.00000  Uiso   1.00
C237   C     0.20534   0.77034   0.10973   0.00000  Uiso   1.00
C238   C     0.14223   0.71702   0.39204   0.00000  Uiso   1.00
H239   H     0.23588   0.78655   0.13333   0.00000  Uiso   1.00
H240   H     0.12283   0.69096   0.36981   0.00000  Uiso   1.00
N241   N     0.16667   0.75001   0.12934   0.00000  Uiso   1.00
N242   N     0.16667   0.74999   0.37065   0.00000  Uiso   1.00
C243   C     0.12802   0.72965   0.09967   0.00000  Uiso   1.00
C244   C     0.19101   0.78301   0.39852   0.00000  Uiso   1.00
H245   H     0.09751   0.71341   0.11533   0.00000  Uiso   1.00
H246   H     0.21037   0.80909   0.38144   0.00000  Uiso   1.00
C247   C     0.12703   0.72959   0.04880   0.00000  Uiso   1.00
C248   C     0.19112   0.78384   0.44928   0.00000  Uiso   1.00
H249   H     0.09489   0.71407   0.02667   0.00000  Uiso   1.00
H250   H     0.20980   0.81129   0.46973   0.00000  Uiso   1.00
C251   C     0.16666   0.75000   0.02734   0.00000  Uiso   1.00
C252   C     0.16663   0.75002   0.47264   0.00000  Uiso   1.00
N253   N     0.32383   0.71912   0.18978   0.00000  Uiso   1.00
O254   O     0.33101   0.73138   0.14624   0.00000  Uiso   1.00
O255   O     0.30231   0.68098   0.19554   0.00000  Uiso   1.00
N256   N     0.00951   0.78068   0.31028   0.00000  Uiso   1.00
O257   O     0.00257   0.76820   0.35381   0.00000  Uiso   1.00
O258   O     0.03081   0.81894   0.30461   0.00000  Uiso   1.00
N259   N     0.22951   0.52789   0.18169   0.00000  Uiso   1.00
O260   O     0.25830   0.99379   0.19441   0.00000  Uiso   1.00
O261   O     0.23173   0.54588   0.13940   0.00000  Uiso   1.00
N262   N     0.22648   0.97255   0.33614   0.00000  Uiso   1.00
O263   O     0.25577   0.50671   0.33187   0.00000  Uiso   1.00
O264   O     0.22669   0.95475   0.37888   0.00000  Uiso   1.00
O265   O     0.50000   0.68572   0.29071   0.00000  Uiso   1.00
O266   O     0.50000   0.81427   0.20928   0.00000  Uiso   1.00
O267   O     0.50000   0.68573   0.20928   0.00000  Uiso   1.00
O268   O     0.50000   0.81427   0.29072   0.00000  Uiso   1.00
C269   C     0.50049   0.66491   0.24997   0.00000  Uiso   1.00
C270   C     0.50053   0.83511   0.25017   0.00000  Uiso   1.00
O271   O     0.42495   0.74999   0.28132   0.00000  Uiso   1.00
O272   O     0.57505   0.75000   0.21868   0.00000  Uiso   1.00
O273   O     0.42495   0.75000   0.19988   0.00000  Uiso   1.00
O274   O     0.57505   0.75000   0.30011   0.00000  Uiso   1.00
C275   C     0.40137   0.74981   0.23771   0.00000  Uiso   1.00
C276   C     0.59863   0.75015   0.26229   0.00000  Uiso   1.00
Cu277  Cu    0.50000   0.74999   0.29821   0.00000  Uiso   1.00
Cu278  Cu    0.50000   0.75000   0.20178   0.00000  Uiso   1.00
C279   C     0.34668   0.74398   0.23170   0.00000  Uiso   1.00
C280   C     0.65332   0.75590   0.26831   0.00000  Uiso   1.00
C281   C     0.48743   0.54636   0.28629   0.00000  Uiso   1.00
C282   C     0.48885   0.95363   0.21024   0.00000  Uiso   1.00
H283   H     0.47028   0.52782   0.31337   0.00000  Uiso   1.00
H284   H     0.47280   0.97208   0.17834   0.00000  Uiso   1.00
C285   C     0.48364   0.59224   0.28592   0.00000  Uiso   1.00
C286   C     0.48507   0.90773   0.20952   0.00000  Uiso   1.00
H287   H     0.46430   0.60858   0.31311   0.00000  Uiso   1.00
H288   H     0.46682   0.89130   0.17689   0.00000  Uiso   1.00
C289   C     0.50365   0.61666   0.25006   0.00000  Uiso   1.00
C290   C     0.50370   0.88340   0.25096   0.00000  Uiso   1.00
C291   C     0.52836   0.59496   0.21505   0.00000  Uiso   1.00
C292   C     0.52697   0.90526   0.29292   0.00000  Uiso   1.00
H293   H     0.54492   0.61413   0.18807   0.00000  Uiso   1.00
H294   H     0.54248   0.88623   0.32457   0.00000  Uiso   1.00
C295   C     0.53416   0.54889   0.21605   0.00000  Uiso   1.00
C296   C     0.53270   0.95137   0.29362   0.00000  Uiso   1.00
C297   C     0.51270   0.52439   0.25180   0.00000  Uiso   1.00
C298   C     0.51270   0.97575   0.25185   0.00000  Uiso   1.00
C299   C     0.53965   0.77038   0.05912   0.00000  Uiso   1.00
C300   C     0.47544   0.71621   0.44275   0.00000  Uiso   1.00
H301   H     0.57180   0.78588   0.04534   0.00000  Uiso   1.00
H302   H     0.45674   0.68877   0.45822   0.00000  Uiso   1.00
C303   C     0.53867   0.77034   0.10973   0.00000  Uiso   1.00
C304   C     0.47557   0.71702   0.39204   0.00000  Uiso   1.00
H305   H     0.56921   0.78655   0.13333   0.00000  Uiso   1.00
H306   H     0.45616   0.69096   0.36981   0.00000  Uiso   1.00
N307   N     0.50000   0.75001   0.12934   0.00000  Uiso   1.00
N308   N     0.50000   0.74999   0.37065   0.00000  Uiso   1.00
C309   C     0.46135   0.72965   0.09967   0.00000  Uiso   1.00
C310   C     0.52435   0.78301   0.39852   0.00000  Uiso   1.00
H311   H     0.43084   0.71341   0.11533   0.00000  Uiso   1.00
H312   H     0.54371   0.80909   0.38144   0.00000  Uiso   1.00
C313   C     0.46037   0.72959   0.04880   0.00000  Uiso   1.00
C314   C     0.52445   0.78384   0.44928   0.00000  Uiso   1.00
H315   H     0.42823   0.71407   0.02667   0.00000  Uiso   1.00
H316   H     0.54313   0.81129   0.46973   0.00000  Uiso   1.00
C317   C     0.49999   0.75000   0.02734   0.00000  Uiso   1.00
C318   C     0.49997   0.75002   0.47264   0.00000  Uiso   1.00
N319   N     0.65717   0.71912   0.18978   0.00000  Uiso   1.00
O320   O     0.66434   0.73138   0.14624   0.00000  Uiso   1.00
O321   O     0.63564   0.68098   0.19554   0.00000  Uiso   1.00
N322   N     0.34284   0.78068   0.31028   0.00000  Uiso   1.00
O323   O     0.33590   0.76820   0.35381   0.00000  Uiso   1.00
O324   O     0.36415   0.81894   0.30461   0.00000  Uiso   1.00
N325   N     0.56284   0.52789   0.18169   0.00000  Uiso   1.00
O326   O     0.59164   0.99379   0.19441   0.00000  Uiso   1.00
O327   O     0.56506   0.54588   0.13940   0.00000  Uiso   1.00
N328   N     0.55981   0.97255   0.33614   0.00000  Uiso   1.00
O329   O     0.58910   0.50671   0.33187   0.00000  Uiso   1.00
O330   O     0.56002   0.95475   0.37888   0.00000  Uiso   1.00
O331   O     0.83334   0.68572   0.29071   0.00000  Uiso   1.00
O332   O     0.83333   0.81427   0.20928   0.00000  Uiso   1.00
O333   O     0.83334   0.68573   0.20928   0.00000  Uiso   1.00
O334   O     0.83333   0.81427   0.29072   0.00000  Uiso   1.00
C335   C     0.83383   0.66491   0.24997   0.00000  Uiso   1.00
C336   C     0.83387   0.83511   0.25017   0.00000  Uiso   1.00
O337   O     0.75828   0.74999   0.28132   0.00000  Uiso   1.00
O338   O     0.90839   0.75000   0.21868   0.00000  Uiso   1.00
O339   O     0.75828   0.75000   0.19988   0.00000  Uiso   1.00
O340   O     0.90839   0.75000   0.30011   0.00000  Uiso   1.00
C341   C     0.73470   0.74981   0.23771   0.00000  Uiso   1.00
C342   C     0.93196   0.75015   0.26229   0.00000  Uiso   1.00
Cu343  Cu    0.83333   0.74999   0.29821   0.00000  Uiso   1.00
Cu344  Cu    0.83333   0.75000   0.20178   0.00000  Uiso   1.00
C345   C     0.68001   0.74398   0.23170   0.00000  Uiso   1.00
C346   C     0.98665   0.75590   0.26831   0.00000  Uiso   1.00
C347   C     0.82076   0.54636   0.28629   0.00000  Uiso   1.00
C348   C     0.82218   0.95363   0.21024   0.00000  Uiso   1.00
H349   H     0.80361   0.52782   0.31337   0.00000  Uiso   1.00
H350   H     0.80613   0.97208   0.17834   0.00000  Uiso   1.00
C351   C     0.81697   0.59224   0.28592   0.00000  Uiso   1.00
C352   C     0.81840   0.90773   0.20952   0.00000  Uiso   1.00
H353   H     0.79763   0.60858   0.31311   0.00000  Uiso   1.00
H354   H     0.80015   0.89130   0.17689   0.00000  Uiso   1.00
C355   C     0.83699   0.61666   0.25006   0.00000  Uiso   1.00
C356   C     0.83703   0.88340   0.25096   0.00000  Uiso   1.00
C357   C     0.86169   0.59496   0.21505   0.00000  Uiso   1.00
C358   C     0.86031   0.90526   0.29292   0.00000  Uiso   1.00
H359   H     0.87825   0.61413   0.18807   0.00000  Uiso   1.00
H360   H     0.87581   0.88623   0.32457   0.00000  Uiso   1.00
C361   C     0.86750   0.54889   0.21605   0.00000  Uiso   1.00
C362   C     0.86603   0.95137   0.29362   0.00000  Uiso   1.00
C363   C     0.84603   0.52439   0.25180   0.00000  Uiso   1.00
C364   C     0.84603   0.97575   0.25185   0.00000  Uiso   1.00
C365   C     0.87298   0.77038   0.05912   0.00000  Uiso   1.00
C366   C     0.80878   0.71621   0.44275   0.00000  Uiso   1.00
H367   H     0.90513   0.78588   0.04534   0.00000  Uiso   1.00
H368   H     0.79007   0.68877   0.45822   0.00000  Uiso   1.00
C369   C     0.87201   0.77034   0.10973   0.00000  Uiso   1.00
C370   C     0.80890   0.71702   0.39204   0.00000  Uiso   1.00
H371   H     0.90255   0.78655   0.13333   0.00000  Uiso   1.00
H372   H     0.78949   0.69096   0.36981   0.00000  Uiso   1.00
N373   N     0.83333   0.75001   0.12934   0.00000  Uiso   1.00
N374   N     0.83333   0.74999   0.37065   0.00000  Uiso   1.00
C375   C     0.79468   0.72965   0.09967   0.00000  Uiso   1.00
C376   C     0.85768   0.78301   0.39852   0.00000  Uiso   1.00
H377   H     0.76417   0.71341   0.11533   0.00000  Uiso   1.00
H378   H     0.87704   0.80909   0.38144   0.00000  Uiso   1.00
C379   C     0.79370   0.72959   0.04880   0.00000  Uiso   1.00
C380   C     0.85779   0.78384   0.44928   0.00000  Uiso   1.00
H381   H     0.76156   0.71407   0.02667   0.00000  Uiso   1.00
H382   H     0.87646   0.81129   0.46973   0.00000  Uiso   1.00
C383   C     0.83333   0.75000   0.02734   0.00000  Uiso   1.00
C384   C     0.83330   0.75002   0.47264   0.00000  Uiso   1.00
N385   N     0.99050   0.71912   0.18978   0.00000  Uiso   1.00
O386   O     0.99767   0.73138   0.14624   0.00000  Uiso   1.00
O387   O     0.96897   0.68098   0.19554   0.00000  Uiso   1.00
N388   N     0.67617   0.78068   0.31028   0.00000  Uiso   1.00
O389   O     0.66924   0.76820   0.35381   0.00000  Uiso   1.00
O390   O     0.69748   0.81894   0.30461   0.00000  Uiso   1.00
N391   N     0.89618   0.52789   0.18169   0.00000  Uiso   1.00
O392   O     0.92497   0.99379   0.19441   0.00000  Uiso   1.00
O393   O     0.89840   0.54588   0.13940   0.00000  Uiso   1.00
N394   N     0.89315   0.97255   0.33614   0.00000  Uiso   1.00
O395   O     0.92243   0.50671   0.33187   0.00000  Uiso   1.00
O396   O     0.89336   0.95475   0.37888   0.00000  Uiso   1.00
O397   O     0.16667   0.18572   0.79071   0.00000  Uiso   1.00
O398   O     0.16666   0.31427   0.70928   0.00000  Uiso   1.00
O399   O     0.16667   0.18573   0.70928   0.00000  Uiso   1.00
O400   O     0.16666   0.31427   0.79072   0.00000  Uiso   1.00
C401   C     0.16716   0.16491   0.74997   0.00000  Uiso   1.00
C402   C     0.16720   0.33511   0.75017   0.00000  Uiso   1.00
O403   O     0.09161   0.24999   0.78132   0.00000  Uiso   1.00
O404   O     0.24172   0.25000   0.71868   0.00000  Uiso   1.00
O405   O     0.09161   0.25000   0.69988   0.00000  Uiso   1.00
O406   O     0.24172   0.25000   0.80011   0.00000  Uiso   1.00
C407   C     0.06804   0.24981   0.73771   0.00000  Uiso   1.00
C408   C     0.26529   0.25015   0.76229   0.00000  Uiso   1.00
Cu409  Cu    0.16667   0.24999   0.79821   0.00000  Uiso   1.00
Cu410  Cu    0.16667   0.25000   0.70178   0.00000  Uiso   1.00
C411   C     0.01335   0.24398   0.73170   0.00000  Uiso   1.00
C412   C     0.31998   0.25590   0.76831   0.00000  Uiso   1.00
C413   C     0.15409   0.04636   0.78629   0.00000  Uiso   1.00
C414   C     0.15552   0.45363   0.71024   0.00000  Uiso   1.00
H415   H     0.13694   0.02782   0.81337   0.00000  Uiso   1.00
H416   H     0.13946   0.47208   0.67834   0.00000  Uiso   1.00
C417   C     0.15031   0.09224   0.78592   0.00000  Uiso   1.00
C418   C     0.15174   0.40773   0.70952   0.00000  Uiso   1.00
H419   H     0.13096   0.10858   0.81311   0.00000  Uiso   1.00
H420   H     0.13348   0.39130   0.67689   0.00000  Uiso   1.00
C421   C     0.17032   0.11666   0.75006   0.00000  Uiso   1.00
C422   C     0.17036   0.38340   0.75096   0.00000  Uiso   1.00
C423   C     0.19503   0.09496   0.71505   0.00000  Uiso   1.00
C424   C     0.19364   0.40526   0.79292   0.00000  Uiso   1.00
H425   H     0.21159   0.11413   0.68807   0.00000  Uiso   1.00
H426   H     0.20915   0.38623   0.82457   0.00000  Uiso   1.00
C427   C     0.20083   0.04889   0.71605   0.00000  Uiso   1.00
C428   C     0.19937   0.45137   0.79362   0.00000  Uiso   1.00
C429   C     0.17936   0.02439   0.75180   0.00000  Uiso   1.00
C430   C     0.17936   0.47575   0.75185   0.00000  Uiso   1.00
C431   C     0.20632   0.27038   0.55912   0.00000  Uiso   1.00
C432   C     0.14211   0.21621   0.94275   0.00000  Uiso   1.00
H433   H     0.23846   0.28588   0.54534   0.00000  Uiso   1.00
H434   H     0.12341   0.18877   0.95822   0.00000  Uiso   1.00
C435   C     0.20534   0.27034   0.60973   0.00000  Uiso   1.00
C436   C     0.14223   0.21702   0.89204   0.00000  Uiso   1.00
H437   H     0.23588   0.28655   0.63333   0.00000  Uiso   1.00
H438   H     0.12283   0.19096   0.86981   0.00000  Uiso   1.00
N439   N     0.16667   0.25001   0.62934   0.00000  Uiso   1.00
N440   N     0.16667   0.24999   0.87065   0.00000  Uiso   1.00
C441   C     0.12802   0.22965   0.59967   0.00000  Uiso   1.00
C442   C     0.19101   0.28301   0.89852   0.00000  Uiso   1.00
H443   H     0.09751   0.21341   0.61533   0.00000  Uiso   1.00
H444   H     0.21037   0.30909   0.88144   0.00000  Uiso   1.00
C445   C     0.12703   0.22959   0.54880   0.00000  Uiso   1.00
C446   C     0.19112   0.28384   0.94928   0.00000  Uiso   1.00
H447   H     0.09489   0.21407   0.52667   0.00000  Uiso   1.00
H448   H     0.20980   0.31129   0.96973   0.00000  Uiso   1.00
C449   C     0.16666   0.25000   0.52734   0.00000  Uiso   1.00
C450   C     0.16663   0.25002   0.97264   0.00000  Uiso   1.00
N451   N     0.32383   0.21912   0.68978   0.00000  Uiso   1.00
O452   O     0.33101   0.23138   0.64624   0.00000  Uiso   1.00
O453   O     0.30231   0.18098   0.69554   0.00000  Uiso   1.00
N454   N     0.00951   0.28068   0.81028   0.00000  Uiso   1.00
O455   O     0.00257   0.26820   0.85381   0.00000  Uiso   1.00
O456   O     0.03081   0.31894   0.80461   0.00000  Uiso   1.00
N457   N     0.22951   0.02789   0.68169   0.00000  Uiso   1.00
O458   O     0.25830   0.49379   0.69441   0.00000  Uiso   1.00
O459   O     0.23173   0.04588   0.63940   0.00000  Uiso   1.00
N460   N     0.22648   0.47255   0.83614   0.00000  Uiso   1.00
O461   O     0.25577   0.00671   0.83187   0.00000  Uiso   1.00
O462   O     0.22669   0.45475   0.87888   0.00000  Uiso   1.00
O463   O     0.50000   0.18572   0.79071   0.00000  Uiso   1.00
O464   O     0.50000   0.31427   0.70928   0.00000  Uiso   1.00
O465   O     0.50000   0.18573   0.70928   0.00000  Uiso   1.00
O466   O     0.50000   0.31427   0.79072   0.00000  Uiso   1.00
C467   C     0.50049   0.16491   0.74997   0.00000  Uiso   1.00
C468   C     0.50053   0.33511   0.75017   0.00000  Uiso   1.00
O469   O     0.42495   0.24999   0.78132   0.00000  Uiso   1.00
O470   O     0.57505   0.25000   0.71868   0.00000  Uiso   1.00
O471   O     0.42495   0.25000   0.69988   0.00000  Uiso   1.00
O472   O     0.57505   0.25000   0.80011   0.00000  Uiso   1.00
C473   C     0.40137   0.24981   0.73771   0.00000  Uiso   1.00
C474   C     0.59863   0.25015   0.76229   0.00000  Uiso   1.00
Cu475  Cu    0.50000   0.24999   0.79821   0.00000  Uiso   1.00
Cu476  Cu    0.50000   0.25000   0.70178   0.00000  Uiso   1.00
C477   C     0.34668   0.24398   0.73170   0.00000  Uiso   1.00
C478   C     0.65332   0.25590   0.76831   0.00000  Uiso   1.00
C479   C     0.48743   0.04636   0.78629   0.00000  Uiso   1.00
C480   C     0.48885   0.45363   0.71024   0.00000  Uiso   1.00
H481   H     0.47028   0.02782   0.81337   0.00000  Uiso   1.00
H482   H     0.47280   0.47208   0.67834   0.00000  Uiso   1.00
C483   C     0.48364   0.09224   0.78592   0.00000  Uiso   1.00
C484   C     0.48507   0.40773   0.70952   0.00000  Uiso   1.00
H485   H     0.46430   0.10858   0.81311   0.00000  Uiso   1.00
H486   H     0.46682   0.39130   0.67689   0.00000  Uiso   1.00
C487   C     0.50365   0.11666   0.75006   0.00000  Uiso   1.00
C488   C     0.50370   0.38340   0.75096   0.00000  Uiso   1.00
C489   C     0.52836   0.09496   0.71505   0.00000  Uiso   1.00
C490   C     0.52697   0.40526   0.79292   0.00000  Uiso   1.00
H491   H     0.54492   0.11413   0.68807   0.00000  Uiso   1.00
H492   H     0.54248   0.38623   0.82457   0.00000  Uiso   1.00
C493   C     0.53416   0.04889   0.71605   0.00000  Uiso   1.00
C494   C     0.53270   0.45137   0.79362   0.00000  Uiso   1.00
C495   C     0.51270   0.02439   0.75180   0.00000  Uiso   1.00
C496   C     0.51270   0.47575   0.75185   0.00000  Uiso   1.00
C497   C     0.53965   0.27038   0.55912   0.00000  Uiso   1.00
C498   C     0.47544   0.21621   0.94275   0.00000  Uiso   1.00
H499   H     0.57180   0.28588   0.54534   0.00000  Uiso   1.00
H500   H     0.45674   0.18877   0.95822   0.00000  Uiso   1.00
C501   C     0.53867   0.27034   0.60973   0.00000  Uiso   1.00
C502   C     0.47557   0.21702   0.89204   0.00000  Uiso   1.00
H503   H     0.56921   0.28655   0.63333   0.00000  Uiso   1.00
H504   H     0.45616   0.19096   0.86981   0.00000  Uiso   1.00
N505   N     0.50000   0.25001   0.62934   0.00000  Uiso   1.00
N506   N     0.50000   0.24999   0.87065   0.00000  Uiso   1.00
C507   C     0.46135   0.22965   0.59967   0.00000  Uiso   1.00
C508   C     0.52435   0.28301   0.89852   0.00000  Uiso   1.00
H509   H     0.43084   0.21341   0.61533   0.00000  Uiso   1.00
H510   H     0.54371   0.30909   0.88144   0.00000  Uiso   1.00
C511   C     0.46037   0.22959   0.54880   0.00000  Uiso   1.00
C512   C     0.52445   0.28384   0.94928   0.00000  Uiso   1.00
H513   H     0.42823   0.21407   0.52667   0.00000  Uiso   1.00
H514   H     0.54313   0.31129   0.96973   0.00000  Uiso   1.00
C515   C     0.49999   0.25000   0.52734   0.00000  Uiso   1.00
C516   C     0.49997   0.25002   0.97264   0.00000  Uiso   1.00
N517   N     0.65717   0.21912   0.68978   0.00000  Uiso   1.00
O518   O     0.66434   0.23138   0.64624   0.00000  Uiso   1.00
O519   O     0.63564   0.18098   0.69554   0.00000  Uiso   1.00
N520   N     0.34284   0.28068   0.81028   0.00000  Uiso   1.00
O521   O     0.33590   0.26820   0.85381   0.00000  Uiso   1.00
O522   O     0.36415   0.31894   0.80461   0.00000  Uiso   1.00
N523   N     0.56284   0.02789   0.68169   0.00000  Uiso   1.00
O524   O     0.59164   0.49379   0.69441   0.00000  Uiso   1.00
O525   O     0.56506   0.04588   0.63940   0.00000  Uiso   1.00
N526   N     0.55981   0.47255   0.83614   0.00000  Uiso   1.00
O527   O     0.58910   0.00671   0.83187   0.00000  Uiso   1.00
O528   O     0.56002   0.45475   0.87888   0.00000  Uiso   1.00
O529   O     0.83334   0.18572   0.79071   0.00000  Uiso   1.00
O530   O     0.83333   0.31427   0.70928   0.00000  Uiso   1.00
O531   O     0.83334   0.18573   0.70928   0.00000  Uiso   1.00
O532   O     0.83333   0.31427   0.79072   0.00000  Uiso   1.00
C533   C     0.83383   0.16491   0.74997   0.00000  Uiso   1.00
C534   C     0.83387   0.33511   0.75017   0.00000  Uiso   1.00
O535   O     0.75828   0.24999   0.78132   0.00000  Uiso   1.00
O536   O     0.90839   0.25000   0.71868   0.00000  Uiso   1.00
O537   O     0.75828   0.25000   0.69988   0.00000  Uiso   1.00
O538   O     0.90839   0.25000   0.80011   0.00000  Uiso   1.00
C539   C     0.73470   0.24981   0.73771   0.00000  Uiso   1.00
C540   C     0.93196   0.25015   0.76229   0.00000  Uiso   1.00
Cu541  Cu    0.83333   0.24999   0.79821   0.00000  Uiso   1.00
Cu542  Cu    0.83333   0.25000   0.70178   0.00000  Uiso   1.00
C543   C     0.68001   0.24398   0.73170   0.00000  Uiso   1.00
C544   C     0.98665   0.25590   0.76831   0.00000  Uiso   1.00
C545   C     0.82076   0.04636   0.78629   0.00000  Uiso   1.00
C546   C     0.82218   0.45363   0.71024   0.00000  Uiso   1.00
H547   H     0.80361   0.02782   0.81337   0.00000  Uiso   1.00
H548   H     0.80613   0.47208   0.67834   0.00000  Uiso   1.00
C549   C     0.81697   0.09224   0.78592   0.00000  Uiso   1.00
C550   C     0.81840   0.40773   0.70952   0.00000  Uiso   1.00
H551   H     0.79763   0.10858   0.81311   0.00000  Uiso   1.00
H552   H     0.80015   0.39130   0.67689   0.00000  Uiso   1.00
C553   C     0.83699   0.11666   0.75006   0.00000  Uiso   1.00
C554   C     0.83703   0.38340   0.75096   0.00000  Uiso   1.00
C555   C     0.86169   0.09496   0.71505   0.00000  Uiso   1.00
C556   C     0.86031   0.40526   0.79292   0.00000  Uiso   1.00
H557   H     0.87825   0.11413   0.68807   0.00000  Uiso   1.00
H558   H     0.87581   0.38623   0.82457   0.00000  Uiso   1.00
C559   C     0.86750   0.04889   0.71605   0.00000  Uiso   1.00
C560   C     0.86603   0.45137   0.79362   0.00000  Uiso   1.00
C561   C     0.84603   0.02439   0.75180   0.00000  Uiso   1.00
C562   C     0.84603   0.47575   0.75185   0.00000  Uiso   1.00
C563   C     0.87298   0.27038   0.55912   0.00000  Uiso   1.00
C564   C     0.80878   0.21621   0.94275   0.00000  Uiso   1.00
H565   H     0.90513   0.28588   0.54534   0.00000  Uiso   1.00
H566   H     0.79007   0.18877   0.95822   0.00000  Uiso   1.00
C567   C     0.87201   0.27034   0.60973   0.00000  Uiso   1.00
C568   C     0.80890   0.21702   0.89204   0.00000  Uiso   1.00
H569   H     0.90255   0.28655   0.63333   0.00000  Uiso   1.00
H570   H     0.78949   0.19096   0.86981   0.00000  Uiso   1.00
N571   N     0.83333   0.25001   0.62934   0.00000  Uiso   1.00
N572   N     0.83333   0.24999   0.87065   0.00000  Uiso   1.00
C573   C     0.79468   0.22965   0.59967   0.00000  Uiso   1.00
C574   C     0.85768   0.28301   0.89852   0.00000  Uiso   1.00
H575   H     0.76417   0.21341   0.61533   0.00000  Uiso   1.00
H576   H     0.87704   0.30909   0.88144   0.00000  Uiso   1.00
C577   C     0.79370   0.22959   0.54880   0.00000  Uiso   1.00
C578   C     0.85779   0.28384   0.94928   0.00000  Uiso   1.00
H579   H     0.76156   0.21407   0.52667   0.00000  Uiso   1.00
H580   H     0.87646   0.31129   0.96973   0.00000  Uiso   1.00
C581   C     0.83333   0.25000   0.52734   0.00000  Uiso   1.00
C582   C     0.83330   0.25002   0.97264   0.00000  Uiso   1.00
N583   N     0.99050   0.21912   0.68978   0.00000  Uiso   1.00
O584   O     0.99767   0.23138   0.64624   0.00000  Uiso   1.00
O585   O     0.96897   0.18098   0.69554   0.00000  Uiso   1.00
N586   N     0.67617   0.28068   0.81028   0.00000  Uiso   1.00
O587   O     0.66924   0.26820   0.85381   0.00000  Uiso   1.00
O588   O     0.69748   0.31894   0.80461   0.00000  Uiso   1.00
N589   N     0.89618   0.02789   0.68169   0.00000  Uiso   1.00
O590   O     0.92497   0.49379   0.69441   0.00000  Uiso   1.00
O591   O     0.89840   0.04588   0.63940   0.00000  Uiso   1.00
N592   N     0.89315   0.47255   0.83614   0.00000  Uiso   1.00
O593   O     0.92243   0.00671   0.83187   0.00000  Uiso   1.00
O594   O     0.89336   0.45475   0.87888   0.00000  Uiso   1.00
O595   O     0.16667   0.68572   0.79071   0.00000  Uiso   1.00
O596   O     0.16666   0.81427   0.70928   0.00000  Uiso   1.00
O597   O     0.16667   0.68573   0.70928   0.00000  Uiso   1.00
O598   O     0.16666   0.81427   0.79072   0.00000  Uiso   1.00
C599   C     0.16716   0.66491   0.74997   0.00000  Uiso   1.00
C600   C     0.16720   0.83511   0.75017   0.00000  Uiso   1.00
O601   O     0.09161   0.74999   0.78132   0.00000  Uiso   1.00
O602   O     0.24172   0.75000   0.71868   0.00000  Uiso   1.00
O603   O     0.09161   0.75000   0.69988   0.00000  Uiso   1.00
O604   O     0.24172   0.75000   0.80011   0.00000  Uiso   1.00
C605   C     0.06804   0.74981   0.73771   0.00000  Uiso   1.00
C606   C     0.26529   0.75015   0.76229   0.00000  Uiso   1.00
Cu607  Cu    0.16667   0.74999   0.79821   0.00000  Uiso   1.00
Cu608  Cu    0.16667   0.75000   0.70178   0.00000  Uiso   1.00
C609   C     0.01335   0.74398   0.73170   0.00000  Uiso   1.00
C610   C     0.31998   0.75590   0.76831   0.00000  Uiso   1.00
C611   C     0.15409   0.54636   0.78629   0.00000  Uiso   1.00
C612   C     0.15552   0.95363   0.71024   0.00000  Uiso   1.00
H613   H     0.13694   0.52782   0.81337   0.00000  Uiso   1.00
H614   H     0.13946   0.97208   0.67834   0.00000  Uiso   1.00
C615   C     0.15031   0.59224   0.78592   0.00000  Uiso   1.00
C616   C     0.15174   0.90773   0.70952   0.00000  Uiso   1.00
H617   H     0.13096   0.60858   0.81311   0.00000  Uiso   1.00
H618   H     0.13348   0.89130   0.67689   0.00000  Uiso   1.00
C619   C     0.17032   0.61666   0.75006   0.00000  Uiso   1.00
C620   C     0.17036   0.88340   0.75096   0.00000  Uiso   1.00
C621   C     0.19503   0.59496   0.71505   0.00000  Uiso   1.00
C622   C     0.19364   0.90526   0.79292   0.00000  Uiso   1.00
H623   H     0.21159   0.61413   0.68807   0.00000  Uiso   1.00
H624   H     0.20915   0.88623   0.82457   0.00000  Uiso   1.00
C625   C     0.20083   0.54889   0.71605   0.00000  Uiso   1.00
C626   C     0.19937   0.95137   0.79362   0.00000  Uiso   1.00
C627   C     0.17936   0.52439   0.75180   0.00000  Uiso   1.00
C628   C     0.17936   0.97575   0.75185   0.00000  Uiso   1.00
C629   C     0.20632   0.77038   0.55912   0.00000  Uiso   1.00
C630   C     0.14211   0.71621   0.94275   0.00000  Uiso   1.00
H631   H     0.23846   0.78588   0.54534   0.00000  Uiso   1.00
H632   H     0.12341   0.68877   0.95822   0.00000  Uiso   1.00
C633   C     0.20534   0.77034   0.60973   0.00000  Uiso   1.00
C634   C     0.14223   0.71702   0.89204   0.00000  Uiso   1.00
H635   H     0.23588   0.78655   0.63333   0.00000  Uiso   1.00
H636   H     0.12283   0.69096   0.86981   0.00000  Uiso   1.00
N637   N     0.16667   0.75001   0.62934   0.00000  Uiso   1.00
N638   N     0.16667   0.74999   0.87065   0.00000  Uiso   1.00
C639   C     0.12802   0.72965   0.59967   0.00000  Uiso   1.00
C640   C     0.19101   0.78301   0.89852   0.00000  Uiso   1.00
H641   H     0.09751   0.71341   0.61533   0.00000  Uiso   1.00
H642   H     0.21037   0.80909   0.88144   0.00000  Uiso   1.00
C643   C     0.12703   0.72959   0.54880   0.00000  Uiso   1.00
C644   C     0.19112   0.78384   0.94928   0.00000  Uiso   1.00
H645   H     0.09489   0.71407   0.52667   0.00000  Uiso   1.00
H646   H     0.20980   0.81129   0.96973   0.00000  Uiso   1.00
C647   C     0.16666   0.75000   0.52734   0.00000  Uiso   1.00
C648   C     0.16663   0.75002   0.97264   0.00000  Uiso   1.00
N649   N     0.32383   0.71912   0.68978   0.00000  Uiso   1.00
O650   O     0.33101   0.73138   0.64624   0.00000  Uiso   1.00
O651   O     0.30231   0.68098   0.69554   0.00000  Uiso   1.00
N652   N     0.00951   0.78068   0.81028   0.00000  Uiso   1.00
O653   O     0.00257   0.76820   0.85381   0.00000  Uiso   1.00
O654   O     0.03081   0.81894   0.80461   0.00000  Uiso   1.00
N655   N     0.22951   0.52789   0.68169   0.00000  Uiso   1.00
O656   O     0.25830   0.99379   0.69441   0.00000  Uiso   1.00
O657   O     0.23173   0.54588   0.63940   0.00000  Uiso   1.00
N658   N     0.22648   0.97255   0.83614   0.00000  Uiso   1.00
O659   O     0.25577   0.50671   0.83187   0.00000  Uiso   1.00
O660   O     0.22669   0.95475   0.87888   0.00000  Uiso   1.00
O661   O     0.50000   0.68572   0.79071   0.00000  Uiso   1.00
O662   O     0.50000   0.81427   0.70928   0.00000  Uiso   1.00
O663   O     0.50000   0.68573   0.70928   0.00000  Uiso   1.00
O664   O     0.50000   0.81427   0.79072   0.00000  Uiso   1.00
C665   C     0.50049   0.66491   0.74997   0.00000  Uiso   1.00
C666   C     0.50053   0.83511   0.75017   0.00000  Uiso   1.00
O667   O     0.42495   0.74999   0.78132   0.00000  Uiso   1.00
O668   O     0.57505   0.75000   0.71868   0.00000  Uiso   1.00
O669   O     0.42495   0.75000   0.69988   0.00000  Uiso   1.00
O670   O     0.57505   0.75000   0.80011   0.00000  Uiso   1.00
C671   C     0.40137   0.74981   0.73771   0.00000  Uiso   1.00
C672   C     0.59863   0.75015   0.76229   0.00000  Uiso   1.00
Cu673  Cu    0.50000   0.74999   0.79821   0.00000  Uiso   1.00
Cu674  Cu    0.50000   0.75000   0.70178   0.00000  Uiso   1.00
C675   C     0.34668   0.74398   0.73170   0.00000  Uiso   1.00
C676   C     0.65332   0.75590   0.76831   0.00000  Uiso   1.00
C677   C     0.48743   0.54636   0.78629   0.00000  Uiso   1.00
C678   C     0.48885   0.95363   0.71024   0.00000  Uiso   1.00
H679   H     0.47028   0.52782   0.81337   0.00000  Uiso   1.00
H680   H     0.47280   0.97208   0.67834   0.00000  Uiso   1.00
C681   C     0.48364   0.59224   0.78592   0.00000  Uiso   1.00
C682   C     0.48507   0.90773   0.70952   0.00000  Uiso   1.00
H683   H     0.46430   0.60858   0.81311   0.00000  Uiso   1.00
H684   H     0.46682   0.89130   0.67689   0.00000  Uiso   1.00
C685   C     0.50365   0.61666   0.75006   0.00000  Uiso   1.00
C686   C     0.50370   0.88340   0.75096   0.00000  Uiso   1.00
C687   C     0.52836   0.59496   0.71505   0.00000  Uiso   1.00
C688   C     0.52697   0.90526   0.79292   0.00000  Uiso   1.00
H689   H     0.54492   0.61413   0.68807   0.00000  Uiso   1.00
H690   H     0.54248   0.88623   0.82457   0.00000  Uiso   1.00
C691   C     0.53416   0.54889   0.71605   0.00000  Uiso   1.00
C692   C     0.53270   0.95137   0.79362   0.00000  Uiso   1.00
C693   C     0.51270   0.52439   0.75180   0.00000  Uiso   1.00
C694   C     0.51270   0.97575   0.75185   0.00000  Uiso   1.00
C695   C     0.53965   0.77038   0.55912   0.00000  Uiso   1.00
C696   C     0.47544   0.71621   0.94275   0.00000  Uiso   1.00
H697   H     0.57180   0.78588   0.54534   0.00000  Uiso   1.00
H698   H     0.45674   0.68877   0.95822   0.00000  Uiso   1.00
C699   C     0.53867   0.77034   0.60973   0.00000  Uiso   1.00
C700   C     0.47557   0.71702   0.89204   0.00000  Uiso   1.00
H701   H     0.56921   0.78655   0.63333   0.00000  Uiso   1.00
H702   H     0.45616   0.69096   0.86981   0.00000  Uiso   1.00
N703   N     0.50000   0.75001   0.62934   0.00000  Uiso   1.00
N704   N     0.50000   0.74999   0.87065   0.00000  Uiso   1.00
C705   C     0.46135   0.72965   0.59967   0.00000  Uiso   1.00
C706   C     0.52435   0.78301   0.89852   0.00000  Uiso   1.00
H707   H     0.43084   0.71341   0.61533   0.00000  Uiso   1.00
H708   H     0.54371   0.80909   0.88144   0.00000  Uiso   1.00
C709   C     0.46037   0.72959   0.54880   0.00000  Uiso   1.00
C710   C     0.52445   0.78384   0.94928   0.00000  Uiso   1.00
H711   H     0.42823   0.71407   0.52667   0.00000  Uiso   1.00
H712   H     0.54313   0.81129   0.96973   0.00000  Uiso   1.00
C713   C     0.49999   0.75000   0.52734   0.00000  Uiso   1.00
C714   C     0.49997   0.75002   0.97264   0.00000  Uiso   1.00
N715   N     0.65717   0.71912   0.68978   0.00000  Uiso   1.00
O716   O     0.66434   0.73138   0.64624   0.00000  Uiso   1.00
O717   O     0.63564   0.68098   0.69554   0.00000  Uiso   1.00
N718   N     0.34284   0.78068   0.81028   0.00000  Uiso   1.00
O719   O     0.33590   0.76820   0.85381   0.00000  Uiso   1.00
O720   O     0.36415   0.81894   0.80461   0.00000  Uiso   1.00
N721   N     0.56284   0.52789   0.68169   0.00000  Uiso   1.00
O722   O     0.59164   0.99379   0.69441   0.00000  Uiso   1.00
O723   O     0.56506   0.54588   0.63940   0.00000  Uiso   1.00
N724   N     0.55981   0.97255   0.83614   0.00000  Uiso   1.00
O725   O     0.58910   0.50671   0.83187   0.00000  Uiso   1.00
O726   O     0.56002   0.95475   0.87888   0.00000  Uiso   1.00
O727   O     0.83334   0.68572   0.79071   0.00000  Uiso   1.00
O728   O     0.83333   0.81427   0.70928   0.00000  Uiso   1.00
O729   O     0.83334   0.68573   0.70928   0.00000  Uiso   1.00
O730   O     0.83333   0.81427   0.79072   0.00000  Uiso   1.00
C731   C     0.83383   0.66491   0.74997   0.00000  Uiso   1.00
C732   C     0.83387   0.83511   0.75017   0.00000  Uiso   1.00
O733   O     0.75828   0.74999   0.78132   0.00000  Uiso   1.00
O734   O     0.90839   0.75000   0.71868   0.00000  Uiso   1.00
O735   O     0.75828   0.75000   0.69988   0.00000  Uiso   1.00
O736   O     0.90839   0.75000   0.80011   0.00000  Uiso   1.00
C737   C     0.73470   0.74981   0.73771   0.00000  Uiso   1.00
C738   C     0.93196   0.75015   0.76229   0.00000  Uiso   1.00
Cu739  Cu    0.83333   0.74999   0.79821   0.00000  Uiso   1.00
Cu740  Cu    0.83333   0.75000   0.70178   0.00000  Uiso   1.00
C741   C     0.68001   0.74398   0.73170   0.00000  Uiso   1.00
C742   C     0.98665   0.75590   0.76831   0.00000  Uiso   1.00
C743   C     0.82076   0.54636   0.78629   0.00000  Uiso   1.00
C744   C     0.82218   0.95363   0.71024   0.00000  Uiso   1.00
H745   H     0.80361   0.52782   0.81337   0.00000  Uiso   1.00
H746   H     0.80613   0.97208   0.67834   0.00000  Uiso   1.00
C747   C     0.81697   0.59224   0.78592   0.00000  Uiso   1.00
C748   C     0.81840   0.90773   0.70952   0.00000  Uiso   1.00
H749   H     0.79763   0.60858   0.81311   0.00000  Uiso   1.00
H750   H     0.80015   0.89130   0.67689   0.00000  Uiso   1.00
C751   C     0.83699   0.61666   0.75006   0.00000  Uiso   1.00
C752   C     0.83703   0.88340   0.75096   0.00000  Uiso   1.00
C753   C     0.86169   0.59496   0.71505   0.00000  Uiso   1.00
C754   C     0.86031   0.90526   0.79292   0.00000  Uiso   1.00
H755   H     0.87825   0.61413   0.68807   0.00000  Uiso   1.00
H756   H     0.87581   0.88623   0.82457   0.00000  Uiso   1.00
C757   C     0.86750   0.54889   0.71605   0.00000  Uiso   1.00
C758   C     0.86603   0.95137   0.79362   0.00000  Uiso   1.00
C759   C     0.84603   0.52439   0.75180   0.00000  Uiso   1.00
C760   C     0.84603   0.97575   0.75185   0.00000  Uiso   1.00
C761   C     0.87298   0.77038   0.55912   0.00000  Uiso   1.00
C762   C     0.80878   0.71621   0.94275   0.00000  Uiso   1.00
H763   H     0.90513   0.78588   0.54534   0.00000  Uiso   1.00
H764   H     0.79007   0.68877   0.95822   0.00000  Uiso   1.00
C765   C     0.87201   0.77034   0.60973   0.00000  Uiso   1.00
C766   C     0.80890   0.71702   0.89204   0.00000  Uiso   1.00
H767   H     0.90255   0.78655   0.63333   0.00000  Uiso   1.00
H768   H     0.78949   0.69096   0.86981   0.00000  Uiso   1.00
N769   N     0.83333   0.75001   0.62934   0.00000  Uiso   1.00
N770   N     0.83333   0.74999   0.87065   0.00000  Uiso   1.00
C771   C     0.79468   0.72965   0.59967   0.00000  Uiso   1.00
C772   C     0.85768   0.78301   0.89852   0.00000  Uiso   1.00
H773   H     0.76417   0.71341   0.61533   0.00000  Uiso   1.00
H774   H     0.87704   0.80909   0.88144   0.00000  Uiso   1.00
C775   C     0.79370   0.72959   0.54880   0.00000  Uiso   1.00
C776   C     0.85779   0.78384   0.94928   0.00000  Uiso   1.00
H777   H     0.76156   0.71407   0.52667   0.00000  Uiso   1.00
H778   H     0.87646   0.81129   0.96973   0.00000  Uiso   1.00
C779   C     0.83333   0.75000   0.52734   0.00000  Uiso   1.00
C780   C     0.83330   0.75002   0.97264   0.00000  Uiso   1.00
N781   N     0.99050   0.71912   0.68978   0.00000  Uiso   1.00
O782   O     0.99767   0.73138   0.64624   0.00000  Uiso   1.00
O783   O     0.96897   0.68098   0.69554   0.00000  Uiso   1.00
N784   N     0.67617   0.78068   0.81028   0.00000  Uiso   1.00
O785   O     0.66924   0.76820   0.85381   0.00000  Uiso   1.00
O786   O     0.69748   0.81894   0.80461   0.00000  Uiso   1.00
N787   N     0.89618   0.52789   0.68169   0.00000  Uiso   1.00
O788   O     0.92497   0.99379   0.69441   0.00000  Uiso   1.00
O789   O     0.89840   0.54588   0.63940   0.00000  Uiso   1.00
N790   N     0.89315   0.97255   0.83614   0.00000  Uiso   1.00
O791   O     0.92243   0.50671   0.83187   0.00000  Uiso   1.00
O792   O     0.89336   0.95475   0.87888   0.00000  Uiso   1.00
loop_
_geom_bond_atom_site_label_1
_geom_bond_atom_site_label_2
_geom_bond_distance
_geom_bond_site_symmetry_2
_ccdc_geom_bond_type
O1     C5      1.292   .     A
O1     Cu13    1.950   .     S
O2     Cu14    1.950   .     S
O2     C6      1.293   .     A
O3     Cu14    1.951   .     S
O3     C5      1.291   .     A
O4     C6      1.291   .     A
O4     Cu13    1.951   .     S
C5     C25     1.459   .     S
C6     C26     1.459   .     S
O7     Cu13    1.971   .     S
O7     C11     1.282   .     A
O8     C12     1.282   .     A
O8     Cu14    1.971   .     S
O9     Cu14    1.972   .     S
O9     C11     1.289   .     A
O10    C12     1.289   .     A
O10    Cu13    1.972   .     S
C11    C15     1.439   .     S
C12    C16     1.439   .     S
Cu13   Cu14    2.673   .     S
Cu13   N44     2.008   .     S
Cu14   N43     2.008   .     S
C15    C148    1.359   1_455 S
C15    N187    1.442   1_455 S
C16    C81     1.359   .     S
C16    N124    1.442   .     S
C17    C33     1.403   .     A
C17    H19     1.084   .     S
C17    C21     1.388   .     A
C18    C22     1.388   .     A
C18    C34     1.403   .     A
C18    H20     1.084   .     S
C21    H23     1.083   .     S
C21    C25     1.398   .     A
C22    H24     1.083   .     S
C22    C26     1.398   .     A
C25    C27     1.401   .     A
C26    C28     1.402   .     A
C27    C31     1.399   .     A
C27    H29     1.084   .     S
C28    H30     1.084   .     S
C28    C32     1.399   .     A
C31    C33     1.415   .     A
C31    N61     1.440   .     S
C32    C34     1.415   .     A
C32    N64     1.440   .     S
C33    C232    1.468   1_545 S
C34    C231    1.468   .     S
C35    C53     1.411   .     A
C35    H37     1.081   .     S
C35    C39     1.407   .     A
C36    C54     1.411   .     A
C36    H38     1.081   .     S
C36    C40     1.406   .     A
C39    H41     1.081   .     S
C39    N43     1.364   .     A
C40    N44     1.364   .     A
C40    H42     1.081   .     S
N43    C45     1.364   .     A
N44    C46     1.364   .     A
C45    C49     1.407   .     A
C45    H47     1.081   .     S
C46    C50     1.407   .     A
C46    H48     1.081   .     S
C49    C53     1.411   .     A
C49    H51     1.081   .     S
C50    H52     1.081   .     S
C50    C54     1.411   .     A
C53    C450    1.516   1_554 S
C54    C449    1.516   .     S
N55    O56     1.301   .     A
N55    O57     1.302   .     A
N55    C81     1.442   .     S
N58    O59     1.301   .     A
N58    O60     1.302   .     A
N58    C148    1.442   1_455 S
N61    O63     1.302   .     A
N61    O260    1.301   1_545 S
O62    N259    1.301   .     S
N64    O66     1.302   .     A
N64    O263    1.302   .     S
O65    N262    1.302   1_545 S
O67    C71     1.292   .     A
O67    Cu79    1.950   .     S
O68    Cu80    1.950   .     S
O68    C72     1.293   .     A
O69    Cu80    1.951   .     S
O69    C71     1.291   .     A
O70    C72     1.291   .     A
O70    Cu79    1.951   .     S
C71    C91     1.459   .     S
C72    C92     1.459   .     S
O73    Cu79    1.971   .     S
O73    C77     1.282   .     A
O74    C78     1.282   .     A
O74    Cu80    1.971   .     S
O75    Cu80    1.972   .     S
O75    C77     1.289   .     A
O76    C78     1.289   .     A
O76    Cu79    1.972   .     S
C77    C81     1.439   .     S
C78    C82     1.439   .     S
Cu79   Cu80    2.673   .     S
Cu79   N110    2.008   .     S
Cu80   N109    2.008   .     S
C82    C147    1.359   .     S
C82    N190    1.442   .     S
C83    C99     1.403   .     A
C83    H85     1.084   .     S
C83    C87     1.388   .     A
C84    C88     1.388   .     A
C84    C100    1.403   .     A
C84    H86     1.084   .     S
C87    H89     1.083   .     S
C87    C91     1.398   .     A
C88    H90     1.083   .     S
C88    C92     1.398   .     A
C91    C93     1.401   .     A
C92    C94     1.402   .     A
C93    C97     1.399   .     A
C93    H95     1.084   .     S
C94    H96     1.084   .     S
C94    C98     1.399   .     A
C97    C99     1.415   .     A
C97    N127    1.440   .     S
C98    C100    1.415   .     A
C98    N130    1.440   .     S
C99    C298    1.468   1_545 S
C100   C297    1.468   .     S
C101   C119    1.411   .     A
C101   H103    1.081   .     S
C101   C105    1.407   .     A
C102   C120    1.411   .     A
C102   H104    1.081   .     S
C102   C106    1.406   .     A
C105   H107    1.081   .     S
C105   N109    1.364   .     A
C106   N110    1.364   .     A
C106   H108    1.081   .     S
N109   C111    1.364   .     A
N110   C112    1.364   .     A
C111   C115    1.407   .     A
C111   H113    1.081   .     S
C112   C116    1.407   .     A
C112   H114    1.081   .     S
C115   C119    1.411   .     A
C115   H117    1.081   .     S
C116   H118    1.081   .     S
C116   C120    1.411   .     A
C119   C516    1.516   1_554 S
C120   C515    1.516   .     S
N121   O122    1.301   .     A
N121   O123    1.302   .     A
N121   C147    1.442   .     S
N124   O125    1.301   .     A
N124   O126    1.302   .     A
N127   O129    1.302   .     A
N127   O326    1.301   1_545 S
O128   N325    1.301   .     S
N130   O132    1.302   .     A
N130   O329    1.302   .     S
O131   N328    1.302   1_545 S
O133   C137    1.292   .     A
O133   Cu145   1.950   .     S
O134   Cu146   1.950   .     S
O134   C138    1.293   .     A
O135   Cu146   1.951   .     S
O135   C137    1.291   .     A
O136   C138    1.291   .     A
O136   Cu145   1.951   .     S
C137   C157    1.459   .     S
C138   C158    1.459   .     S
O139   Cu145   1.971   .     S
O139   C143    1.282   .     A
O140   C144    1.282   .     A
O140   Cu146   1.971   .     S
O141   Cu146   1.972   .     S
O141   C143    1.289   .     A
O142   C144    1.289   .     A
O142   Cu145   1.972   .     S
C143   C147    1.439   .     S
C144   C148    1.439   .     S
Cu145  Cu146   2.673   .     S
Cu145  N176    2.008   .     S
Cu146  N175    2.008   .     S
C148   C15     1.359   1_655 S
C148   N58     1.442   1_655 S
C149   C165    1.403   .     A
C149   H151    1.084   .     S
C149   C153    1.388   .     A
C150   C154    1.388   .     A
C150   C166    1.403   .     A
C150   H152    1.084   .     S
C153   H155    1.083   .     S
C153   C157    1.398   .     A
C154   H156    1.083   .     S
C154   C158    1.398   .     A
C157   C159    1.401   .     A
C158   C160    1.402   .     A
C159   C163    1.399   .     A
C159   H161    1.084   .     S
C160   H162    1.084   .     S
C160   C164    1.399   .     A
C163   C165    1.415   .     A
C163   N193    1.440   .     S
C164   C166    1.415   .     A
C164   N196    1.440   .     S
C165   C364    1.468   1_545 S
C166   C363    1.468   .     S
C167   C185    1.411   .     A
C167   H169    1.081   .     S
C167   C171    1.407   .     A
C168   C186    1.411   .     A
C168   H170    1.081   .     S
C168   C172    1.406   .     A
C171   H173    1.081   .     S
C171   N175    1.364   .     A
C172   N176    1.364   .     A
C172   H174    1.081   .     S
N175   C177    1.364   .     A
N176   C178    1.364   .     A
C177   C181    1.407   .     A
C177   H179    1.081   .     S
C178   C182    1.407   .     A
C178   H180    1.081   .     S
C181   C185    1.411   .     A
C181   H183    1.081   .     S
C182   H184    1.081   .     S
C182   C186    1.411   .     A
C185   C582    1.516   1_554 S
C186   C581    1.516   .     S
N187   O188    1.301   .     A
N187   O189    1.302   .     A
N187   C15     1.442   1_655 S
N190   O191    1.301   .     A
N190   O192    1.302   .     A
N193   O195    1.302   .     A
N193   O392    1.301   1_545 S
O194   N391    1.301   .     S
N196   O198    1.302   .     A
N196   O395    1.302   .     S
O197   N394    1.302   1_545 S
O199   C203    1.292   .     A
O199   Cu211   1.950   .     S
O200   Cu212   1.950   .     S
O200   C204    1.293   .     A
O201   Cu212   1.951   .     S
O201   C203    1.291   .     A
O202   C204    1.291   .     A
O202   Cu211   1.951   .     S
C203   C223    1.459   .     S
C204   C224    1.459   .     S
O205   Cu211   1.971   .     S
O205   C209    1.282   .     A
O206   C210    1.282   .     A
O206   Cu212   1.971   .     S
O207   Cu212   1.972   .     S
O207   C209    1.289   .     A
O208   C210    1.289   .     A
O208   Cu211   1.972   .     S
C209   C213    1.439   .     S
C210   C214    1.439   .     S
Cu211  Cu212   2.673   .     S
Cu211  N242    2.008   .     S
Cu212  N241    2.008   .     S
C213   C346    1.359   1_455 S
C213   N385    1.442   1_455 S
C214   C279    1.359   .     S
C214   N322    1.442   .     S
C215   C231    1.403   .     A
C215   H217    1.084   .     S
C215   C219    1.388   .     A
C216   C220    1.388   .     A
C216   C232    1.403   .     A
C216   H218    1.084   .     S
C219   H221    1.083   .     S
C219   C223    1.398   .     A
C220   H222    1.083   .     S
C220   C224    1.398   .     A
C223   C225    1.401   .     A
C224   C226    1.402   .     A
C225   C229    1.399   .     A
C225   H227    1.084   .     S
C226   H228    1.084   .     S
C226   C230    1.399   .     A
C229   C231    1.415   .     A
C229   N259    1.440   .     S
C230   C232    1.415   .     A
C230   N262    1.440   .     S
C232   C33     1.468   1_565 S
C233   C251    1.411   .     A
C233   H235    1.081   .     S
C233   C237    1.407   .     A
C234   C252    1.411   .     A
C234   H236    1.081   .     S
C234   C238    1.406   .     A
C237   H239    1.081   .     S
C237   N241    1.364   .     A
C238   N242    1.364   .     A
C238   H240    1.081   .     S
N241   C243    1.364   .     A
N242   C244    1.364   .     A
C243   C247    1.407   .     A
C243   H245    1.081   .     S
C244   C248    1.407   .     A
C244   H246    1.081   .     S
C247   C251    1.411   .     A
C247   H249    1.081   .     S
C248   H250    1.081   .     S
C248   C252    1.411   .     A
C251   C648    1.516   1_554 S
C252   C647    1.516   .     S
N253   O254    1.301   .     A
N253   O255    1.302   .     A
N253   C279    1.442   .     S
N256   O257    1.301   .     A
N256   O258    1.302   .     A
N256   C346    1.442   1_455 S
N259   O261    1.302   .     A
O260   N61     1.301   1_565 S
N262   O264    1.302   .     A
N262   O65     1.302   1_565 S
O265   C269    1.292   .     A
O265   Cu277   1.950   .     S
O266   Cu278   1.950   .     S
O266   C270    1.293   .     A
O267   Cu278   1.951   .     S
O267   C269    1.291   .     A
O268   C270    1.291   .     A
O268   Cu277   1.951   .     S
C269   C289    1.459   .     S
C270   C290    1.459   .     S
O271   Cu277   1.971   .     S
O271   C275    1.282   .     A
O272   C276    1.282   .     A
O272   Cu278   1.971   .     S
O273   Cu278   1.972   .     S
O273   C275    1.289   .     A
O274   C276    1.289   .     A
O274   Cu277   1.972   .     S
C275   C279    1.439   .     S
C276   C280    1.439   .     S
Cu277  Cu278   2.673   .     S
Cu277  N308    2.008   .     S
Cu278  N307    2.008   .     S
C280   C345    1.359   .     S
C280   N388    1.442   .     S
C281   C297    1.403   .     A
C281   H283    1.084   .     S
C281   C285    1.388   .     A
C282   C286    1.388   .     A
C282   C298    1.403   .     A
C282   H284    1.084   .     S
C285   H287    1.083   .     S
C285   C289    1.398   .     A
C286   H288    1.083   .     S
C286   C290    1.398   .     A
C289   C291    1.401   .     A
C290   C292    1.402   .     A
C291   C295    1.399   .     A
C291   H293    1.084   .     S
C292   H294    1.084   .     S
C292   C296    1.399   .     A
C295   C297    1.415   .     A
C295   N325    1.440   .     S
C296   C298    1.415   .     A
C296   N328    1.440   .     S
C298   C99     1.468   1_565 S
C299   C317    1.411   .     A
C299   H301    1.081   .     S
C299   C303    1.407   .     A
C300   C318    1.411   .     A
C300   H302    1.081   .     S
C300   C304    1.406   .     A
C303   H305    1.081   .     S
C303   N307    1.364   .     A
C304   N308    1.364   .     A
C304   H306    1.081   .     S
N307   C309    1.364   .     A
N308   C310    1.364   .     A
C309   C313    1.407   .     A
C309   H311    1.081   .     S
C310   C314    1.407   .     A
C310   H312    1.081   .     S
C313   C317    1.411   .     A
C313   H315    1.081   .     S
C314   H316    1.081   .     S
C314   C318    1.411   .     A
C317   C714    1.516   1_554 S
C318   C713    1.516   .     S
N319   O320    1.301   .     A
N319   O321    1.302   .     A
N319   C345    1.442   .     S
N322   O323    1.301   .     A
N322   O324    1.302   .     A
N325   O327    1.302   .     A
O326   N127    1.301   1_565 S
N328   O330    1.302   .     A
N328   O131    1.302   1_565 S
O331   C335    1.292   .     A
O331   Cu343   1.950   .     S
O332   Cu344   1.950   .     S
O332   C336    1.293   .     A
O333   Cu344   1.951   .     S
O333   C335    1.291   .     A
O334   C336    1.291   .     A
O334   Cu343   1.951   .     S
C335   C355    1.459   .     S
C336   C356    1.459   .     S
O337   Cu343   1.971   .     S
O337   C341    1.282   .     A
O338   C342    1.282   .     A
O338   Cu344   1.971   .     S
O339   Cu344   1.972   .     S
O339   C341    1.289   .     A
O340   C342    1.289   .     A
O340   Cu343   1.972   .     S
C341   C345    1.439   .     S
C342   C346    1.439   .     S
Cu343  Cu344   2.673   .     S
Cu343  N374    2.008   .     S
Cu344  N373    2.008   .     S
C346   C213    1.359   1_655 S
C346   N256    1.442   1_655 S
C347   C363    1.403   .     A
C347   H349    1.084   .     S
C347   C351    1.388   .     A
C348   C352    1.388   .     A
C348   C364    1.403   .     A
C348   H350    1.084   .     S
C351   H353    1.083   .     S
C351   C355    1.398   .     A
C352   H354    1.083   .     S
C352   C356    1.398   .     A
C355   C357    1.401   .     A
C356   C358    1.402   .     A
C357   C361    1.399   .     A
C357   H359    1.084   .     S
C358   H360    1.084   .     S
C358   C362    1.399   .     A
C361   C363    1.415   .     A
C361   N391    1.440   .     S
C362   C364    1.415   .     A
C362   N394    1.440   .     S
C364   C165    1.468   1_565 S
C365   C383    1.411   .     A
C365   H367    1.081   .     S
C365   C369    1.407   .     A
C366   C384    1.411   .     A
C366   H368    1.081   .     S
C366   C370    1.406   .     A
C369   H371    1.081   .     S
C369   N373    1.364   .     A
C370   N374    1.364   .     A
C370   H372    1.081   .     S
N373   C375    1.364   .     A
N374   C376    1.364   .     A
C375   C379    1.407   .     A
C375   H377    1.081   .     S
C376   C380    1.407   .     A
C376   H378    1.081   .     S
C379   C383    1.411   .     A
C379   H381    1.081   .     S
C380   H382    1.081   .     S
C380   C384    1.411   .     A
C383   C780    1.516   1_554 S
C384   C779    1.516   .     S
N385   O386    1.301   .     A
N385   O387    1.302   .     A
N385   C213    1.442   1_655 S
N388   O389    1.301   .     A
N388   O390    1.302   .     A
N391   O393    1.302   .     A
O392   N193    1.301   1_565 S
N394   O396    1.302   .     A
N394   O197    1.302   1_565 S
O397   C401    1.292   .     A
O397   Cu409   1.950   .     S
O398   Cu410   1.950   .     S
O398   C402    1.293   .     A
O399   Cu410   1.951   .     S
O399   C401    1.291   .     A
O400   C402    1.291   .     A
O400   Cu409   1.951   .     S
C401   C421    1.459   .     S
C402   C422    1.459   .     S
O403   Cu409   1.971   .     S
O403   C407    1.282   .     A
O404   C408    1.282   .     A
O404   Cu410   1.971   .     S
O405   Cu410   1.972   .     S
O405   C407    1.289   .     A
O406   C408    1.289   .     A
O406   Cu409   1.972   .     S
C407   C411    1.439   .     S
C408   C412    1.439   .     S
Cu409  Cu410   2.673   .     S
Cu409  N440    2.008   .     S
Cu410  N439    2.008   .     S
C411   C544    1.359   1_455 S
C411   N583    1.442   1_455 S
C412   C477    1.359   .     S
C412   N520    1.442   .     S
C413   C429    1.403   .     A
C413   H415    1.084   .     S
C413   C417    1.388   .     A
C414   C418    1.388   .     A
C414   C430    1.403   .     A
C414   H416    1.084   .     S
C417   H419    1.083   .     S
C417   C421    1.398   .     A
C418   H420    1.083   .     S
C418   C422    1.398   .     A
C421   C423    1.401   .     A
C422   C424    1.402   .     A
C423   C427    1.399   .     A
C423   H425    1.084   .     S
C424   H426    1.084   .     S
C424   C428    1.399   .     A
C427   C429    1.415   .     A
C427   N457    1.440   .     S
C428   C430    1.415   .     A
C428   N460    1.440   .     S
C429   C628    1.468   1_545 S
C430   C627    1.468   .     S
C431   C449    1.411   .     A
C431   H433    1.081   .     S
C431   C435    1.407   .     A
C432   C450    1.411   .     A
C432   H434    1.081   .     S
C432   C436    1.406   .     A
C435   H437    1.081   .     S
C435   N439    1.364   .     A
C436   N440    1.364   .     A
C436   H438    1.081   .     S
N439   C441    1.364   .     A
N440   C442    1.364   .     A
C441   C445    1.407   .     A
C441   H443    1.081   .     S
C442   C446    1.407   .     A
C442   H444    1.081   .     S
C445   C449    1.411   .     A
C445   H447    1.081   .     S
C446   H448    1.081   .     S
C446   C450    1.411   .     A
C450   C53     1.516   1_556 S
N451   O452    1.301   .     A
N451   O453    1.302   .     A
N451   C477    1.442   .     S
N454   O455    1.301   .     A
N454   O456    1.302   .     A
N454   C544    1.442   1_455 S
N457   O459    1.302   .     A
N457   O656    1.301   1_545 S
O458   N655    1.301   .     S
N460   O462    1.302   .     A
N460   O659    1.302   .     S
O461   N658    1.302   1_545 S
O463   C467    1.292   .     A
O463   Cu475   1.950   .     S
O464   Cu476   1.950   .     S
O464   C468    1.293   .     A
O465   Cu476   1.951   .     S
O465   C467    1.291   .     A
O466   C468    1.291   .     A
O466   Cu475   1.951   .     S
C467   C487    1.459   .     S
C468   C488    1.459   .     S
O469   Cu475   1.971   .     S
O469   C473    1.282   .     A
O470   C474    1.282   .     A
O470   Cu476   1.971   .     S
O471   Cu476   1.972   .     S
O471   C473    1.289   .     A
O472   C474    1.289   .     A
O472   Cu475   1.972   .     S
C473   C477    1.439   .     S
C474   C478    1.439   .     S
Cu475  Cu476   2.673   .     S
Cu475  N506    2.008   .     S
Cu476  N505    2.008   .     S
C478   C543    1.359   .     S
C478   N586    1.442   .     S
C479   C495    1.403   .     A
C479   H481    1.084   .     S
C479   C483    1.388   .     A
C480   C484    1.388   .     A
C480   C496    1.403   .     A
C480   H482    1.084   .     S
C483   H485    1.083   .     S
C483   C487    1.398   .     A
C484   H486    1.083   .     S
C484   C488    1.398   .     A
C487   C489    1.401   .     A
C488   C490    1.402   .     A
C489   C493    1.399   .     A
C489   H491    1.084   .     S
C490   H492    1.084   .     S
C490   C494    1.399   .     A
C493   C495    1.415   .     A
C493   N523    1.440   .     S
C494   C496    1.415   .     A
C494   N526    1.440   .     S
C495   C694    1.468   1_545 S
C496   C693    1.468   .     S
C497   C515    1.411   .     A
C497   H499    1.081   .     S
C497   C501    1.407   .     A
C498   C516    1.411   .     A
C498   H500    1.081   .     S
C498   C502    1.406   .     A
C501   H503    1.081   .     S
C501   N505    1.364   .     A
C502   N506    1.364   .     A
C502   H504    1.081   .     S
N505   C507    1.364   .     A
N506   C508    1.364   .     A
C507   C511    1.407   .     A
C507   H509    1.081   .     S
C508   C512    1.407   .     A
C508   H510    1.081   .     S
C511   C515    1.411   .     A
C511   H513    1.081   .     S
C512   H514    1.081   .     S
C512   C516    1.411   .     A
C516   C119    1.516   1_556 S
N517   O518    1.301   .     A
N517   O519    1.302   .     A
N517   C543    1.442   .     S
N520   O521    1.301   .     A
N520   O522    1.302   .     A
N523   O525    1.302   .     A
N523   O722    1.301   1_545 S
O524   N721    1.301   .     S
N526   O528    1.302   .     A
N526   O725    1.302   .     S
O527   N724    1.302   1_545 S
O529   C533    1.292   .     A
O529   Cu541   1.950   .     S
O530   Cu542   1.950   .     S
O530   C534    1.293   .     A
O531   Cu542   1.951   .     S
O531   C533    1.291   .     A
O532   C534    1.291   .     A
O532   Cu541   1.951   .     S
C533   C553    1.459   .     S
C534   C554    1.459   .     S
O535   Cu541   1.971   .     S
O535   C539    1.282   .     A
O536   C540    1.282   .     A
O536   Cu542   1.971   .     S
O537   Cu542   1.972   .     S
O537   C539    1.289   .     A
O538   C540    1.289   .     A
O538   Cu541   1.972   .     S
C539   C543    1.439   .     S
C540   C544    1.439   .     S
Cu541  Cu542   2.673   .     S
Cu541  N572    2.008   .     S
Cu542  N571    2.008   .     S
C544   C411    1.359   1_655 S
C544   N454    1.442   1_655 S
C545   C561    1.403   .     A
C545   H547    1.084   .     S
C545   C549    1.388   .     A
C546   C550    1.388   .     A
C546   C562    1.403   .     A
C546   H548    1.084   .     S
C549   H551    1.083   .     S
C549   C553    1.398   .     A
C550   H552    1.083   .     S
C550   C554    1.398   .     A
C553   C555    1.401   .     A
C554   C556    1.402   .     A
C555   C559    1.399   .     A
C555   H557    1.084   .     S
C556   H558    1.084   .     S
C556   C560    1.399   .     A
C559   C561    1.415   .     A
C559   N589    1.440   .     S
C560   C562    1.415   .     A
C560   N592    1.440   .     S
C561   C760    1.468   1_545 S
C562   C759    1.468   .     S
C563   C581    1.411   .     A
C563   H565    1.081   .     S
C563   C567    1.407   .     A
C564   C582    1.411   .     A
C564   H566    1.081   .     S
C564   C568    1.406   .     A
C567   H569    1.081   .     S
C567   N571    1.364   .     A
C568   N572    1.364   .     A
C568   H570    1.081   .     S
N571   C573    1.364   .     A
N572   C574    1.364   .     A
C573   C577    1.407   .     A
C573   H575    1.081   .     S
C574   C578    1.407   .     A
C574   H576    1.081   .     S
C577   C581    1.411   .     A
C577   H579    1.081   .     S
C578   H580    1.081   .     S
C578   C582    1.411   .     A
C582   C185    1.516   1_556 S
N583   O584    1.301   .     A
N583   O585    1.302   .     A
N583   C411    1.442   1_655 S
N586   O587    1.301   .     A
N586   O588    1.302   .     A
N589   O591    1.302   .     A
N589   O788    1.301   1_545 S
O590   N787    1.301   .     S
N592   O594    1.302   .     A
N592   O791    1.302   .     S
O593   N790    1.302   1_545 S
O595   C599    1.292   .     A
O595   Cu607   1.950   .     S
O596   Cu608   1.950   .     S
O596   C600    1.293   .     A
O597   Cu608   1.951   .     S
O597   C599    1.291   .     A
O598   C600    1.291   .     A
O598   Cu607   1.951   .     S
C599   C619    1.459   .     S
C600   C620    1.459   .     S
O601   Cu607   1.971   .     S
O601   C605    1.282   .     A
O602   C606    1.282   .     A
O602   Cu608   1.971   .     S
O603   Cu608   1.972   .     S
O603   C605    1.289   .     A
O604   C606    1.289   .     A
O604   Cu607   1.972   .     S
C605   C609    1.439   .     S
C606   C610    1.439   .     S
Cu607  Cu608   2.673   .     S
Cu607  N638    2.008   .     S
Cu608  N637    2.008   .     S
C609   C742    1.359   1_455 S
C609   N781    1.442   1_455 S
C610   C675    1.359   .     S
C610   N718    1.442   .     S
C611   C627    1.403   .     A
C611   H613    1.084   .     S
C611   C615    1.388   .     A
C612   C616    1.388   .     A
C612   C628    1.403   .     A
C612   H614    1.084   .     S
C615   H617    1.083   .     S
C615   C619    1.398   .     A
C616   H618    1.083   .     S
C616   C620    1.398   .     A
C619   C621    1.401   .     A
C620   C622    1.402   .     A
C621   C625    1.399   .     A
C621   H623    1.084   .     S
C622   H624    1.084   .     S
C622   C626    1.399   .     A
C625   C627    1.415   .     A
C625   N655    1.440   .     S
C626   C628    1.415   .     A
C626   N658    1.440   .     S
C628   C429    1.468   1_565 S
C629   C647    1.411   .     A
C629   H631    1.081   .     S
C629   C633    1.407   .     A
C630   C648    1.411   .     A
C630   H632    1.081   .     S
C630   C634    1.406   .     A
C633   H635    1.081   .     S
C633   N637    1.364   .     A
C634   N638    1.364   .     A
C634   H636    1.081   .     S
N637   C639    1.364   .     A
N638   C640    1.364   .     A
C639   C643    1.407   .     A
C639   H641    1.081   .     S
C640   C644    1.407   .     A
C640   H642    1.081   .     S
C643   C647    1.411   .     A
C643   H645    1.081   .     S
C644   H646    1.081   .     S
C644   C648    1.411   .     A
C648   C251    1.516   1_556 S
N649   O650    1.301   .     A
N649   O651    1.302   .     A
N649   C675    1.442   .     S
N652   O653    1.301   .     A
N652   O654    1.302   .     A
N652   C742    1.442   1_455 S
N655   O657    1.302   .     A
O656   N457    1.301   1_565 S
N658   O660    1.302   .     A
N658   O461    1.302   1_565 S
O661   C665    1.292   .     A
O661   Cu673   1.950   .     S
O662   Cu674   1.950   .     S
O662   C666    1.293   .     A
O663   Cu674   1.951   .     S
O663   C665    1.291   .     A
O664   C666    1.291   .     A
O664   Cu673   1.951   .     S
C665   C685    1.459   .     S
C666   C686    1.459   .     S
O667   Cu673   1.971   .     S
O667   C671    1.282   .     A
O668   C672    1.282   .     A
O668   Cu674   1.971   .     S
O669   Cu674   1.972   .     S
O669   C671    1.289   .     A
O670   C672    1.289   .     A
O670   Cu673   1.972   .     S
C671   C675    1.439   .     S
C672   C676    1.439   .     S
Cu673  Cu674   2.673   .     S
Cu673  N704    2.008   .     S
Cu674  N703    2.008   .     S
C676   C741    1.359   .     S
C676   N784    1.442   .     S
C677   C693    1.403   .     A
C677   H679    1.084   .     S
C677   C681    1.388   .     A
C678   C682    1.388   .     A
C678   C694    1.403   .     A
C678   H680    1.084   .     S
C681   H683    1.083   .     S
C681   C685    1.398   .     A
C682   H684    1.083   .     S
C682   C686    1.398   .     A
C685   C687    1.401   .     A
C686   C688    1.402   .     A
C687   C691    1.399   .     A
C687   H689    1.084   .     S
C688   H690    1.084   .     S
C688   C692    1.399   .     A
C691   C693    1.415   .     A
C691   N721    1.440   .     S
C692   C694    1.415   .     A
C692   N724    1.440   .     S
C694   C495    1.468   1_565 S
C695   C713    1.411   .     A
C695   H697    1.081   .     S
C695   C699    1.407   .     A
C696   C714    1.411   .     A
C696   H698    1.081   .     S
C696   C700    1.406   .     A
C699   H701    1.081   .     S
C699   N703    1.364   .     A
C700   N704    1.364   .     A
C700   H702    1.081   .     S
N703   C705    1.364   .     A
N704   C706    1.364   .     A
C705   C709    1.407   .     A
C705   H707    1.081   .     S
C706   C710    1.407   .     A
C706   H708    1.081   .     S
C709   C713    1.411   .     A
C709   H711    1.081   .     S
C710   H712    1.081   .     S
C710   C714    1.411   .     A
C714   C317    1.516   1_556 S
N715   O716    1.301   .     A
N715   O717    1.302   .     A
N715   C741    1.442   .     S
N718   O719    1.301   .     A
N718   O720    1.302   .     A
N721   O723    1.302   .     A
O722   N523    1.301   1_565 S
N724   O726    1.302   .     A
N724   O527    1.302   1_565 S
O727   C731    1.292   .     A
O727   Cu739   1.950   .     S
O728   Cu740   1.950   .     S
O728   C732    1.293   .     A
O729   Cu740   1.951   .     S
O729   C731    1.291   .     A
O730   C732    1.291   .     A
O730   Cu739   1.951   .     S
C731   C751    1.459   .     S
C732   C752    1.459   .     S
O733   Cu739   1.971   .     S
O733   C737    1.282   .     A
O734   C738    1.282   .     A
O734   Cu740   1.971   .     S
O735   Cu740   1.972   .     S
O735   C737    1.289   .     A
O736   C738    1.289   .     A
O736   Cu739   1.972   .     S
C737   C741    1.439   .     S
C738   C742    1.439   .     S
Cu739  Cu740   2.673   .     S
Cu739  N770    2.008   .     S
Cu740  N769    2.008   .     S
C742   C609    1.359   1_655 S
C742   N652    1.442   1_655 S
C743   C759    1.403   .     A
C743   H745    1.084   .     S
C743   C747    1.388   .     A
C744   C748    1.388   .     A
C744   C760    1.403   .     A
C744   H746    1.084   .     S
C747   H749    1.083   .     S
C747   C751    1.398   .     A
C748   H750    1.083   .     S
C748   C752    1.398   .     A
C751   C753    1.401   .     A
C752   C754    1.402   .     A
C753   C757    1.399   .     A
C753   H755    1.084   .     S
C754   H756    1.084   .     S
C754   C758    1.399   .     A
C757   C759    1.415   .     A
C757   N787    1.440   .     S
C758   C760    1.415   .     A
C758   N790    1.440   .     S
C760   C561    1.468   1_565 S
C761   C779    1.411   .     A
C761   H763    1.081   .     S
C761   C765    1.407   .     A
C762   C780    1.411   .     A
C762   H764    1.081   .     S
C762   C766    1.406   .     A
C765   H767    1.081   .     S
C765   N769    1.364   .     A
C766   N770    1.364   .     A
C766   H768    1.081   .     S
N769   C771    1.364   .     A
N770   C772    1.364   .     A
C771   C775    1.407   .     A
C771   H773    1.081   .     S
C772   C776    1.407   .     A
C772   H774    1.081   .     S
C775   C779    1.411   .     A
C775   H777    1.081   .     S
C776   H778    1.081   .     S
C776   C780    1.411   .     A
C780   C383    1.516   1_556 S
N781   O782    1.301   .     A
N781   O783    1.302   .     A
N781   C609    1.442   1_655 S
N784   O785    1.301   .     A
N784   O786    1.302   .     A
N787   O789    1.302   .     A
O788   N589    1.301   1_565 S
N790   O792    1.302   .     A
N790   O593    1.302   1_565 S
