data_str_m3_o2_o5_pcu_sym.94
_audit_creation_date              2020-01-03
_audit_creation_method            'Materials Studio'
_symmetry_space_group_name_H-M    'P1'
_symmetry_Int_Tables_number       1
_symmetry_cell_setting            triclinic
loop_
_symmetry_equiv_pos_as_xyz
  x,y,z
_cell_length_a                    30.0042
_cell_length_b                    28.6315
_cell_length_c                    26.7002
_cell_angle_alpha                 90.0041
_cell_angle_beta                  91.9776
_cell_angle_gamma                 90.0069
loop_
_atom_site_label
_atom_site_type_symbol
_atom_site_fract_x
_atom_site_fract_y
_atom_site_fract_z
_atom_site_U_iso_or_equiv
_atom_site_adp_type
_atom_site_occupancy
C1     C     0.16419   0.24994   0.16638   0.00000  Uiso   1.00
C2     C     0.22921   0.44773   0.12772   0.00000  Uiso   1.00
C3     C     0.24988   0.25000   0.07296   0.00000  Uiso   1.00
C4     C     0.25012   0.25000   0.26037   0.00000  Uiso   1.00
C5     C     0.25000   0.02655   0.16666   0.00000  Uiso   1.00
C6     C     0.25000   0.47351   0.16666   0.00000  Uiso   1.00
C7     C     0.24995   0.25000   0.02182   0.00000  Uiso   1.00
C8     C     0.25004   0.25000   0.31152   0.00000  Uiso   1.00
C9     C     0.04625   0.27511   0.12792   0.00000  Uiso   1.00
C10    C     0.45177   0.22689   0.12819   0.00000  Uiso   1.00
C11    C     0.45387   0.27557   0.20455   0.00000  Uiso   1.00
C12    C     0.33582   0.24994   0.16692   0.00000  Uiso   1.00
C13    C     0.04812   0.22714   0.20479   0.00000  Uiso   1.00
C14    C     0.09233   0.27130   0.12575   0.00000  Uiso   1.00
C15    C     0.40532   0.22821   0.12728   0.00000  Uiso   1.00
C16    C     0.40781   0.27171   0.20700   0.00000  Uiso   1.00
C17    C     0.09457   0.22849   0.20589   0.00000  Uiso   1.00
C18    C     0.11630   0.24969   0.16577   0.00000  Uiso   1.00
C19    C     0.38371   0.24971   0.16732   0.00000  Uiso   1.00
C20    C     0.02418   0.25167   0.16651   0.00000  Uiso   1.00
C21    C     0.47582   0.25176   0.16614   0.00000  Uiso   1.00
C22    C     0.11461   0.29016   0.07986   0.00000  Uiso   1.00
C23    C     0.21651   0.10150   0.14176   0.00000  Uiso   1.00
C24    C     0.37877   0.20655   0.08378   0.00000  Uiso   1.00
C25    C     0.38570   0.29091   0.25284   0.00000  Uiso   1.00
C26    C     0.12100   0.20719   0.24969   0.00000  Uiso   1.00
C27    C     0.27182   0.39856   0.20450   0.00000  Uiso   1.00
C28    C     0.28349   0.10151   0.19157   0.00000  Uiso   1.00
C29    C     0.22817   0.39854   0.12883   0.00000  Uiso   1.00
C30    C     0.21553   0.05232   0.14290   0.00000  Uiso   1.00
C31    C     0.27079   0.44774   0.20560   0.00000  Uiso   1.00
C32    C     0.28447   0.05233   0.19042   0.00000  Uiso   1.00
H33    H     0.18764   0.03462   0.12448   0.00000  Uiso   1.00
H34    H     0.00349   0.19399   0.10220   0.00000  Uiso   1.00
H35    H     0.00639   0.30992   0.23016   0.00000  Uiso   1.00
H36    H     0.49635   0.19437   0.23083   0.00000  Uiso   1.00
H37    H     0.14985   0.27917   0.07734   0.00000  Uiso   1.00
H38    H     0.09712   0.27673   0.04544   0.00000  Uiso   1.00
H39    H     0.11289   0.32889   0.07975   0.00000  Uiso   1.00
H40    H     0.35437   0.23227   0.06807   0.00000  Uiso   1.00
H41    H     0.39989   0.19568   0.05255   0.00000  Uiso   1.00
H42    H     0.36074   0.17516   0.09668   0.00000  Uiso   1.00
H43    H     0.35058   0.27963   0.25579   0.00000  Uiso   1.00
H44    H     0.28692   0.46543   0.23712   0.00000  Uiso   1.00
H45    H     0.40351   0.27803   0.28730   0.00000  Uiso   1.00
H46    H     0.38713   0.32965   0.25241   0.00000  Uiso   1.00
H47    H     0.14526   0.23311   0.26534   0.00000  Uiso   1.00
H48    H     0.09978   0.19644   0.28088   0.00000  Uiso   1.00
H49    H     0.13919   0.17580   0.23712   0.00000  Uiso   1.00
H50    H     0.31236   0.03464   0.20884   0.00000  Uiso   1.00
H51    H     0.21307   0.46541   0.09621   0.00000  Uiso   1.00
H52    H     0.19396   0.15380   0.10392   0.00000  Uiso   1.00
H53    H     0.30537   0.34646   0.22971   0.00000  Uiso   1.00
H54    H     0.30604   0.15381   0.22942   0.00000  Uiso   1.00
H55    H     0.19458   0.34644   0.10364   0.00000  Uiso   1.00
H56    H     0.49375   0.30908   0.10162   0.00000  Uiso   1.00
N57    N     0.25000   0.12623   0.16667   0.00000  Uiso   1.00
N58    N     0.25000   0.37376   0.16667   0.00000  Uiso   1.00
O59    O     0.18453   0.28974   0.16667   0.00000  Uiso   1.00
O60    O     0.29558   0.37675   0.24259   0.00000  Uiso   1.00
O61    O     0.31728   0.12335   0.21852   0.00000  Uiso   1.00
O62    O     0.20440   0.37672   0.09075   0.00000  Uiso   1.00
O63    O     0.02386   0.30056   0.09076   0.00000  Uiso   1.00
O64    O     0.47246   0.20148   0.09143   0.00000  Uiso   1.00
O65    O     0.47637   0.30141   0.24131   0.00000  Uiso   1.00
O66    O     0.02731   0.20206   0.24172   0.00000  Uiso   1.00
O67    O     0.31547   0.21026   0.16666   0.00000  Uiso   1.00
O68    O     0.31547   0.28974   0.16666   0.00000  Uiso   1.00
O69    O     0.18453   0.21026   0.16667   0.00000  Uiso   1.00
O70    O     0.25000   0.28973   0.09511   0.00000  Uiso   1.00
O71    O     0.25000   0.21027   0.23822   0.00000  Uiso   1.00
O72    O     0.25000   0.28973   0.23822   0.00000  Uiso   1.00
O73    O     0.25000   0.21027   0.09511   0.00000  Uiso   1.00
O74    O     0.18272   0.12333   0.11481   0.00000  Uiso   1.00
Zn75   Zn    0.25000   0.30307   0.16667   0.00000  Uiso   1.00
Zn76   Zn    0.25000   0.19693   0.16667   0.00000  Uiso   1.00
C77    C     0.66419   0.24994   0.16638   0.00000  Uiso   1.00
C78    C     0.72921   0.44773   0.12772   0.00000  Uiso   1.00
C79    C     0.74988   0.25000   0.07296   0.00000  Uiso   1.00
C80    C     0.75012   0.25000   0.26037   0.00000  Uiso   1.00
C81    C     0.75000   0.02655   0.16666   0.00000  Uiso   1.00
C82    C     0.75000   0.47351   0.16666   0.00000  Uiso   1.00
C83    C     0.74995   0.25000   0.02182   0.00000  Uiso   1.00
C84    C     0.75004   0.25000   0.31152   0.00000  Uiso   1.00
C85    C     0.54625   0.27511   0.12792   0.00000  Uiso   1.00
C86    C     0.95177   0.22689   0.12819   0.00000  Uiso   1.00
C87    C     0.95387   0.27557   0.20455   0.00000  Uiso   1.00
C88    C     0.83582   0.24994   0.16692   0.00000  Uiso   1.00
C89    C     0.54812   0.22714   0.20479   0.00000  Uiso   1.00
C90    C     0.59233   0.27130   0.12575   0.00000  Uiso   1.00
C91    C     0.90532   0.22821   0.12728   0.00000  Uiso   1.00
C92    C     0.90781   0.27171   0.20700   0.00000  Uiso   1.00
C93    C     0.59457   0.22849   0.20589   0.00000  Uiso   1.00
C94    C     0.61630   0.24969   0.16577   0.00000  Uiso   1.00
C95    C     0.88371   0.24971   0.16732   0.00000  Uiso   1.00
C96    C     0.52418   0.25167   0.16651   0.00000  Uiso   1.00
C97    C     0.97582   0.25176   0.16614   0.00000  Uiso   1.00
C98    C     0.61461   0.29016   0.07986   0.00000  Uiso   1.00
C99    C     0.71651   0.10150   0.14176   0.00000  Uiso   1.00
C100   C     0.87877   0.20655   0.08378   0.00000  Uiso   1.00
C101   C     0.88570   0.29091   0.25284   0.00000  Uiso   1.00
C102   C     0.62100   0.20719   0.24969   0.00000  Uiso   1.00
C103   C     0.77182   0.39856   0.20450   0.00000  Uiso   1.00
C104   C     0.78349   0.10151   0.19157   0.00000  Uiso   1.00
C105   C     0.72817   0.39854   0.12883   0.00000  Uiso   1.00
C106   C     0.71553   0.05232   0.14290   0.00000  Uiso   1.00
C107   C     0.77079   0.44774   0.20560   0.00000  Uiso   1.00
C108   C     0.78447   0.05233   0.19042   0.00000  Uiso   1.00
H109   H     0.68764   0.03462   0.12448   0.00000  Uiso   1.00
H110   H     0.50349   0.19399   0.10220   0.00000  Uiso   1.00
H111   H     0.50639   0.30992   0.23016   0.00000  Uiso   1.00
H112   H     0.99635   0.19437   0.23083   0.00000  Uiso   1.00
H113   H     0.64985   0.27917   0.07734   0.00000  Uiso   1.00
H114   H     0.59712   0.27673   0.04544   0.00000  Uiso   1.00
H115   H     0.61289   0.32889   0.07975   0.00000  Uiso   1.00
H116   H     0.85437   0.23227   0.06807   0.00000  Uiso   1.00
H117   H     0.89989   0.19568   0.05255   0.00000  Uiso   1.00
H118   H     0.86074   0.17516   0.09668   0.00000  Uiso   1.00
H119   H     0.85058   0.27963   0.25579   0.00000  Uiso   1.00
H120   H     0.78692   0.46543   0.23712   0.00000  Uiso   1.00
H121   H     0.90351   0.27803   0.28730   0.00000  Uiso   1.00
H122   H     0.88713   0.32965   0.25241   0.00000  Uiso   1.00
H123   H     0.64526   0.23311   0.26534   0.00000  Uiso   1.00
H124   H     0.59978   0.19644   0.28088   0.00000  Uiso   1.00
H125   H     0.63919   0.17580   0.23712   0.00000  Uiso   1.00
H126   H     0.81236   0.03464   0.20884   0.00000  Uiso   1.00
H127   H     0.71307   0.46541   0.09621   0.00000  Uiso   1.00
H128   H     0.69396   0.15380   0.10392   0.00000  Uiso   1.00
H129   H     0.80537   0.34646   0.22971   0.00000  Uiso   1.00
H130   H     0.80604   0.15381   0.22942   0.00000  Uiso   1.00
H131   H     0.69458   0.34644   0.10364   0.00000  Uiso   1.00
H132   H     0.99375   0.30908   0.10162   0.00000  Uiso   1.00
N133   N     0.75000   0.12623   0.16667   0.00000  Uiso   1.00
N134   N     0.75000   0.37376   0.16667   0.00000  Uiso   1.00
O135   O     0.68453   0.28974   0.16667   0.00000  Uiso   1.00
O136   O     0.79558   0.37675   0.24259   0.00000  Uiso   1.00
O137   O     0.81728   0.12335   0.21852   0.00000  Uiso   1.00
O138   O     0.70440   0.37672   0.09075   0.00000  Uiso   1.00
O139   O     0.52386   0.30056   0.09076   0.00000  Uiso   1.00
O140   O     0.97246   0.20148   0.09143   0.00000  Uiso   1.00
O141   O     0.97637   0.30141   0.24131   0.00000  Uiso   1.00
O142   O     0.52731   0.20206   0.24172   0.00000  Uiso   1.00
O143   O     0.81547   0.21026   0.16666   0.00000  Uiso   1.00
O144   O     0.81547   0.28974   0.16666   0.00000  Uiso   1.00
O145   O     0.68453   0.21026   0.16667   0.00000  Uiso   1.00
O146   O     0.75000   0.28973   0.09511   0.00000  Uiso   1.00
O147   O     0.75000   0.21027   0.23822   0.00000  Uiso   1.00
O148   O     0.75000   0.28973   0.23822   0.00000  Uiso   1.00
O149   O     0.75000   0.21027   0.09511   0.00000  Uiso   1.00
O150   O     0.68272   0.12333   0.11481   0.00000  Uiso   1.00
Zn151  Zn    0.75000   0.30307   0.16667   0.00000  Uiso   1.00
Zn152  Zn    0.75000   0.19693   0.16667   0.00000  Uiso   1.00
C153   C     0.16419   0.74994   0.16638   0.00000  Uiso   1.00
C154   C     0.22921   0.94773   0.12772   0.00000  Uiso   1.00
C155   C     0.24988   0.75000   0.07296   0.00000  Uiso   1.00
C156   C     0.25012   0.75000   0.26037   0.00000  Uiso   1.00
C157   C     0.25000   0.52655   0.16666   0.00000  Uiso   1.00
C158   C     0.25000   0.97351   0.16666   0.00000  Uiso   1.00
C159   C     0.24995   0.75000   0.02182   0.00000  Uiso   1.00
C160   C     0.25004   0.75000   0.31152   0.00000  Uiso   1.00
C161   C     0.04625   0.77511   0.12792   0.00000  Uiso   1.00
C162   C     0.45177   0.72689   0.12819   0.00000  Uiso   1.00
C163   C     0.45387   0.77557   0.20455   0.00000  Uiso   1.00
C164   C     0.33582   0.74994   0.16692   0.00000  Uiso   1.00
C165   C     0.04812   0.72714   0.20479   0.00000  Uiso   1.00
C166   C     0.09233   0.77130   0.12575   0.00000  Uiso   1.00
C167   C     0.40532   0.72821   0.12728   0.00000  Uiso   1.00
C168   C     0.40781   0.77171   0.20700   0.00000  Uiso   1.00
C169   C     0.09457   0.72849   0.20589   0.00000  Uiso   1.00
C170   C     0.11630   0.74969   0.16577   0.00000  Uiso   1.00
C171   C     0.38371   0.74971   0.16732   0.00000  Uiso   1.00
C172   C     0.02418   0.75167   0.16651   0.00000  Uiso   1.00
C173   C     0.47582   0.75176   0.16614   0.00000  Uiso   1.00
C174   C     0.11461   0.79016   0.07986   0.00000  Uiso   1.00
C175   C     0.21651   0.60150   0.14176   0.00000  Uiso   1.00
C176   C     0.37877   0.70655   0.08378   0.00000  Uiso   1.00
C177   C     0.38570   0.79091   0.25284   0.00000  Uiso   1.00
C178   C     0.12100   0.70719   0.24969   0.00000  Uiso   1.00
C179   C     0.27182   0.89856   0.20450   0.00000  Uiso   1.00
C180   C     0.28349   0.60151   0.19157   0.00000  Uiso   1.00
C181   C     0.22817   0.89854   0.12883   0.00000  Uiso   1.00
C182   C     0.21553   0.55232   0.14290   0.00000  Uiso   1.00
C183   C     0.27079   0.94774   0.20560   0.00000  Uiso   1.00
C184   C     0.28447   0.55233   0.19042   0.00000  Uiso   1.00
H185   H     0.18764   0.53462   0.12448   0.00000  Uiso   1.00
H186   H     0.00349   0.69399   0.10220   0.00000  Uiso   1.00
H187   H     0.00639   0.80992   0.23016   0.00000  Uiso   1.00
H188   H     0.49635   0.69437   0.23083   0.00000  Uiso   1.00
H189   H     0.14985   0.77917   0.07734   0.00000  Uiso   1.00
H190   H     0.09712   0.77673   0.04544   0.00000  Uiso   1.00
H191   H     0.11289   0.82889   0.07975   0.00000  Uiso   1.00
H192   H     0.35437   0.73227   0.06807   0.00000  Uiso   1.00
H193   H     0.39989   0.69568   0.05255   0.00000  Uiso   1.00
H194   H     0.36074   0.67516   0.09668   0.00000  Uiso   1.00
H195   H     0.35058   0.77963   0.25579   0.00000  Uiso   1.00
H196   H     0.28692   0.96543   0.23712   0.00000  Uiso   1.00
H197   H     0.40351   0.77803   0.28730   0.00000  Uiso   1.00
H198   H     0.38713   0.82965   0.25241   0.00000  Uiso   1.00
H199   H     0.14526   0.73311   0.26534   0.00000  Uiso   1.00
H200   H     0.09978   0.69644   0.28088   0.00000  Uiso   1.00
H201   H     0.13919   0.67580   0.23712   0.00000  Uiso   1.00
H202   H     0.31236   0.53464   0.20884   0.00000  Uiso   1.00
H203   H     0.21307   0.96541   0.09621   0.00000  Uiso   1.00
H204   H     0.19396   0.65380   0.10392   0.00000  Uiso   1.00
H205   H     0.30537   0.84646   0.22971   0.00000  Uiso   1.00
H206   H     0.30604   0.65381   0.22942   0.00000  Uiso   1.00
H207   H     0.19458   0.84644   0.10364   0.00000  Uiso   1.00
H208   H     0.49375   0.80908   0.10162   0.00000  Uiso   1.00
N209   N     0.25000   0.62623   0.16667   0.00000  Uiso   1.00
N210   N     0.25000   0.87376   0.16667   0.00000  Uiso   1.00
O211   O     0.18453   0.78974   0.16667   0.00000  Uiso   1.00
O212   O     0.29558   0.87675   0.24259   0.00000  Uiso   1.00
O213   O     0.31728   0.62335   0.21852   0.00000  Uiso   1.00
O214   O     0.20440   0.87672   0.09075   0.00000  Uiso   1.00
O215   O     0.02386   0.80056   0.09076   0.00000  Uiso   1.00
O216   O     0.47246   0.70148   0.09143   0.00000  Uiso   1.00
O217   O     0.47637   0.80141   0.24131   0.00000  Uiso   1.00
O218   O     0.02731   0.70206   0.24172   0.00000  Uiso   1.00
O219   O     0.31547   0.71026   0.16666   0.00000  Uiso   1.00
O220   O     0.31547   0.78974   0.16666   0.00000  Uiso   1.00
O221   O     0.18453   0.71026   0.16667   0.00000  Uiso   1.00
O222   O     0.25000   0.78973   0.09511   0.00000  Uiso   1.00
O223   O     0.25000   0.71027   0.23822   0.00000  Uiso   1.00
O224   O     0.25000   0.78973   0.23822   0.00000  Uiso   1.00
O225   O     0.25000   0.71027   0.09511   0.00000  Uiso   1.00
O226   O     0.18272   0.62333   0.11481   0.00000  Uiso   1.00
Zn227  Zn    0.25000   0.80307   0.16667   0.00000  Uiso   1.00
Zn228  Zn    0.25000   0.69693   0.16667   0.00000  Uiso   1.00
C229   C     0.66419   0.74994   0.16638   0.00000  Uiso   1.00
C230   C     0.72921   0.94773   0.12772   0.00000  Uiso   1.00
C231   C     0.74988   0.75000   0.07296   0.00000  Uiso   1.00
C232   C     0.75012   0.75000   0.26037   0.00000  Uiso   1.00
C233   C     0.75000   0.52655   0.16666   0.00000  Uiso   1.00
C234   C     0.75000   0.97351   0.16666   0.00000  Uiso   1.00
C235   C     0.74995   0.75000   0.02182   0.00000  Uiso   1.00
C236   C     0.75004   0.75000   0.31152   0.00000  Uiso   1.00
C237   C     0.54625   0.77511   0.12792   0.00000  Uiso   1.00
C238   C     0.95177   0.72689   0.12819   0.00000  Uiso   1.00
C239   C     0.95387   0.77557   0.20455   0.00000  Uiso   1.00
C240   C     0.83582   0.74994   0.16692   0.00000  Uiso   1.00
C241   C     0.54812   0.72714   0.20479   0.00000  Uiso   1.00
C242   C     0.59233   0.77130   0.12575   0.00000  Uiso   1.00
C243   C     0.90532   0.72821   0.12728   0.00000  Uiso   1.00
C244   C     0.90781   0.77171   0.20700   0.00000  Uiso   1.00
C245   C     0.59457   0.72849   0.20589   0.00000  Uiso   1.00
C246   C     0.61630   0.74969   0.16577   0.00000  Uiso   1.00
C247   C     0.88371   0.74971   0.16732   0.00000  Uiso   1.00
C248   C     0.52418   0.75167   0.16651   0.00000  Uiso   1.00
C249   C     0.97582   0.75176   0.16614   0.00000  Uiso   1.00
C250   C     0.61461   0.79016   0.07986   0.00000  Uiso   1.00
C251   C     0.71651   0.60150   0.14176   0.00000  Uiso   1.00
C252   C     0.87877   0.70655   0.08378   0.00000  Uiso   1.00
C253   C     0.88570   0.79091   0.25284   0.00000  Uiso   1.00
C254   C     0.62100   0.70719   0.24969   0.00000  Uiso   1.00
C255   C     0.77182   0.89856   0.20450   0.00000  Uiso   1.00
C256   C     0.78349   0.60151   0.19157   0.00000  Uiso   1.00
C257   C     0.72817   0.89854   0.12883   0.00000  Uiso   1.00
C258   C     0.71553   0.55232   0.14290   0.00000  Uiso   1.00
C259   C     0.77079   0.94774   0.20560   0.00000  Uiso   1.00
C260   C     0.78447   0.55233   0.19042   0.00000  Uiso   1.00
H261   H     0.68764   0.53462   0.12448   0.00000  Uiso   1.00
H262   H     0.50349   0.69399   0.10220   0.00000  Uiso   1.00
H263   H     0.50639   0.80992   0.23016   0.00000  Uiso   1.00
H264   H     0.99635   0.69437   0.23083   0.00000  Uiso   1.00
H265   H     0.64985   0.77917   0.07734   0.00000  Uiso   1.00
H266   H     0.59712   0.77673   0.04544   0.00000  Uiso   1.00
H267   H     0.61289   0.82889   0.07975   0.00000  Uiso   1.00
H268   H     0.85437   0.73227   0.06807   0.00000  Uiso   1.00
H269   H     0.89989   0.69568   0.05255   0.00000  Uiso   1.00
H270   H     0.86074   0.67516   0.09668   0.00000  Uiso   1.00
H271   H     0.85058   0.77963   0.25579   0.00000  Uiso   1.00
H272   H     0.78692   0.96543   0.23712   0.00000  Uiso   1.00
H273   H     0.90351   0.77803   0.28730   0.00000  Uiso   1.00
H274   H     0.88713   0.82965   0.25241   0.00000  Uiso   1.00
H275   H     0.64526   0.73311   0.26534   0.00000  Uiso   1.00
H276   H     0.59978   0.69644   0.28088   0.00000  Uiso   1.00
H277   H     0.63919   0.67580   0.23712   0.00000  Uiso   1.00
H278   H     0.81236   0.53464   0.20884   0.00000  Uiso   1.00
H279   H     0.71307   0.96541   0.09621   0.00000  Uiso   1.00
H280   H     0.69396   0.65380   0.10392   0.00000  Uiso   1.00
H281   H     0.80537   0.84646   0.22971   0.00000  Uiso   1.00
H282   H     0.80604   0.65381   0.22942   0.00000  Uiso   1.00
H283   H     0.69458   0.84644   0.10364   0.00000  Uiso   1.00
H284   H     0.99375   0.80908   0.10162   0.00000  Uiso   1.00
N285   N     0.75000   0.62623   0.16667   0.00000  Uiso   1.00
N286   N     0.75000   0.87376   0.16667   0.00000  Uiso   1.00
O287   O     0.68453   0.78974   0.16667   0.00000  Uiso   1.00
O288   O     0.79558   0.87675   0.24259   0.00000  Uiso   1.00
O289   O     0.81728   0.62335   0.21852   0.00000  Uiso   1.00
O290   O     0.70440   0.87672   0.09075   0.00000  Uiso   1.00
O291   O     0.52386   0.80056   0.09076   0.00000  Uiso   1.00
O292   O     0.97246   0.70148   0.09143   0.00000  Uiso   1.00
O293   O     0.97637   0.80141   0.24131   0.00000  Uiso   1.00
O294   O     0.52731   0.70206   0.24172   0.00000  Uiso   1.00
O295   O     0.81547   0.71026   0.16666   0.00000  Uiso   1.00
O296   O     0.81547   0.78974   0.16666   0.00000  Uiso   1.00
O297   O     0.68453   0.71026   0.16667   0.00000  Uiso   1.00
O298   O     0.75000   0.78973   0.09511   0.00000  Uiso   1.00
O299   O     0.75000   0.71027   0.23822   0.00000  Uiso   1.00
O300   O     0.75000   0.78973   0.23822   0.00000  Uiso   1.00
O301   O     0.75000   0.71027   0.09511   0.00000  Uiso   1.00
O302   O     0.68272   0.62333   0.11481   0.00000  Uiso   1.00
Zn303  Zn    0.75000   0.80307   0.16667   0.00000  Uiso   1.00
Zn304  Zn    0.75000   0.69693   0.16667   0.00000  Uiso   1.00
C305   C     0.16419   0.24994   0.49971   0.00000  Uiso   1.00
C306   C     0.22921   0.44773   0.46105   0.00000  Uiso   1.00
C307   C     0.24988   0.25000   0.40629   0.00000  Uiso   1.00
C308   C     0.25012   0.25000   0.59371   0.00000  Uiso   1.00
C309   C     0.25000   0.02655   0.49999   0.00000  Uiso   1.00
C310   C     0.25000   0.47351   0.49999   0.00000  Uiso   1.00
C311   C     0.24995   0.25000   0.35515   0.00000  Uiso   1.00
C312   C     0.25004   0.25000   0.64485   0.00000  Uiso   1.00
C313   C     0.04625   0.27511   0.46125   0.00000  Uiso   1.00
C314   C     0.45177   0.22689   0.46153   0.00000  Uiso   1.00
C315   C     0.45387   0.27557   0.53788   0.00000  Uiso   1.00
C316   C     0.33582   0.24994   0.50026   0.00000  Uiso   1.00
C317   C     0.04812   0.22714   0.53813   0.00000  Uiso   1.00
C318   C     0.09233   0.27130   0.45909   0.00000  Uiso   1.00
C319   C     0.40532   0.22821   0.46062   0.00000  Uiso   1.00
C320   C     0.40781   0.27171   0.54033   0.00000  Uiso   1.00
C321   C     0.09457   0.22849   0.53923   0.00000  Uiso   1.00
C322   C     0.11630   0.24969   0.49910   0.00000  Uiso   1.00
C323   C     0.38371   0.24971   0.50066   0.00000  Uiso   1.00
C324   C     0.02418   0.25167   0.49984   0.00000  Uiso   1.00
C325   C     0.47582   0.25176   0.49947   0.00000  Uiso   1.00
C326   C     0.11461   0.29016   0.41319   0.00000  Uiso   1.00
C327   C     0.21651   0.10150   0.47510   0.00000  Uiso   1.00
C328   C     0.37877   0.20655   0.41711   0.00000  Uiso   1.00
C329   C     0.38570   0.29091   0.58617   0.00000  Uiso   1.00
C330   C     0.12100   0.20719   0.58303   0.00000  Uiso   1.00
C331   C     0.27182   0.39856   0.53783   0.00000  Uiso   1.00
C332   C     0.28349   0.10151   0.52490   0.00000  Uiso   1.00
C333   C     0.22817   0.39854   0.46217   0.00000  Uiso   1.00
C334   C     0.21553   0.05232   0.47624   0.00000  Uiso   1.00
C335   C     0.27079   0.44774   0.53894   0.00000  Uiso   1.00
C336   C     0.28447   0.05233   0.52375   0.00000  Uiso   1.00
H337   H     0.18764   0.03462   0.45782   0.00000  Uiso   1.00
H338   H     0.00349   0.19399   0.43553   0.00000  Uiso   1.00
H339   H     0.00639   0.30992   0.56349   0.00000  Uiso   1.00
H340   H     0.49635   0.19437   0.56416   0.00000  Uiso   1.00
H341   H     0.14985   0.27917   0.41068   0.00000  Uiso   1.00
H342   H     0.09712   0.27673   0.37878   0.00000  Uiso   1.00
H343   H     0.11289   0.32889   0.41309   0.00000  Uiso   1.00
H344   H     0.35437   0.23227   0.40141   0.00000  Uiso   1.00
H345   H     0.39989   0.19568   0.38589   0.00000  Uiso   1.00
H346   H     0.36074   0.17516   0.43001   0.00000  Uiso   1.00
H347   H     0.35058   0.27963   0.58912   0.00000  Uiso   1.00
H348   H     0.28692   0.46543   0.57045   0.00000  Uiso   1.00
H349   H     0.40351   0.27803   0.62063   0.00000  Uiso   1.00
H350   H     0.38713   0.32965   0.58574   0.00000  Uiso   1.00
H351   H     0.14526   0.23311   0.59867   0.00000  Uiso   1.00
H352   H     0.09978   0.19644   0.61421   0.00000  Uiso   1.00
H353   H     0.13919   0.17580   0.57046   0.00000  Uiso   1.00
H354   H     0.31236   0.03464   0.54217   0.00000  Uiso   1.00
H355   H     0.21307   0.46541   0.42954   0.00000  Uiso   1.00
H356   H     0.19396   0.15380   0.43725   0.00000  Uiso   1.00
H357   H     0.30537   0.34646   0.56304   0.00000  Uiso   1.00
H358   H     0.30604   0.15381   0.56275   0.00000  Uiso   1.00
H359   H     0.19458   0.34644   0.43697   0.00000  Uiso   1.00
H360   H     0.49375   0.30908   0.43496   0.00000  Uiso   1.00
N361   N     0.25000   0.12623   0.50000   0.00000  Uiso   1.00
N362   N     0.25000   0.37376   0.50000   0.00000  Uiso   1.00
O363   O     0.18453   0.28974   0.50000   0.00000  Uiso   1.00
O364   O     0.29558   0.37675   0.57592   0.00000  Uiso   1.00
O365   O     0.31728   0.12335   0.55186   0.00000  Uiso   1.00
O366   O     0.20440   0.37672   0.42409   0.00000  Uiso   1.00
O367   O     0.02386   0.30056   0.42410   0.00000  Uiso   1.00
O368   O     0.47246   0.20148   0.42477   0.00000  Uiso   1.00
O369   O     0.47637   0.30141   0.57465   0.00000  Uiso   1.00
O370   O     0.02731   0.20206   0.57505   0.00000  Uiso   1.00
O371   O     0.31547   0.21026   0.50000   0.00000  Uiso   1.00
O372   O     0.31547   0.28974   0.50000   0.00000  Uiso   1.00
O373   O     0.18453   0.21026   0.50000   0.00000  Uiso   1.00
O374   O     0.25000   0.28973   0.42845   0.00000  Uiso   1.00
O375   O     0.25000   0.21027   0.57155   0.00000  Uiso   1.00
O376   O     0.25000   0.28973   0.57155   0.00000  Uiso   1.00
O377   O     0.25000   0.21027   0.42845   0.00000  Uiso   1.00
O378   O     0.18272   0.12333   0.44814   0.00000  Uiso   1.00
Zn379  Zn    0.25000   0.30307   0.50000   0.00000  Uiso   1.00
Zn380  Zn    0.25000   0.19693   0.50000   0.00000  Uiso   1.00
C381   C     0.66419   0.24994   0.49971   0.00000  Uiso   1.00
C382   C     0.72921   0.44773   0.46105   0.00000  Uiso   1.00
C383   C     0.74988   0.25000   0.40629   0.00000  Uiso   1.00
C384   C     0.75012   0.25000   0.59371   0.00000  Uiso   1.00
C385   C     0.75000   0.02655   0.49999   0.00000  Uiso   1.00
C386   C     0.75000   0.47351   0.49999   0.00000  Uiso   1.00
C387   C     0.74995   0.25000   0.35515   0.00000  Uiso   1.00
C388   C     0.75004   0.25000   0.64485   0.00000  Uiso   1.00
C389   C     0.54625   0.27511   0.46125   0.00000  Uiso   1.00
C390   C     0.95177   0.22689   0.46153   0.00000  Uiso   1.00
C391   C     0.95387   0.27557   0.53788   0.00000  Uiso   1.00
C392   C     0.83582   0.24994   0.50026   0.00000  Uiso   1.00
C393   C     0.54812   0.22714   0.53813   0.00000  Uiso   1.00
C394   C     0.59233   0.27130   0.45909   0.00000  Uiso   1.00
C395   C     0.90532   0.22821   0.46062   0.00000  Uiso   1.00
C396   C     0.90781   0.27171   0.54033   0.00000  Uiso   1.00
C397   C     0.59457   0.22849   0.53923   0.00000  Uiso   1.00
C398   C     0.61630   0.24969   0.49910   0.00000  Uiso   1.00
C399   C     0.88371   0.24971   0.50066   0.00000  Uiso   1.00
C400   C     0.52418   0.25167   0.49984   0.00000  Uiso   1.00
C401   C     0.97582   0.25176   0.49947   0.00000  Uiso   1.00
C402   C     0.61461   0.29016   0.41319   0.00000  Uiso   1.00
C403   C     0.71651   0.10150   0.47510   0.00000  Uiso   1.00
C404   C     0.87877   0.20655   0.41711   0.00000  Uiso   1.00
C405   C     0.88570   0.29091   0.58617   0.00000  Uiso   1.00
C406   C     0.62100   0.20719   0.58303   0.00000  Uiso   1.00
C407   C     0.77182   0.39856   0.53783   0.00000  Uiso   1.00
C408   C     0.78349   0.10151   0.52490   0.00000  Uiso   1.00
C409   C     0.72817   0.39854   0.46217   0.00000  Uiso   1.00
C410   C     0.71553   0.05232   0.47624   0.00000  Uiso   1.00
C411   C     0.77079   0.44774   0.53894   0.00000  Uiso   1.00
C412   C     0.78447   0.05233   0.52375   0.00000  Uiso   1.00
H413   H     0.68764   0.03462   0.45782   0.00000  Uiso   1.00
H414   H     0.50349   0.19399   0.43553   0.00000  Uiso   1.00
H415   H     0.50639   0.30992   0.56349   0.00000  Uiso   1.00
H416   H     0.99635   0.19437   0.56416   0.00000  Uiso   1.00
H417   H     0.64985   0.27917   0.41068   0.00000  Uiso   1.00
H418   H     0.59712   0.27673   0.37878   0.00000  Uiso   1.00
H419   H     0.61289   0.32889   0.41309   0.00000  Uiso   1.00
H420   H     0.85437   0.23227   0.40141   0.00000  Uiso   1.00
H421   H     0.89989   0.19568   0.38589   0.00000  Uiso   1.00
H422   H     0.86074   0.17516   0.43001   0.00000  Uiso   1.00
H423   H     0.85058   0.27963   0.58912   0.00000  Uiso   1.00
H424   H     0.78692   0.46543   0.57045   0.00000  Uiso   1.00
H425   H     0.90351   0.27803   0.62063   0.00000  Uiso   1.00
H426   H     0.88713   0.32965   0.58574   0.00000  Uiso   1.00
H427   H     0.64526   0.23311   0.59867   0.00000  Uiso   1.00
H428   H     0.59978   0.19644   0.61421   0.00000  Uiso   1.00
H429   H     0.63919   0.17580   0.57046   0.00000  Uiso   1.00
H430   H     0.81236   0.03464   0.54217   0.00000  Uiso   1.00
H431   H     0.71307   0.46541   0.42954   0.00000  Uiso   1.00
H432   H     0.69396   0.15380   0.43725   0.00000  Uiso   1.00
H433   H     0.80537   0.34646   0.56304   0.00000  Uiso   1.00
H434   H     0.80604   0.15381   0.56275   0.00000  Uiso   1.00
H435   H     0.69458   0.34644   0.43697   0.00000  Uiso   1.00
H436   H     0.99375   0.30908   0.43496   0.00000  Uiso   1.00
N437   N     0.75000   0.12623   0.50000   0.00000  Uiso   1.00
N438   N     0.75000   0.37376   0.50000   0.00000  Uiso   1.00
O439   O     0.68453   0.28974   0.50000   0.00000  Uiso   1.00
O440   O     0.79558   0.37675   0.57592   0.00000  Uiso   1.00
O441   O     0.81728   0.12335   0.55186   0.00000  Uiso   1.00
O442   O     0.70440   0.37672   0.42409   0.00000  Uiso   1.00
O443   O     0.52386   0.30056   0.42410   0.00000  Uiso   1.00
O444   O     0.97246   0.20148   0.42477   0.00000  Uiso   1.00
O445   O     0.97637   0.30141   0.57465   0.00000  Uiso   1.00
O446   O     0.52731   0.20206   0.57505   0.00000  Uiso   1.00
O447   O     0.81547   0.21026   0.50000   0.00000  Uiso   1.00
O448   O     0.81547   0.28974   0.50000   0.00000  Uiso   1.00
O449   O     0.68453   0.21026   0.50000   0.00000  Uiso   1.00
O450   O     0.75000   0.28973   0.42845   0.00000  Uiso   1.00
O451   O     0.75000   0.21027   0.57155   0.00000  Uiso   1.00
O452   O     0.75000   0.28973   0.57155   0.00000  Uiso   1.00
O453   O     0.75000   0.21027   0.42845   0.00000  Uiso   1.00
O454   O     0.68272   0.12333   0.44814   0.00000  Uiso   1.00
Zn455  Zn    0.75000   0.30307   0.50000   0.00000  Uiso   1.00
Zn456  Zn    0.75000   0.19693   0.50000   0.00000  Uiso   1.00
C457   C     0.16419   0.74994   0.49971   0.00000  Uiso   1.00
C458   C     0.22921   0.94773   0.46105   0.00000  Uiso   1.00
C459   C     0.24988   0.75000   0.40629   0.00000  Uiso   1.00
C460   C     0.25012   0.75000   0.59371   0.00000  Uiso   1.00
C461   C     0.25000   0.52655   0.49999   0.00000  Uiso   1.00
C462   C     0.25000   0.97351   0.49999   0.00000  Uiso   1.00
C463   C     0.24995   0.75000   0.35515   0.00000  Uiso   1.00
C464   C     0.25004   0.75000   0.64485   0.00000  Uiso   1.00
C465   C     0.04625   0.77511   0.46125   0.00000  Uiso   1.00
C466   C     0.45177   0.72689   0.46153   0.00000  Uiso   1.00
C467   C     0.45387   0.77557   0.53788   0.00000  Uiso   1.00
C468   C     0.33582   0.74994   0.50026   0.00000  Uiso   1.00
C469   C     0.04812   0.72714   0.53813   0.00000  Uiso   1.00
C470   C     0.09233   0.77130   0.45909   0.00000  Uiso   1.00
C471   C     0.40532   0.72821   0.46062   0.00000  Uiso   1.00
C472   C     0.40781   0.77171   0.54033   0.00000  Uiso   1.00
C473   C     0.09457   0.72849   0.53923   0.00000  Uiso   1.00
C474   C     0.11630   0.74969   0.49910   0.00000  Uiso   1.00
C475   C     0.38371   0.74971   0.50066   0.00000  Uiso   1.00
C476   C     0.02418   0.75167   0.49984   0.00000  Uiso   1.00
C477   C     0.47582   0.75176   0.49947   0.00000  Uiso   1.00
C478   C     0.11461   0.79016   0.41319   0.00000  Uiso   1.00
C479   C     0.21651   0.60150   0.47510   0.00000  Uiso   1.00
C480   C     0.37877   0.70655   0.41711   0.00000  Uiso   1.00
C481   C     0.38570   0.79091   0.58617   0.00000  Uiso   1.00
C482   C     0.12100   0.70719   0.58303   0.00000  Uiso   1.00
C483   C     0.27182   0.89856   0.53783   0.00000  Uiso   1.00
C484   C     0.28349   0.60151   0.52490   0.00000  Uiso   1.00
C485   C     0.22817   0.89854   0.46217   0.00000  Uiso   1.00
C486   C     0.21553   0.55232   0.47624   0.00000  Uiso   1.00
C487   C     0.27079   0.94774   0.53894   0.00000  Uiso   1.00
C488   C     0.28447   0.55233   0.52375   0.00000  Uiso   1.00
H489   H     0.18764   0.53462   0.45782   0.00000  Uiso   1.00
H490   H     0.00349   0.69399   0.43553   0.00000  Uiso   1.00
H491   H     0.00639   0.80992   0.56349   0.00000  Uiso   1.00
H492   H     0.49635   0.69437   0.56416   0.00000  Uiso   1.00
H493   H     0.14985   0.77917   0.41068   0.00000  Uiso   1.00
H494   H     0.09712   0.77673   0.37878   0.00000  Uiso   1.00
H495   H     0.11289   0.82889   0.41309   0.00000  Uiso   1.00
H496   H     0.35437   0.73227   0.40141   0.00000  Uiso   1.00
H497   H     0.39989   0.69568   0.38589   0.00000  Uiso   1.00
H498   H     0.36074   0.67516   0.43001   0.00000  Uiso   1.00
H499   H     0.35058   0.77963   0.58912   0.00000  Uiso   1.00
H500   H     0.28692   0.96543   0.57045   0.00000  Uiso   1.00
H501   H     0.40351   0.77803   0.62063   0.00000  Uiso   1.00
H502   H     0.38713   0.82965   0.58574   0.00000  Uiso   1.00
H503   H     0.14526   0.73311   0.59867   0.00000  Uiso   1.00
H504   H     0.09978   0.69644   0.61421   0.00000  Uiso   1.00
H505   H     0.13919   0.67580   0.57046   0.00000  Uiso   1.00
H506   H     0.31236   0.53464   0.54217   0.00000  Uiso   1.00
H507   H     0.21307   0.96541   0.42954   0.00000  Uiso   1.00
H508   H     0.19396   0.65380   0.43725   0.00000  Uiso   1.00
H509   H     0.30537   0.84646   0.56304   0.00000  Uiso   1.00
H510   H     0.30604   0.65381   0.56275   0.00000  Uiso   1.00
H511   H     0.19458   0.84644   0.43697   0.00000  Uiso   1.00
H512   H     0.49375   0.80908   0.43496   0.00000  Uiso   1.00
N513   N     0.25000   0.62623   0.50000   0.00000  Uiso   1.00
N514   N     0.25000   0.87376   0.50000   0.00000  Uiso   1.00
O515   O     0.18453   0.78974   0.50000   0.00000  Uiso   1.00
O516   O     0.29558   0.87675   0.57592   0.00000  Uiso   1.00
O517   O     0.31728   0.62335   0.55186   0.00000  Uiso   1.00
O518   O     0.20440   0.87672   0.42409   0.00000  Uiso   1.00
O519   O     0.02386   0.80056   0.42410   0.00000  Uiso   1.00
O520   O     0.47246   0.70148   0.42477   0.00000  Uiso   1.00
O521   O     0.47637   0.80141   0.57465   0.00000  Uiso   1.00
O522   O     0.02731   0.70206   0.57505   0.00000  Uiso   1.00
O523   O     0.31547   0.71026   0.50000   0.00000  Uiso   1.00
O524   O     0.31547   0.78974   0.50000   0.00000  Uiso   1.00
O525   O     0.18453   0.71026   0.50000   0.00000  Uiso   1.00
O526   O     0.25000   0.78973   0.42845   0.00000  Uiso   1.00
O527   O     0.25000   0.71027   0.57155   0.00000  Uiso   1.00
O528   O     0.25000   0.78973   0.57155   0.00000  Uiso   1.00
O529   O     0.25000   0.71027   0.42845   0.00000  Uiso   1.00
O530   O     0.18272   0.62333   0.44814   0.00000  Uiso   1.00
Zn531  Zn    0.25000   0.80307   0.50000   0.00000  Uiso   1.00
Zn532  Zn    0.25000   0.69693   0.50000   0.00000  Uiso   1.00
C533   C     0.66419   0.74994   0.49971   0.00000  Uiso   1.00
C534   C     0.72921   0.94773   0.46105   0.00000  Uiso   1.00
C535   C     0.74988   0.75000   0.40629   0.00000  Uiso   1.00
C536   C     0.75012   0.75000   0.59371   0.00000  Uiso   1.00
C537   C     0.75000   0.52655   0.49999   0.00000  Uiso   1.00
C538   C     0.75000   0.97351   0.49999   0.00000  Uiso   1.00
C539   C     0.74995   0.75000   0.35515   0.00000  Uiso   1.00
C540   C     0.75004   0.75000   0.64485   0.00000  Uiso   1.00
C541   C     0.54625   0.77511   0.46125   0.00000  Uiso   1.00
C542   C     0.95177   0.72689   0.46153   0.00000  Uiso   1.00
C543   C     0.95387   0.77557   0.53788   0.00000  Uiso   1.00
C544   C     0.83582   0.74994   0.50026   0.00000  Uiso   1.00
C545   C     0.54812   0.72714   0.53813   0.00000  Uiso   1.00
C546   C     0.59233   0.77130   0.45909   0.00000  Uiso   1.00
C547   C     0.90532   0.72821   0.46062   0.00000  Uiso   1.00
C548   C     0.90781   0.77171   0.54033   0.00000  Uiso   1.00
C549   C     0.59457   0.72849   0.53923   0.00000  Uiso   1.00
C550   C     0.61630   0.74969   0.49910   0.00000  Uiso   1.00
C551   C     0.88371   0.74971   0.50066   0.00000  Uiso   1.00
C552   C     0.52418   0.75167   0.49984   0.00000  Uiso   1.00
C553   C     0.97582   0.75176   0.49947   0.00000  Uiso   1.00
C554   C     0.61461   0.79016   0.41319   0.00000  Uiso   1.00
C555   C     0.71651   0.60150   0.47510   0.00000  Uiso   1.00
C556   C     0.87877   0.70655   0.41711   0.00000  Uiso   1.00
C557   C     0.88570   0.79091   0.58617   0.00000  Uiso   1.00
C558   C     0.62100   0.70719   0.58303   0.00000  Uiso   1.00
C559   C     0.77182   0.89856   0.53783   0.00000  Uiso   1.00
C560   C     0.78349   0.60151   0.52490   0.00000  Uiso   1.00
C561   C     0.72817   0.89854   0.46217   0.00000  Uiso   1.00
C562   C     0.71553   0.55232   0.47624   0.00000  Uiso   1.00
C563   C     0.77079   0.94774   0.53894   0.00000  Uiso   1.00
C564   C     0.78447   0.55233   0.52375   0.00000  Uiso   1.00
H565   H     0.68764   0.53462   0.45782   0.00000  Uiso   1.00
H566   H     0.50349   0.69399   0.43553   0.00000  Uiso   1.00
H567   H     0.50639   0.80992   0.56349   0.00000  Uiso   1.00
H568   H     0.99635   0.69437   0.56416   0.00000  Uiso   1.00
H569   H     0.64985   0.77917   0.41068   0.00000  Uiso   1.00
H570   H     0.59712   0.77673   0.37878   0.00000  Uiso   1.00
H571   H     0.61289   0.82889   0.41309   0.00000  Uiso   1.00
H572   H     0.85437   0.73227   0.40141   0.00000  Uiso   1.00
H573   H     0.89989   0.69568   0.38589   0.00000  Uiso   1.00
H574   H     0.86074   0.67516   0.43001   0.00000  Uiso   1.00
H575   H     0.85058   0.77963   0.58912   0.00000  Uiso   1.00
H576   H     0.78692   0.96543   0.57045   0.00000  Uiso   1.00
H577   H     0.90351   0.77803   0.62063   0.00000  Uiso   1.00
H578   H     0.88713   0.82965   0.58574   0.00000  Uiso   1.00
H579   H     0.64526   0.73311   0.59867   0.00000  Uiso   1.00
H580   H     0.59978   0.69644   0.61421   0.00000  Uiso   1.00
H581   H     0.63919   0.67580   0.57046   0.00000  Uiso   1.00
H582   H     0.81236   0.53464   0.54217   0.00000  Uiso   1.00
H583   H     0.71307   0.96541   0.42954   0.00000  Uiso   1.00
H584   H     0.69396   0.65380   0.43725   0.00000  Uiso   1.00
H585   H     0.80537   0.84646   0.56304   0.00000  Uiso   1.00
H586   H     0.80604   0.65381   0.56275   0.00000  Uiso   1.00
H587   H     0.69458   0.84644   0.43697   0.00000  Uiso   1.00
H588   H     0.99375   0.80908   0.43496   0.00000  Uiso   1.00
N589   N     0.75000   0.62623   0.50000   0.00000  Uiso   1.00
N590   N     0.75000   0.87376   0.50000   0.00000  Uiso   1.00
O591   O     0.68453   0.78974   0.50000   0.00000  Uiso   1.00
O592   O     0.79558   0.87675   0.57592   0.00000  Uiso   1.00
O593   O     0.81728   0.62335   0.55186   0.00000  Uiso   1.00
O594   O     0.70440   0.87672   0.42409   0.00000  Uiso   1.00
O595   O     0.52386   0.80056   0.42410   0.00000  Uiso   1.00
O596   O     0.97246   0.70148   0.42477   0.00000  Uiso   1.00
O597   O     0.97637   0.80141   0.57465   0.00000  Uiso   1.00
O598   O     0.52731   0.70206   0.57505   0.00000  Uiso   1.00
O599   O     0.81547   0.71026   0.50000   0.00000  Uiso   1.00
O600   O     0.81547   0.78974   0.50000   0.00000  Uiso   1.00
O601   O     0.68453   0.71026   0.50000   0.00000  Uiso   1.00
O602   O     0.75000   0.78973   0.42845   0.00000  Uiso   1.00
O603   O     0.75000   0.71027   0.57155   0.00000  Uiso   1.00
O604   O     0.75000   0.78973   0.57155   0.00000  Uiso   1.00
O605   O     0.75000   0.71027   0.42845   0.00000  Uiso   1.00
O606   O     0.68272   0.62333   0.44814   0.00000  Uiso   1.00
Zn607  Zn    0.75000   0.80307   0.50000   0.00000  Uiso   1.00
Zn608  Zn    0.75000   0.69693   0.50000   0.00000  Uiso   1.00
C609   C     0.16419   0.24994   0.83305   0.00000  Uiso   1.00
C610   C     0.22921   0.44773   0.79439   0.00000  Uiso   1.00
C611   C     0.24988   0.25000   0.73963   0.00000  Uiso   1.00
C612   C     0.25012   0.25000   0.92704   0.00000  Uiso   1.00
C613   C     0.25000   0.02655   0.83333   0.00000  Uiso   1.00
C614   C     0.25000   0.47351   0.83333   0.00000  Uiso   1.00
C615   C     0.24995   0.25000   0.68848   0.00000  Uiso   1.00
C616   C     0.25004   0.25000   0.97818   0.00000  Uiso   1.00
C617   C     0.04625   0.27511   0.79459   0.00000  Uiso   1.00
C618   C     0.45177   0.22689   0.79486   0.00000  Uiso   1.00
C619   C     0.45387   0.27557   0.87122   0.00000  Uiso   1.00
C620   C     0.33582   0.24994   0.83359   0.00000  Uiso   1.00
C621   C     0.04812   0.22714   0.87146   0.00000  Uiso   1.00
C622   C     0.09233   0.27130   0.79242   0.00000  Uiso   1.00
C623   C     0.40532   0.22821   0.79395   0.00000  Uiso   1.00
C624   C     0.40781   0.27171   0.87367   0.00000  Uiso   1.00
C625   C     0.09457   0.22849   0.87256   0.00000  Uiso   1.00
C626   C     0.11630   0.24969   0.83244   0.00000  Uiso   1.00
C627   C     0.38371   0.24971   0.83399   0.00000  Uiso   1.00
C628   C     0.02418   0.25167   0.83318   0.00000  Uiso   1.00
C629   C     0.47582   0.25176   0.83280   0.00000  Uiso   1.00
C630   C     0.11461   0.29016   0.74653   0.00000  Uiso   1.00
C631   C     0.21651   0.10150   0.80843   0.00000  Uiso   1.00
C632   C     0.37877   0.20655   0.75045   0.00000  Uiso   1.00
C633   C     0.38570   0.29091   0.91950   0.00000  Uiso   1.00
C634   C     0.12100   0.20719   0.91636   0.00000  Uiso   1.00
C635   C     0.27182   0.39856   0.87116   0.00000  Uiso   1.00
C636   C     0.28349   0.10151   0.85823   0.00000  Uiso   1.00
C637   C     0.22817   0.39854   0.79550   0.00000  Uiso   1.00
C638   C     0.21553   0.05232   0.80957   0.00000  Uiso   1.00
C639   C     0.27079   0.44774   0.87227   0.00000  Uiso   1.00
C640   C     0.28447   0.05233   0.85709   0.00000  Uiso   1.00
H641   H     0.18764   0.03462   0.79115   0.00000  Uiso   1.00
H642   H     0.00349   0.19399   0.76886   0.00000  Uiso   1.00
H643   H     0.00639   0.30992   0.89682   0.00000  Uiso   1.00
H644   H     0.49635   0.19437   0.89749   0.00000  Uiso   1.00
H645   H     0.14985   0.27917   0.74401   0.00000  Uiso   1.00
H646   H     0.09712   0.27673   0.71211   0.00000  Uiso   1.00
H647   H     0.11289   0.32889   0.74642   0.00000  Uiso   1.00
H648   H     0.35437   0.23227   0.73474   0.00000  Uiso   1.00
H649   H     0.39989   0.19568   0.71922   0.00000  Uiso   1.00
H650   H     0.36074   0.17516   0.76334   0.00000  Uiso   1.00
H651   H     0.35058   0.27963   0.92246   0.00000  Uiso   1.00
H652   H     0.28692   0.46543   0.90378   0.00000  Uiso   1.00
H653   H     0.40351   0.27803   0.95397   0.00000  Uiso   1.00
H654   H     0.38713   0.32965   0.91908   0.00000  Uiso   1.00
H655   H     0.14526   0.23311   0.93200   0.00000  Uiso   1.00
H656   H     0.09978   0.19644   0.94754   0.00000  Uiso   1.00
H657   H     0.13919   0.17580   0.90379   0.00000  Uiso   1.00
H658   H     0.31236   0.03464   0.87550   0.00000  Uiso   1.00
H659   H     0.21307   0.46541   0.76287   0.00000  Uiso   1.00
H660   H     0.19396   0.15380   0.77059   0.00000  Uiso   1.00
H661   H     0.30537   0.34646   0.89638   0.00000  Uiso   1.00
H662   H     0.30604   0.15381   0.89609   0.00000  Uiso   1.00
H663   H     0.19458   0.34644   0.77031   0.00000  Uiso   1.00
H664   H     0.49375   0.30908   0.76829   0.00000  Uiso   1.00
N665   N     0.25000   0.12623   0.83333   0.00000  Uiso   1.00
N666   N     0.25000   0.37376   0.83333   0.00000  Uiso   1.00
O667   O     0.18453   0.28974   0.83334   0.00000  Uiso   1.00
O668   O     0.29558   0.37675   0.90925   0.00000  Uiso   1.00
O669   O     0.31728   0.12335   0.88519   0.00000  Uiso   1.00
O670   O     0.20440   0.37672   0.75742   0.00000  Uiso   1.00
O671   O     0.02386   0.30056   0.75743   0.00000  Uiso   1.00
O672   O     0.47246   0.20148   0.75810   0.00000  Uiso   1.00
O673   O     0.47637   0.30141   0.90798   0.00000  Uiso   1.00
O674   O     0.02731   0.20206   0.90839   0.00000  Uiso   1.00
O675   O     0.31547   0.21026   0.83333   0.00000  Uiso   1.00
O676   O     0.31547   0.28974   0.83333   0.00000  Uiso   1.00
O677   O     0.18453   0.21026   0.83334   0.00000  Uiso   1.00
O678   O     0.25000   0.28973   0.76178   0.00000  Uiso   1.00
O679   O     0.25000   0.21027   0.90489   0.00000  Uiso   1.00
O680   O     0.25000   0.28973   0.90489   0.00000  Uiso   1.00
O681   O     0.25000   0.21027   0.76178   0.00000  Uiso   1.00
O682   O     0.18272   0.12333   0.78147   0.00000  Uiso   1.00
Zn683  Zn    0.25000   0.30307   0.83333   0.00000  Uiso   1.00
Zn684  Zn    0.25000   0.19693   0.83333   0.00000  Uiso   1.00
C685   C     0.66419   0.24994   0.83305   0.00000  Uiso   1.00
C686   C     0.72921   0.44773   0.79439   0.00000  Uiso   1.00
C687   C     0.74988   0.25000   0.73963   0.00000  Uiso   1.00
C688   C     0.75012   0.25000   0.92704   0.00000  Uiso   1.00
C689   C     0.75000   0.02655   0.83333   0.00000  Uiso   1.00
C690   C     0.75000   0.47351   0.83333   0.00000  Uiso   1.00
C691   C     0.74995   0.25000   0.68848   0.00000  Uiso   1.00
C692   C     0.75004   0.25000   0.97818   0.00000  Uiso   1.00
C693   C     0.54625   0.27511   0.79459   0.00000  Uiso   1.00
C694   C     0.95177   0.22689   0.79486   0.00000  Uiso   1.00
C695   C     0.95387   0.27557   0.87122   0.00000  Uiso   1.00
C696   C     0.83582   0.24994   0.83359   0.00000  Uiso   1.00
C697   C     0.54812   0.22714   0.87146   0.00000  Uiso   1.00
C698   C     0.59233   0.27130   0.79242   0.00000  Uiso   1.00
C699   C     0.90532   0.22821   0.79395   0.00000  Uiso   1.00
C700   C     0.90781   0.27171   0.87367   0.00000  Uiso   1.00
C701   C     0.59457   0.22849   0.87256   0.00000  Uiso   1.00
C702   C     0.61630   0.24969   0.83244   0.00000  Uiso   1.00
C703   C     0.88371   0.24971   0.83399   0.00000  Uiso   1.00
C704   C     0.52418   0.25167   0.83318   0.00000  Uiso   1.00
C705   C     0.97582   0.25176   0.83280   0.00000  Uiso   1.00
C706   C     0.61461   0.29016   0.74653   0.00000  Uiso   1.00
C707   C     0.71651   0.10150   0.80843   0.00000  Uiso   1.00
C708   C     0.87877   0.20655   0.75045   0.00000  Uiso   1.00
C709   C     0.88570   0.29091   0.91950   0.00000  Uiso   1.00
C710   C     0.62100   0.20719   0.91636   0.00000  Uiso   1.00
C711   C     0.77182   0.39856   0.87116   0.00000  Uiso   1.00
C712   C     0.78349   0.10151   0.85823   0.00000  Uiso   1.00
C713   C     0.72817   0.39854   0.79550   0.00000  Uiso   1.00
C714   C     0.71553   0.05232   0.80957   0.00000  Uiso   1.00
C715   C     0.77079   0.44774   0.87227   0.00000  Uiso   1.00
C716   C     0.78447   0.05233   0.85709   0.00000  Uiso   1.00
H717   H     0.68764   0.03462   0.79115   0.00000  Uiso   1.00
H718   H     0.50349   0.19399   0.76886   0.00000  Uiso   1.00
H719   H     0.50639   0.30992   0.89682   0.00000  Uiso   1.00
H720   H     0.99635   0.19437   0.89749   0.00000  Uiso   1.00
H721   H     0.64985   0.27917   0.74401   0.00000  Uiso   1.00
H722   H     0.59712   0.27673   0.71211   0.00000  Uiso   1.00
H723   H     0.61289   0.32889   0.74642   0.00000  Uiso   1.00
H724   H     0.85437   0.23227   0.73474   0.00000  Uiso   1.00
H725   H     0.89989   0.19568   0.71922   0.00000  Uiso   1.00
H726   H     0.86074   0.17516   0.76334   0.00000  Uiso   1.00
H727   H     0.85058   0.27963   0.92246   0.00000  Uiso   1.00
H728   H     0.78692   0.46543   0.90378   0.00000  Uiso   1.00
H729   H     0.90351   0.27803   0.95397   0.00000  Uiso   1.00
H730   H     0.88713   0.32965   0.91908   0.00000  Uiso   1.00
H731   H     0.64526   0.23311   0.93200   0.00000  Uiso   1.00
H732   H     0.59978   0.19644   0.94754   0.00000  Uiso   1.00
H733   H     0.63919   0.17580   0.90379   0.00000  Uiso   1.00
H734   H     0.81236   0.03464   0.87550   0.00000  Uiso   1.00
H735   H     0.71307   0.46541   0.76287   0.00000  Uiso   1.00
H736   H     0.69396   0.15380   0.77059   0.00000  Uiso   1.00
H737   H     0.80537   0.34646   0.89638   0.00000  Uiso   1.00
H738   H     0.80604   0.15381   0.89609   0.00000  Uiso   1.00
H739   H     0.69458   0.34644   0.77031   0.00000  Uiso   1.00
H740   H     0.99375   0.30908   0.76829   0.00000  Uiso   1.00
N741   N     0.75000   0.12623   0.83333   0.00000  Uiso   1.00
N742   N     0.75000   0.37376   0.83333   0.00000  Uiso   1.00
O743   O     0.68453   0.28974   0.83334   0.00000  Uiso   1.00
O744   O     0.79558   0.37675   0.90925   0.00000  Uiso   1.00
O745   O     0.81728   0.12335   0.88519   0.00000  Uiso   1.00
O746   O     0.70440   0.37672   0.75742   0.00000  Uiso   1.00
O747   O     0.52386   0.30056   0.75743   0.00000  Uiso   1.00
O748   O     0.97246   0.20148   0.75810   0.00000  Uiso   1.00
O749   O     0.97637   0.30141   0.90798   0.00000  Uiso   1.00
O750   O     0.52731   0.20206   0.90839   0.00000  Uiso   1.00
O751   O     0.81547   0.21026   0.83333   0.00000  Uiso   1.00
O752   O     0.81547   0.28974   0.83333   0.00000  Uiso   1.00
O753   O     0.68453   0.21026   0.83334   0.00000  Uiso   1.00
O754   O     0.75000   0.28973   0.76178   0.00000  Uiso   1.00
O755   O     0.75000   0.21027   0.90489   0.00000  Uiso   1.00
O756   O     0.75000   0.28973   0.90489   0.00000  Uiso   1.00
O757   O     0.75000   0.21027   0.76178   0.00000  Uiso   1.00
O758   O     0.68272   0.12333   0.78147   0.00000  Uiso   1.00
Zn759  Zn    0.75000   0.30307   0.83333   0.00000  Uiso   1.00
Zn760  Zn    0.75000   0.19693   0.83333   0.00000  Uiso   1.00
C761   C     0.16419   0.74994   0.83305   0.00000  Uiso   1.00
C762   C     0.22921   0.94773   0.79439   0.00000  Uiso   1.00
C763   C     0.24988   0.75000   0.73963   0.00000  Uiso   1.00
C764   C     0.25012   0.75000   0.92704   0.00000  Uiso   1.00
C765   C     0.25000   0.52655   0.83333   0.00000  Uiso   1.00
C766   C     0.25000   0.97351   0.83333   0.00000  Uiso   1.00
C767   C     0.24995   0.75000   0.68848   0.00000  Uiso   1.00
C768   C     0.25004   0.75000   0.97818   0.00000  Uiso   1.00
C769   C     0.04625   0.77511   0.79459   0.00000  Uiso   1.00
C770   C     0.45177   0.72689   0.79486   0.00000  Uiso   1.00
C771   C     0.45387   0.77557   0.87122   0.00000  Uiso   1.00
C772   C     0.33582   0.74994   0.83359   0.00000  Uiso   1.00
C773   C     0.04812   0.72714   0.87146   0.00000  Uiso   1.00
C774   C     0.09233   0.77130   0.79242   0.00000  Uiso   1.00
C775   C     0.40532   0.72821   0.79395   0.00000  Uiso   1.00
C776   C     0.40781   0.77171   0.87367   0.00000  Uiso   1.00
C777   C     0.09457   0.72849   0.87256   0.00000  Uiso   1.00
C778   C     0.11630   0.74969   0.83244   0.00000  Uiso   1.00
C779   C     0.38371   0.74971   0.83399   0.00000  Uiso   1.00
C780   C     0.02418   0.75167   0.83318   0.00000  Uiso   1.00
C781   C     0.47582   0.75176   0.83280   0.00000  Uiso   1.00
C782   C     0.11461   0.79016   0.74653   0.00000  Uiso   1.00
C783   C     0.21651   0.60150   0.80843   0.00000  Uiso   1.00
C784   C     0.37877   0.70655   0.75045   0.00000  Uiso   1.00
C785   C     0.38570   0.79091   0.91950   0.00000  Uiso   1.00
C786   C     0.12100   0.70719   0.91636   0.00000  Uiso   1.00
C787   C     0.27182   0.89856   0.87116   0.00000  Uiso   1.00
C788   C     0.28349   0.60151   0.85823   0.00000  Uiso   1.00
C789   C     0.22817   0.89854   0.79550   0.00000  Uiso   1.00
C790   C     0.21553   0.55232   0.80957   0.00000  Uiso   1.00
C791   C     0.27079   0.94774   0.87227   0.00000  Uiso   1.00
C792   C     0.28447   0.55233   0.85709   0.00000  Uiso   1.00
H793   H     0.18764   0.53462   0.79115   0.00000  Uiso   1.00
H794   H     0.00349   0.69399   0.76886   0.00000  Uiso   1.00
H795   H     0.00639   0.80992   0.89682   0.00000  Uiso   1.00
H796   H     0.49635   0.69437   0.89749   0.00000  Uiso   1.00
H797   H     0.14985   0.77917   0.74401   0.00000  Uiso   1.00
H798   H     0.09712   0.77673   0.71211   0.00000  Uiso   1.00
H799   H     0.11289   0.82889   0.74642   0.00000  Uiso   1.00
H800   H     0.35437   0.73227   0.73474   0.00000  Uiso   1.00
H801   H     0.39989   0.69568   0.71922   0.00000  Uiso   1.00
H802   H     0.36074   0.67516   0.76334   0.00000  Uiso   1.00
H803   H     0.35058   0.77963   0.92246   0.00000  Uiso   1.00
H804   H     0.28692   0.96543   0.90378   0.00000  Uiso   1.00
H805   H     0.40351   0.77803   0.95397   0.00000  Uiso   1.00
H806   H     0.38713   0.82965   0.91908   0.00000  Uiso   1.00
H807   H     0.14526   0.73311   0.93200   0.00000  Uiso   1.00
H808   H     0.09978   0.69644   0.94754   0.00000  Uiso   1.00
H809   H     0.13919   0.67580   0.90379   0.00000  Uiso   1.00
H810   H     0.31236   0.53464   0.87550   0.00000  Uiso   1.00
H811   H     0.21307   0.96541   0.76287   0.00000  Uiso   1.00
H812   H     0.19396   0.65380   0.77059   0.00000  Uiso   1.00
H813   H     0.30537   0.84646   0.89638   0.00000  Uiso   1.00
H814   H     0.30604   0.65381   0.89609   0.00000  Uiso   1.00
H815   H     0.19458   0.84644   0.77031   0.00000  Uiso   1.00
H816   H     0.49375   0.80908   0.76829   0.00000  Uiso   1.00
N817   N     0.25000   0.62623   0.83333   0.00000  Uiso   1.00
N818   N     0.25000   0.87376   0.83333   0.00000  Uiso   1.00
O819   O     0.18453   0.78974   0.83334   0.00000  Uiso   1.00
O820   O     0.29558   0.87675   0.90925   0.00000  Uiso   1.00
O821   O     0.31728   0.62335   0.88519   0.00000  Uiso   1.00
O822   O     0.20440   0.87672   0.75742   0.00000  Uiso   1.00
O823   O     0.02386   0.80056   0.75743   0.00000  Uiso   1.00
O824   O     0.47246   0.70148   0.75810   0.00000  Uiso   1.00
O825   O     0.47637   0.80141   0.90798   0.00000  Uiso   1.00
O826   O     0.02731   0.70206   0.90839   0.00000  Uiso   1.00
O827   O     0.31547   0.71026   0.83333   0.00000  Uiso   1.00
O828   O     0.31547   0.78974   0.83333   0.00000  Uiso   1.00
O829   O     0.18453   0.71026   0.83334   0.00000  Uiso   1.00
O830   O     0.25000   0.78973   0.76178   0.00000  Uiso   1.00
O831   O     0.25000   0.71027   0.90489   0.00000  Uiso   1.00
O832   O     0.25000   0.78973   0.90489   0.00000  Uiso   1.00
O833   O     0.25000   0.71027   0.76178   0.00000  Uiso   1.00
O834   O     0.18272   0.62333   0.78147   0.00000  Uiso   1.00
Zn835  Zn    0.25000   0.80307   0.83333   0.00000  Uiso   1.00
Zn836  Zn    0.25000   0.69693   0.83333   0.00000  Uiso   1.00
C837   C     0.66419   0.74994   0.83305   0.00000  Uiso   1.00
C838   C     0.72921   0.94773   0.79439   0.00000  Uiso   1.00
C839   C     0.74988   0.75000   0.73963   0.00000  Uiso   1.00
C840   C     0.75012   0.75000   0.92704   0.00000  Uiso   1.00
C841   C     0.75000   0.52655   0.83333   0.00000  Uiso   1.00
C842   C     0.75000   0.97351   0.83333   0.00000  Uiso   1.00
C843   C     0.74995   0.75000   0.68848   0.00000  Uiso   1.00
C844   C     0.75004   0.75000   0.97818   0.00000  Uiso   1.00
C845   C     0.54625   0.77511   0.79459   0.00000  Uiso   1.00
C846   C     0.95177   0.72689   0.79486   0.00000  Uiso   1.00
C847   C     0.95387   0.77557   0.87122   0.00000  Uiso   1.00
C848   C     0.83582   0.74994   0.83359   0.00000  Uiso   1.00
C849   C     0.54812   0.72714   0.87146   0.00000  Uiso   1.00
C850   C     0.59233   0.77130   0.79242   0.00000  Uiso   1.00
C851   C     0.90532   0.72821   0.79395   0.00000  Uiso   1.00
C852   C     0.90781   0.77171   0.87367   0.00000  Uiso   1.00
C853   C     0.59457   0.72849   0.87256   0.00000  Uiso   1.00
C854   C     0.61630   0.74969   0.83244   0.00000  Uiso   1.00
C855   C     0.88371   0.74971   0.83399   0.00000  Uiso   1.00
C856   C     0.52418   0.75167   0.83318   0.00000  Uiso   1.00
C857   C     0.97582   0.75176   0.83280   0.00000  Uiso   1.00
C858   C     0.61461   0.79016   0.74653   0.00000  Uiso   1.00
C859   C     0.71651   0.60150   0.80843   0.00000  Uiso   1.00
C860   C     0.87877   0.70655   0.75045   0.00000  Uiso   1.00
C861   C     0.88570   0.79091   0.91950   0.00000  Uiso   1.00
C862   C     0.62100   0.70719   0.91636   0.00000  Uiso   1.00
C863   C     0.77182   0.89856   0.87116   0.00000  Uiso   1.00
C864   C     0.78349   0.60151   0.85823   0.00000  Uiso   1.00
C865   C     0.72817   0.89854   0.79550   0.00000  Uiso   1.00
C866   C     0.71553   0.55232   0.80957   0.00000  Uiso   1.00
C867   C     0.77079   0.94774   0.87227   0.00000  Uiso   1.00
C868   C     0.78447   0.55233   0.85709   0.00000  Uiso   1.00
H869   H     0.68764   0.53462   0.79115   0.00000  Uiso   1.00
H870   H     0.50349   0.69399   0.76886   0.00000  Uiso   1.00
H871   H     0.50639   0.80992   0.89682   0.00000  Uiso   1.00
H872   H     0.99635   0.69437   0.89749   0.00000  Uiso   1.00
H873   H     0.64985   0.77917   0.74401   0.00000  Uiso   1.00
H874   H     0.59712   0.77673   0.71211   0.00000  Uiso   1.00
H875   H     0.61289   0.82889   0.74642   0.00000  Uiso   1.00
H876   H     0.85437   0.73227   0.73474   0.00000  Uiso   1.00
H877   H     0.89989   0.69568   0.71922   0.00000  Uiso   1.00
H878   H     0.86074   0.67516   0.76334   0.00000  Uiso   1.00
H879   H     0.85058   0.77963   0.92246   0.00000  Uiso   1.00
H880   H     0.78692   0.96543   0.90378   0.00000  Uiso   1.00
H881   H     0.90351   0.77803   0.95397   0.00000  Uiso   1.00
H882   H     0.88713   0.82965   0.91908   0.00000  Uiso   1.00
H883   H     0.64526   0.73311   0.93200   0.00000  Uiso   1.00
H884   H     0.59978   0.69644   0.94754   0.00000  Uiso   1.00
H885   H     0.63919   0.67580   0.90379   0.00000  Uiso   1.00
H886   H     0.81236   0.53464   0.87550   0.00000  Uiso   1.00
H887   H     0.71307   0.96541   0.76287   0.00000  Uiso   1.00
H888   H     0.69396   0.65380   0.77059   0.00000  Uiso   1.00
H889   H     0.80537   0.84646   0.89638   0.00000  Uiso   1.00
H890   H     0.80604   0.65381   0.89609   0.00000  Uiso   1.00
H891   H     0.69458   0.84644   0.77031   0.00000  Uiso   1.00
H892   H     0.99375   0.80908   0.76829   0.00000  Uiso   1.00
N893   N     0.75000   0.62623   0.83333   0.00000  Uiso   1.00
N894   N     0.75000   0.87376   0.83333   0.00000  Uiso   1.00
O895   O     0.68453   0.78974   0.83334   0.00000  Uiso   1.00
O896   O     0.79558   0.87675   0.90925   0.00000  Uiso   1.00
O897   O     0.81728   0.62335   0.88519   0.00000  Uiso   1.00
O898   O     0.70440   0.87672   0.75742   0.00000  Uiso   1.00
O899   O     0.52386   0.80056   0.75743   0.00000  Uiso   1.00
O900   O     0.97246   0.70148   0.75810   0.00000  Uiso   1.00
O901   O     0.97637   0.80141   0.90798   0.00000  Uiso   1.00
O902   O     0.52731   0.70206   0.90839   0.00000  Uiso   1.00
O903   O     0.81547   0.71026   0.83333   0.00000  Uiso   1.00
O904   O     0.81547   0.78974   0.83333   0.00000  Uiso   1.00
O905   O     0.68453   0.71026   0.83334   0.00000  Uiso   1.00
O906   O     0.75000   0.78973   0.76178   0.00000  Uiso   1.00
O907   O     0.75000   0.71027   0.90489   0.00000  Uiso   1.00
O908   O     0.75000   0.78973   0.90489   0.00000  Uiso   1.00
O909   O     0.75000   0.71027   0.76178   0.00000  Uiso   1.00
O910   O     0.68272   0.62333   0.78147   0.00000  Uiso   1.00
Zn911  Zn    0.75000   0.80307   0.83333   0.00000  Uiso   1.00
Zn912  Zn    0.75000   0.69693   0.83333   0.00000  Uiso   1.00
loop_
_geom_bond_atom_site_label_1
_geom_bond_atom_site_label_2
_geom_bond_distance
_geom_bond_site_symmetry_2
_ccdc_geom_bond_type
C1     C18     1.436   .     S
C1     O69     1.290   .     A
C1     O59     1.293   .     A
C2     C6      1.404   .     A
C2     C29     1.409   .     A
C2     H51     1.082   .     S
C3     C7      1.366   .     S
C3     O73     1.282   .     A
C3     O70     1.282   .     A
C4     C8      1.366   .     S
C4     O71     1.282   .     A
C4     O72     1.282   .     A
C5     C32     1.404   .     A
C5     C30     1.404   .     A
C5     C158    1.518   1_545 S
C6     C31     1.404   .     A
C6     C157    1.518   .     S
C7     C616    1.165   1_554 S
C8     C311    1.165   .     S
C9     C14     1.390   .     A
C9     C20     1.413   .     A
C9     O63     1.386   .     S
C10    O64     1.386   .     S
C10    C21     1.415   .     A
C10    C15     1.394   .     A
C11    C16     1.390   .     A
C11    C21     1.413   .     A
C11    O65     1.386   .     S
C12    O68     1.293   .     A
C12    C19     1.437   .     S
C12    O67     1.290   .     A
C13    C20     1.415   .     A
C13    C17     1.394   .     A
C13    O66     1.386   .     S
C14    C18     1.410   .     A
C14    C22     1.515   .     S
C15    C19     1.411   .     A
C15    C24     1.518   .     S
C16    C19     1.410   .     A
C16    C25     1.515   .     S
C17    C18     1.410   .     A
C17    C26     1.518   .     S
C20    C97     1.451   1_455 S
C21    C96     1.451   .     S
C22    H38     1.111   .     S
C22    H37     1.107   .     S
C22    H39     1.110   .     S
C23    O74     1.373   .     S
C23    C30     1.409   .     A
C23    N57     1.381   .     A
C24    H42     1.110   .     S
C24    H41     1.109   .     S
C24    H40     1.111   .     S
C25    H43     1.107   .     S
C25    H45     1.111   .     S
C25    H46     1.110   .     S
C26    H48     1.109   .     S
C26    H47     1.111   .     S
C26    H49     1.110   .     S
C27    C31     1.409   .     A
C27    O60     1.372   .     S
C27    N58     1.381   .     A
C28    O61     1.373   .     S
C28    N57     1.381   .     A
C28    C32     1.409   .     A
C29    N58     1.381   .     A
C29    O62     1.372   .     S
C30    H33     1.082   .     S
C31    H44     1.082   .     S
C32    H50     1.082   .     S
H34    O140    0.988   1_455 S
H35    O141    0.989   1_455 S
H36    O142    0.989   .     S
H52    O74     0.983   .     S
H53    O60     0.982   .     S
H54    O61     0.983   .     S
H55    O62     0.982   .     S
H56    O139    0.989   .     S
N57    Zn76    2.024   .     S
N58    Zn75    2.024   .     S
O59    Zn75    2.001   .     S
O63    H132    0.989   1_455 S
O64    H110    0.988   .     S
O65    H111    0.989   .     S
O66    H112    0.989   1_455 S
O67    Zn76    2.001   .     S
O68    Zn75    2.001   .     S
O69    Zn76    2.001   .     S
O70    Zn75    1.948   .     S
O71    Zn76    1.948   .     S
O72    Zn75    1.948   .     S
O73    Zn76    1.948   .     S
C77    C94     1.436   .     S
C77    O145    1.290   .     A
C77    O135    1.293   .     A
C78    C82     1.404   .     A
C78    C105    1.409   .     A
C78    H127    1.082   .     S
C79    C83     1.366   .     S
C79    O149    1.282   .     A
C79    O146    1.282   .     A
C80    C84     1.366   .     S
C80    O147    1.282   .     A
C80    O148    1.282   .     A
C81    C108    1.404   .     A
C81    C106    1.404   .     A
C81    C234    1.518   1_545 S
C82    C107    1.404   .     A
C82    C233    1.518   .     S
C83    C692    1.165   1_554 S
C84    C387    1.165   .     S
C85    C90     1.390   .     A
C85    C96     1.413   .     A
C85    O139    1.386   .     S
C86    O140    1.386   .     S
C86    C97     1.415   .     A
C86    C91     1.394   .     A
C87    C92     1.390   .     A
C87    C97     1.413   .     A
C87    O141    1.386   .     S
C88    O144    1.293   .     A
C88    C95     1.437   .     S
C88    O143    1.290   .     A
C89    C96     1.415   .     A
C89    C93     1.394   .     A
C89    O142    1.386   .     S
C90    C94     1.410   .     A
C90    C98     1.515   .     S
C91    C95     1.411   .     A
C91    C100    1.518   .     S
C92    C95     1.410   .     A
C92    C101    1.515   .     S
C93    C94     1.410   .     A
C93    C102    1.518   .     S
C97    C20     1.451   1_655 S
C98    H114    1.111   .     S
C98    H113    1.107   .     S
C98    H115    1.110   .     S
C99    O150    1.373   .     S
C99    C106    1.409   .     A
C99    N133    1.381   .     A
C100   H118    1.110   .     S
C100   H117    1.109   .     S
C100   H116    1.111   .     S
C101   H119    1.107   .     S
C101   H121    1.111   .     S
C101   H122    1.110   .     S
C102   H124    1.109   .     S
C102   H123    1.111   .     S
C102   H125    1.110   .     S
C103   C107    1.409   .     A
C103   O136    1.372   .     S
C103   N134    1.381   .     A
C104   O137    1.373   .     S
C104   N133    1.381   .     A
C104   C108    1.409   .     A
C105   N134    1.381   .     A
C105   O138    1.372   .     S
C106   H109    1.082   .     S
C107   H120    1.082   .     S
C108   H126    1.082   .     S
H112   O66     0.989   1_655 S
H128   O150    0.983   .     S
H129   O136    0.982   .     S
H130   O137    0.983   .     S
H131   O138    0.982   .     S
H132   O63     0.989   1_655 S
N133   Zn152   2.024   .     S
N134   Zn151   2.024   .     S
O135   Zn151   2.001   .     S
O140   H34     0.988   1_655 S
O141   H35     0.989   1_655 S
O143   Zn152   2.001   .     S
O144   Zn151   2.001   .     S
O145   Zn152   2.001   .     S
O146   Zn151   1.948   .     S
O147   Zn152   1.948   .     S
O148   Zn151   1.948   .     S
O149   Zn152   1.948   .     S
C153   C170    1.436   .     S
C153   O221    1.290   .     A
C153   O211    1.293   .     A
C154   C158    1.404   .     A
C154   C181    1.409   .     A
C154   H203    1.082   .     S
C155   C159    1.366   .     S
C155   O225    1.282   .     A
C155   O222    1.282   .     A
C156   C160    1.366   .     S
C156   O223    1.282   .     A
C156   O224    1.282   .     A
C157   C184    1.404   .     A
C157   C182    1.404   .     A
C158   C183    1.404   .     A
C158   C5      1.518   1_565 S
C159   C768    1.165   1_554 S
C160   C463    1.165   .     S
C161   C166    1.390   .     A
C161   C172    1.413   .     A
C161   O215    1.386   .     S
C162   O216    1.386   .     S
C162   C173    1.415   .     A
C162   C167    1.394   .     A
C163   C168    1.390   .     A
C163   C173    1.413   .     A
C163   O217    1.386   .     S
C164   O220    1.293   .     A
C164   C171    1.437   .     S
C164   O219    1.290   .     A
C165   C172    1.415   .     A
C165   C169    1.394   .     A
C165   O218    1.386   .     S
C166   C170    1.410   .     A
C166   C174    1.515   .     S
C167   C171    1.411   .     A
C167   C176    1.518   .     S
C168   C171    1.410   .     A
C168   C177    1.515   .     S
C169   C170    1.410   .     A
C169   C178    1.518   .     S
C172   C249    1.451   1_455 S
C173   C248    1.451   .     S
C174   H190    1.111   .     S
C174   H189    1.107   .     S
C174   H191    1.110   .     S
C175   O226    1.373   .     S
C175   C182    1.409   .     A
C175   N209    1.381   .     A
C176   H194    1.110   .     S
C176   H193    1.109   .     S
C176   H192    1.111   .     S
C177   H195    1.107   .     S
C177   H197    1.111   .     S
C177   H198    1.110   .     S
C178   H200    1.109   .     S
C178   H199    1.111   .     S
C178   H201    1.110   .     S
C179   C183    1.409   .     A
C179   O212    1.372   .     S
C179   N210    1.381   .     A
C180   O213    1.373   .     S
C180   N209    1.381   .     A
C180   C184    1.409   .     A
C181   N210    1.381   .     A
C181   O214    1.372   .     S
C182   H185    1.082   .     S
C183   H196    1.082   .     S
C184   H202    1.082   .     S
H186   O292    0.988   1_455 S
H187   O293    0.989   1_455 S
H188   O294    0.989   .     S
H204   O226    0.983   .     S
H205   O212    0.982   .     S
H206   O213    0.983   .     S
H207   O214    0.982   .     S
H208   O291    0.989   .     S
N209   Zn228   2.024   .     S
N210   Zn227   2.024   .     S
O211   Zn227   2.001   .     S
O215   H284    0.989   1_455 S
O216   H262    0.988   .     S
O217   H263    0.989   .     S
O218   H264    0.989   1_455 S
O219   Zn228   2.001   .     S
O220   Zn227   2.001   .     S
O221   Zn228   2.001   .     S
O222   Zn227   1.948   .     S
O223   Zn228   1.948   .     S
O224   Zn227   1.948   .     S
O225   Zn228   1.948   .     S
C229   C246    1.436   .     S
C229   O297    1.290   .     A
C229   O287    1.293   .     A
C230   C234    1.404   .     A
C230   C257    1.409   .     A
C230   H279    1.082   .     S
C231   C235    1.366   .     S
C231   O301    1.282   .     A
C231   O298    1.282   .     A
C232   C236    1.366   .     S
C232   O299    1.282   .     A
C232   O300    1.282   .     A
C233   C260    1.404   .     A
C233   C258    1.404   .     A
C234   C259    1.404   .     A
C234   C81     1.518   1_565 S
C235   C844    1.165   1_554 S
C236   C539    1.165   .     S
C237   C242    1.390   .     A
C237   C248    1.413   .     A
C237   O291    1.386   .     S
C238   O292    1.386   .     S
C238   C249    1.415   .     A
C238   C243    1.394   .     A
C239   C244    1.390   .     A
C239   C249    1.413   .     A
C239   O293    1.386   .     S
C240   O296    1.293   .     A
C240   C247    1.437   .     S
C240   O295    1.290   .     A
C241   C248    1.415   .     A
C241   C245    1.394   .     A
C241   O294    1.386   .     S
C242   C246    1.410   .     A
C242   C250    1.515   .     S
C243   C247    1.411   .     A
C243   C252    1.518   .     S
C244   C247    1.410   .     A
C244   C253    1.515   .     S
C245   C246    1.410   .     A
C245   C254    1.518   .     S
C249   C172    1.451   1_655 S
C250   H266    1.111   .     S
C250   H265    1.107   .     S
C250   H267    1.110   .     S
C251   O302    1.373   .     S
C251   C258    1.409   .     A
C251   N285    1.381   .     A
C252   H270    1.110   .     S
C252   H269    1.109   .     S
C252   H268    1.111   .     S
C253   H271    1.107   .     S
C253   H273    1.111   .     S
C253   H274    1.110   .     S
C254   H276    1.109   .     S
C254   H275    1.111   .     S
C254   H277    1.110   .     S
C255   C259    1.409   .     A
C255   O288    1.372   .     S
C255   N286    1.381   .     A
C256   O289    1.373   .     S
C256   N285    1.381   .     A
C256   C260    1.409   .     A
C257   N286    1.381   .     A
C257   O290    1.372   .     S
C258   H261    1.082   .     S
C259   H272    1.082   .     S
C260   H278    1.082   .     S
H264   O218    0.989   1_655 S
H280   O302    0.983   .     S
H281   O288    0.982   .     S
H282   O289    0.983   .     S
H283   O290    0.982   .     S
H284   O215    0.989   1_655 S
N285   Zn304   2.024   .     S
N286   Zn303   2.024   .     S
O287   Zn303   2.001   .     S
O292   H186    0.988   1_655 S
O293   H187    0.989   1_655 S
O295   Zn304   2.001   .     S
O296   Zn303   2.001   .     S
O297   Zn304   2.001   .     S
O298   Zn303   1.948   .     S
O299   Zn304   1.948   .     S
O300   Zn303   1.948   .     S
O301   Zn304   1.948   .     S
C305   C322    1.436   .     S
C305   O373    1.290   .     A
C305   O363    1.293   .     A
C306   C310    1.404   .     A
C306   C333    1.409   .     A
C306   H355    1.082   .     S
C307   C311    1.366   .     S
C307   O377    1.282   .     A
C307   O374    1.282   .     A
C308   C312    1.366   .     S
C308   O375    1.282   .     A
C308   O376    1.282   .     A
C309   C336    1.404   .     A
C309   C334    1.404   .     A
C309   C462    1.518   1_545 S
C310   C335    1.404   .     A
C310   C461    1.518   .     S
C312   C615    1.165   .     S
C313   C318    1.390   .     A
C313   C324    1.413   .     A
C313   O367    1.386   .     S
C314   O368    1.386   .     S
C314   C325    1.415   .     A
C314   C319    1.394   .     A
C315   C320    1.390   .     A
C315   C325    1.413   .     A
C315   O369    1.386   .     S
C316   O372    1.293   .     A
C316   C323    1.437   .     S
C316   O371    1.290   .     A
C317   C324    1.415   .     A
C317   C321    1.394   .     A
C317   O370    1.386   .     S
C318   C322    1.410   .     A
C318   C326    1.515   .     S
C319   C323    1.411   .     A
C319   C328    1.518   .     S
C320   C323    1.410   .     A
C320   C329    1.515   .     S
C321   C322    1.410   .     A
C321   C330    1.518   .     S
C324   C401    1.451   1_455 S
C325   C400    1.451   .     S
C326   H342    1.111   .     S
C326   H341    1.107   .     S
C326   H343    1.110   .     S
C327   O378    1.373   .     S
C327   C334    1.409   .     A
C327   N361    1.381   .     A
C328   H346    1.110   .     S
C328   H345    1.109   .     S
C328   H344    1.111   .     S
C329   H347    1.107   .     S
C329   H349    1.111   .     S
C329   H350    1.110   .     S
C330   H352    1.109   .     S
C330   H351    1.111   .     S
C330   H353    1.110   .     S
C331   C335    1.409   .     A
C331   O364    1.372   .     S
C331   N362    1.381   .     A
C332   O365    1.373   .     S
C332   N361    1.381   .     A
C332   C336    1.409   .     A
C333   N362    1.381   .     A
C333   O366    1.372   .     S
C334   H337    1.082   .     S
C335   H348    1.082   .     S
C336   H354    1.082   .     S
H338   O444    0.988   1_455 S
H339   O445    0.989   1_455 S
H340   O446    0.989   .     S
H356   O378    0.983   .     S
H357   O364    0.982   .     S
H358   O365    0.983   .     S
H359   O366    0.982   .     S
H360   O443    0.989   .     S
N361   Zn380   2.024   .     S
N362   Zn379   2.024   .     S
O363   Zn379   2.001   .     S
O367   H436    0.989   1_455 S
O368   H414    0.988   .     S
O369   H415    0.989   .     S
O370   H416    0.989   1_455 S
O371   Zn380   2.001   .     S
O372   Zn379   2.001   .     S
O373   Zn380   2.001   .     S
O374   Zn379   1.948   .     S
O375   Zn380   1.948   .     S
O376   Zn379   1.948   .     S
O377   Zn380   1.948   .     S
C381   C398    1.436   .     S
C381   O449    1.290   .     A
C381   O439    1.293   .     A
C382   C386    1.404   .     A
C382   C409    1.409   .     A
C382   H431    1.082   .     S
C383   C387    1.366   .     S
C383   O453    1.282   .     A
C383   O450    1.282   .     A
C384   C388    1.366   .     S
C384   O451    1.282   .     A
C384   O452    1.282   .     A
C385   C412    1.404   .     A
C385   C410    1.404   .     A
C385   C538    1.518   1_545 S
C386   C411    1.404   .     A
C386   C537    1.518   .     S
C388   C691    1.165   .     S
C389   C394    1.390   .     A
C389   C400    1.413   .     A
C389   O443    1.386   .     S
C390   O444    1.386   .     S
C390   C401    1.415   .     A
C390   C395    1.394   .     A
C391   C396    1.390   .     A
C391   C401    1.413   .     A
C391   O445    1.386   .     S
C392   O448    1.293   .     A
C392   C399    1.437   .     S
C392   O447    1.290   .     A
C393   C400    1.415   .     A
C393   C397    1.394   .     A
C393   O446    1.386   .     S
C394   C398    1.410   .     A
C394   C402    1.515   .     S
C395   C399    1.411   .     A
C395   C404    1.518   .     S
C396   C399    1.410   .     A
C396   C405    1.515   .     S
C397   C398    1.410   .     A
C397   C406    1.518   .     S
C401   C324    1.451   1_655 S
C402   H418    1.111   .     S
C402   H417    1.107   .     S
C402   H419    1.110   .     S
C403   O454    1.373   .     S
C403   C410    1.409   .     A
C403   N437    1.381   .     A
C404   H422    1.110   .     S
C404   H421    1.109   .     S
C404   H420    1.111   .     S
C405   H423    1.107   .     S
C405   H425    1.111   .     S
C405   H426    1.110   .     S
C406   H428    1.109   .     S
C406   H427    1.111   .     S
C406   H429    1.110   .     S
C407   C411    1.409   .     A
C407   O440    1.372   .     S
C407   N438    1.381   .     A
C408   O441    1.373   .     S
C408   N437    1.381   .     A
C408   C412    1.409   .     A
C409   N438    1.381   .     A
C409   O442    1.372   .     S
C410   H413    1.082   .     S
C411   H424    1.082   .     S
C412   H430    1.082   .     S
H416   O370    0.989   1_655 S
H432   O454    0.983   .     S
H433   O440    0.982   .     S
H434   O441    0.983   .     S
H435   O442    0.982   .     S
H436   O367    0.989   1_655 S
N437   Zn456   2.024   .     S
N438   Zn455   2.024   .     S
O439   Zn455   2.001   .     S
O444   H338    0.988   1_655 S
O445   H339    0.989   1_655 S
O447   Zn456   2.001   .     S
O448   Zn455   2.001   .     S
O449   Zn456   2.001   .     S
O450   Zn455   1.948   .     S
O451   Zn456   1.948   .     S
O452   Zn455   1.948   .     S
O453   Zn456   1.948   .     S
C457   C474    1.436   .     S
C457   O525    1.290   .     A
C457   O515    1.293   .     A
C458   C462    1.404   .     A
C458   C485    1.409   .     A
C458   H507    1.082   .     S
C459   C463    1.366   .     S
C459   O529    1.282   .     A
C459   O526    1.282   .     A
C460   C464    1.366   .     S
C460   O527    1.282   .     A
C460   O528    1.282   .     A
C461   C488    1.404   .     A
C461   C486    1.404   .     A
C462   C487    1.404   .     A
C462   C309    1.518   1_565 S
C464   C767    1.165   .     S
C465   C470    1.390   .     A
C465   C476    1.413   .     A
C465   O519    1.386   .     S
C466   O520    1.386   .     S
C466   C477    1.415   .     A
C466   C471    1.394   .     A
C467   C472    1.390   .     A
C467   C477    1.413   .     A
C467   O521    1.386   .     S
C468   O524    1.293   .     A
C468   C475    1.437   .     S
C468   O523    1.290   .     A
C469   C476    1.415   .     A
C469   C473    1.394   .     A
C469   O522    1.386   .     S
C470   C474    1.410   .     A
C470   C478    1.515   .     S
C471   C475    1.411   .     A
C471   C480    1.518   .     S
C472   C475    1.410   .     A
C472   C481    1.515   .     S
C473   C474    1.410   .     A
C473   C482    1.518   .     S
C476   C553    1.451   1_455 S
C477   C552    1.451   .     S
C478   H494    1.111   .     S
C478   H493    1.107   .     S
C478   H495    1.110   .     S
C479   O530    1.373   .     S
C479   C486    1.409   .     A
C479   N513    1.381   .     A
C480   H498    1.110   .     S
C480   H497    1.109   .     S
C480   H496    1.111   .     S
C481   H499    1.107   .     S
C481   H501    1.111   .     S
C481   H502    1.110   .     S
C482   H504    1.109   .     S
C482   H503    1.111   .     S
C482   H505    1.110   .     S
C483   C487    1.409   .     A
C483   O516    1.372   .     S
C483   N514    1.381   .     A
C484   O517    1.373   .     S
C484   N513    1.381   .     A
C484   C488    1.409   .     A
C485   N514    1.381   .     A
C485   O518    1.372   .     S
C486   H489    1.082   .     S
C487   H500    1.082   .     S
C488   H506    1.082   .     S
H490   O596    0.988   1_455 S
H491   O597    0.989   1_455 S
H492   O598    0.989   .     S
H508   O530    0.983   .     S
H509   O516    0.982   .     S
H510   O517    0.983   .     S
H511   O518    0.982   .     S
H512   O595    0.989   .     S
N513   Zn532   2.024   .     S
N514   Zn531   2.024   .     S
O515   Zn531   2.001   .     S
O519   H588    0.989   1_455 S
O520   H566    0.988   .     S
O521   H567    0.989   .     S
O522   H568    0.989   1_455 S
O523   Zn532   2.001   .     S
O524   Zn531   2.001   .     S
O525   Zn532   2.001   .     S
O526   Zn531   1.948   .     S
O527   Zn532   1.948   .     S
O528   Zn531   1.948   .     S
O529   Zn532   1.948   .     S
C533   C550    1.436   .     S
C533   O601    1.290   .     A
C533   O591    1.293   .     A
C534   C538    1.404   .     A
C534   C561    1.409   .     A
C534   H583    1.082   .     S
C535   C539    1.366   .     S
C535   O605    1.282   .     A
C535   O602    1.282   .     A
C536   C540    1.366   .     S
C536   O603    1.282   .     A
C536   O604    1.282   .     A
C537   C564    1.404   .     A
C537   C562    1.404   .     A
C538   C563    1.404   .     A
C538   C385    1.518   1_565 S
C540   C843    1.165   .     S
C541   C546    1.390   .     A
C541   C552    1.413   .     A
C541   O595    1.386   .     S
C542   O596    1.386   .     S
C542   C553    1.415   .     A
C542   C547    1.394   .     A
C543   C548    1.390   .     A
C543   C553    1.413   .     A
C543   O597    1.386   .     S
C544   O600    1.293   .     A
C544   C551    1.437   .     S
C544   O599    1.290   .     A
C545   C552    1.415   .     A
C545   C549    1.394   .     A
C545   O598    1.386   .     S
C546   C550    1.410   .     A
C546   C554    1.515   .     S
C547   C551    1.411   .     A
C547   C556    1.518   .     S
C548   C551    1.410   .     A
C548   C557    1.515   .     S
C549   C550    1.410   .     A
C549   C558    1.518   .     S
C553   C476    1.451   1_655 S
C554   H570    1.111   .     S
C554   H569    1.107   .     S
C554   H571    1.110   .     S
C555   O606    1.373   .     S
C555   C562    1.409   .     A
C555   N589    1.381   .     A
C556   H574    1.110   .     S
C556   H573    1.109   .     S
C556   H572    1.111   .     S
C557   H575    1.107   .     S
C557   H577    1.111   .     S
C557   H578    1.110   .     S
C558   H580    1.109   .     S
C558   H579    1.111   .     S
C558   H581    1.110   .     S
C559   C563    1.409   .     A
C559   O592    1.372   .     S
C559   N590    1.381   .     A
C560   O593    1.373   .     S
C560   N589    1.381   .     A
C560   C564    1.409   .     A
C561   N590    1.381   .     A
C561   O594    1.372   .     S
C562   H565    1.082   .     S
C563   H576    1.082   .     S
C564   H582    1.082   .     S
H568   O522    0.989   1_655 S
H584   O606    0.983   .     S
H585   O592    0.982   .     S
H586   O593    0.983   .     S
H587   O594    0.982   .     S
H588   O519    0.989   1_655 S
N589   Zn608   2.024   .     S
N590   Zn607   2.024   .     S
O591   Zn607   2.001   .     S
O596   H490    0.988   1_655 S
O597   H491    0.989   1_655 S
O599   Zn608   2.001   .     S
O600   Zn607   2.001   .     S
O601   Zn608   2.001   .     S
O602   Zn607   1.948   .     S
O603   Zn608   1.948   .     S
O604   Zn607   1.948   .     S
O605   Zn608   1.948   .     S
C609   C626    1.436   .     S
C609   O677    1.290   .     A
C609   O667    1.293   .     A
C610   C614    1.404   .     A
C610   C637    1.409   .     A
C610   H659    1.082   .     S
C611   C615    1.366   .     S
C611   O681    1.282   .     A
C611   O678    1.282   .     A
C612   C616    1.366   .     S
C612   O679    1.282   .     A
C612   O680    1.282   .     A
C613   C640    1.404   .     A
C613   C638    1.404   .     A
C613   C766    1.518   1_545 S
C614   C639    1.404   .     A
C614   C765    1.518   .     S
C616   C7      1.165   1_556 S
C617   C622    1.390   .     A
C617   C628    1.413   .     A
C617   O671    1.386   .     S
C618   O672    1.386   .     S
C618   C629    1.415   .     A
C618   C623    1.394   .     A
C619   C624    1.390   .     A
C619   C629    1.413   .     A
C619   O673    1.386   .     S
C620   O676    1.293   .     A
C620   C627    1.437   .     S
C620   O675    1.290   .     A
C621   C628    1.415   .     A
C621   C625    1.394   .     A
C621   O674    1.386   .     S
C622   C626    1.410   .     A
C622   C630    1.515   .     S
C623   C627    1.411   .     A
C623   C632    1.518   .     S
C624   C627    1.410   .     A
C624   C633    1.515   .     S
C625   C626    1.410   .     A
C625   C634    1.518   .     S
C628   C705    1.451   1_455 S
C629   C704    1.451   .     S
C630   H646    1.111   .     S
C630   H645    1.107   .     S
C630   H647    1.110   .     S
C631   O682    1.373   .     S
C631   C638    1.409   .     A
C631   N665    1.381   .     A
C632   H650    1.110   .     S
C632   H649    1.109   .     S
C632   H648    1.111   .     S
C633   H651    1.107   .     S
C633   H653    1.111   .     S
C633   H654    1.110   .     S
C634   H656    1.109   .     S
C634   H655    1.111   .     S
C634   H657    1.110   .     S
C635   C639    1.409   .     A
C635   O668    1.372   .     S
C635   N666    1.381   .     A
C636   O669    1.373   .     S
C636   N665    1.381   .     A
C636   C640    1.409   .     A
C637   N666    1.381   .     A
C637   O670    1.372   .     S
C638   H641    1.082   .     S
C639   H652    1.082   .     S
C640   H658    1.082   .     S
H642   O748    0.988   1_455 S
H643   O749    0.989   1_455 S
H644   O750    0.989   .     S
H660   O682    0.983   .     S
H661   O668    0.982   .     S
H662   O669    0.983   .     S
H663   O670    0.982   .     S
H664   O747    0.989   .     S
N665   Zn684   2.024   .     S
N666   Zn683   2.024   .     S
O667   Zn683   2.001   .     S
O671   H740    0.989   1_455 S
O672   H718    0.988   .     S
O673   H719    0.989   .     S
O674   H720    0.989   1_455 S
O675   Zn684   2.001   .     S
O676   Zn683   2.001   .     S
O677   Zn684   2.001   .     S
O678   Zn683   1.948   .     S
O679   Zn684   1.948   .     S
O680   Zn683   1.948   .     S
O681   Zn684   1.948   .     S
C685   C702    1.436   .     S
C685   O753    1.290   .     A
C685   O743    1.293   .     A
C686   C690    1.404   .     A
C686   C713    1.409   .     A
C686   H735    1.082   .     S
C687   C691    1.366   .     S
C687   O757    1.282   .     A
C687   O754    1.282   .     A
C688   C692    1.366   .     S
C688   O755    1.282   .     A
C688   O756    1.282   .     A
C689   C716    1.404   .     A
C689   C714    1.404   .     A
C689   C842    1.518   1_545 S
C690   C715    1.404   .     A
C690   C841    1.518   .     S
C692   C83     1.165   1_556 S
C693   C698    1.390   .     A
C693   C704    1.413   .     A
C693   O747    1.386   .     S
C694   O748    1.386   .     S
C694   C705    1.415   .     A
C694   C699    1.394   .     A
C695   C700    1.390   .     A
C695   C705    1.413   .     A
C695   O749    1.386   .     S
C696   O752    1.293   .     A
C696   C703    1.437   .     S
C696   O751    1.290   .     A
C697   C704    1.415   .     A
C697   C701    1.394   .     A
C697   O750    1.386   .     S
C698   C702    1.410   .     A
C698   C706    1.515   .     S
C699   C703    1.411   .     A
C699   C708    1.518   .     S
C700   C703    1.410   .     A
C700   C709    1.515   .     S
C701   C702    1.410   .     A
C701   C710    1.518   .     S
C705   C628    1.451   1_655 S
C706   H722    1.111   .     S
C706   H721    1.107   .     S
C706   H723    1.110   .     S
C707   O758    1.373   .     S
C707   C714    1.409   .     A
C707   N741    1.381   .     A
C708   H726    1.110   .     S
C708   H725    1.109   .     S
C708   H724    1.111   .     S
C709   H727    1.107   .     S
C709   H729    1.111   .     S
C709   H730    1.110   .     S
C710   H732    1.109   .     S
C710   H731    1.111   .     S
C710   H733    1.110   .     S
C711   C715    1.409   .     A
C711   O744    1.372   .     S
C711   N742    1.381   .     A
C712   O745    1.373   .     S
C712   N741    1.381   .     A
C712   C716    1.409   .     A
C713   N742    1.381   .     A
C713   O746    1.372   .     S
C714   H717    1.082   .     S
C715   H728    1.082   .     S
C716   H734    1.082   .     S
H720   O674    0.989   1_655 S
H736   O758    0.983   .     S
H737   O744    0.982   .     S
H738   O745    0.983   .     S
H739   O746    0.982   .     S
H740   O671    0.989   1_655 S
N741   Zn760   2.024   .     S
N742   Zn759   2.024   .     S
O743   Zn759   2.001   .     S
O748   H642    0.988   1_655 S
O749   H643    0.989   1_655 S
O751   Zn760   2.001   .     S
O752   Zn759   2.001   .     S
O753   Zn760   2.001   .     S
O754   Zn759   1.948   .     S
O755   Zn760   1.948   .     S
O756   Zn759   1.948   .     S
O757   Zn760   1.948   .     S
C761   C778    1.436   .     S
C761   O829    1.290   .     A
C761   O819    1.293   .     A
C762   C766    1.404   .     A
C762   C789    1.409   .     A
C762   H811    1.082   .     S
C763   C767    1.366   .     S
C763   O833    1.282   .     A
C763   O830    1.282   .     A
C764   C768    1.366   .     S
C764   O831    1.282   .     A
C764   O832    1.282   .     A
C765   C792    1.404   .     A
C765   C790    1.404   .     A
C766   C791    1.404   .     A
C766   C613    1.518   1_565 S
C768   C159    1.165   1_556 S
C769   C774    1.390   .     A
C769   C780    1.413   .     A
C769   O823    1.386   .     S
C770   O824    1.386   .     S
C770   C781    1.415   .     A
C770   C775    1.394   .     A
C771   C776    1.390   .     A
C771   C781    1.413   .     A
C771   O825    1.386   .     S
C772   O828    1.293   .     A
C772   C779    1.437   .     S
C772   O827    1.290   .     A
C773   C780    1.415   .     A
C773   C777    1.394   .     A
C773   O826    1.386   .     S
C774   C778    1.410   .     A
C774   C782    1.515   .     S
C775   C779    1.411   .     A
C775   C784    1.518   .     S
C776   C779    1.410   .     A
C776   C785    1.515   .     S
C777   C778    1.410   .     A
C777   C786    1.518   .     S
C780   C857    1.451   1_455 S
C781   C856    1.451   .     S
C782   H798    1.111   .     S
C782   H797    1.107   .     S
C782   H799    1.110   .     S
C783   O834    1.373   .     S
C783   C790    1.409   .     A
C783   N817    1.381   .     A
C784   H802    1.110   .     S
C784   H801    1.109   .     S
C784   H800    1.111   .     S
C785   H803    1.107   .     S
C785   H805    1.111   .     S
C785   H806    1.110   .     S
C786   H808    1.109   .     S
C786   H807    1.111   .     S
C786   H809    1.110   .     S
C787   C791    1.409   .     A
C787   O820    1.372   .     S
C787   N818    1.381   .     A
C788   O821    1.373   .     S
C788   N817    1.381   .     A
C788   C792    1.409   .     A
C789   N818    1.381   .     A
C789   O822    1.372   .     S
C790   H793    1.082   .     S
C791   H804    1.082   .     S
C792   H810    1.082   .     S
H794   O900    0.988   1_455 S
H795   O901    0.989   1_455 S
H796   O902    0.989   .     S
H812   O834    0.983   .     S
H813   O820    0.982   .     S
H814   O821    0.983   .     S
H815   O822    0.982   .     S
H816   O899    0.989   .     S
N817   Zn836   2.024   .     S
N818   Zn835   2.024   .     S
O819   Zn835   2.001   .     S
O823   H892    0.989   1_455 S
O824   H870    0.988   .     S
O825   H871    0.989   .     S
O826   H872    0.989   1_455 S
O827   Zn836   2.001   .     S
O828   Zn835   2.001   .     S
O829   Zn836   2.001   .     S
O830   Zn835   1.948   .     S
O831   Zn836   1.948   .     S
O832   Zn835   1.948   .     S
O833   Zn836   1.948   .     S
C837   C854    1.436   .     S
C837   O905    1.290   .     A
C837   O895    1.293   .     A
C838   C842    1.404   .     A
C838   C865    1.409   .     A
C838   H887    1.082   .     S
C839   C843    1.366   .     S
C839   O909    1.282   .     A
C839   O906    1.282   .     A
C840   C844    1.366   .     S
C840   O907    1.282   .     A
C840   O908    1.282   .     A
C841   C868    1.404   .     A
C841   C866    1.404   .     A
C842   C867    1.404   .     A
C842   C689    1.518   1_565 S
C844   C235    1.165   1_556 S
C845   C850    1.390   .     A
C845   C856    1.413   .     A
C845   O899    1.386   .     S
C846   O900    1.386   .     S
C846   C857    1.415   .     A
C846   C851    1.394   .     A
C847   C852    1.390   .     A
C847   C857    1.413   .     A
C847   O901    1.386   .     S
C848   O904    1.293   .     A
C848   C855    1.437   .     S
C848   O903    1.290   .     A
C849   C856    1.415   .     A
C849   C853    1.394   .     A
C849   O902    1.386   .     S
C850   C854    1.410   .     A
C850   C858    1.515   .     S
C851   C855    1.411   .     A
C851   C860    1.518   .     S
C852   C855    1.410   .     A
C852   C861    1.515   .     S
C853   C854    1.410   .     A
C853   C862    1.518   .     S
C857   C780    1.451   1_655 S
C858   H874    1.111   .     S
C858   H873    1.107   .     S
C858   H875    1.110   .     S
C859   O910    1.373   .     S
C859   C866    1.409   .     A
C859   N893    1.381   .     A
C860   H878    1.110   .     S
C860   H877    1.109   .     S
C860   H876    1.111   .     S
C861   H879    1.107   .     S
C861   H881    1.111   .     S
C861   H882    1.110   .     S
C862   H884    1.109   .     S
C862   H883    1.111   .     S
C862   H885    1.110   .     S
C863   C867    1.409   .     A
C863   O896    1.372   .     S
C863   N894    1.381   .     A
C864   O897    1.373   .     S
C864   N893    1.381   .     A
C864   C868    1.409   .     A
C865   N894    1.381   .     A
C865   O898    1.372   .     S
C866   H869    1.082   .     S
C867   H880    1.082   .     S
C868   H886    1.082   .     S
H872   O826    0.989   1_655 S
H888   O910    0.983   .     S
H889   O896    0.982   .     S
H890   O897    0.983   .     S
H891   O898    0.982   .     S
H892   O823    0.989   1_655 S
N893   Zn912   2.024   .     S
N894   Zn911   2.024   .     S
O895   Zn911   2.001   .     S
O900   H794    0.988   1_655 S
O901   H795    0.989   1_655 S
O903   Zn912   2.001   .     S
O904   Zn911   2.001   .     S
O905   Zn912   2.001   .     S
O906   Zn911   1.948   .     S
O907   Zn912   1.948   .     S
O908   Zn911   1.948   .     S
O909   Zn912   1.948   .     S
