data_str_m2_o2_o10_pcu_sym.142
_audit_creation_date              2020-01-03
_audit_creation_method            'Materials Studio'
_symmetry_space_group_name_H-M    'P1'
_symmetry_Int_Tables_number       1
_symmetry_cell_setting            triclinic
loop_
_symmetry_equiv_pos_as_xyz
  x,y,z
_cell_length_a                    26.2766
_cell_length_b                    30.2799
_cell_length_c                    27.7937
_cell_angle_alpha                 90.4507
_cell_angle_beta                  97.4520
_cell_angle_gamma                 90.1277
loop_
_atom_site_label
_atom_site_type_symbol
_atom_site_fract_x
_atom_site_fract_y
_atom_site_fract_z
_atom_site_U_iso_or_equiv
_atom_site_adp_type
_atom_site_occupancy
C1     C     0.16784   0.16517   0.24994   0.00000  Uiso   1.00
C2     C     0.16449   0.33506   0.25000   0.00000  Uiso   1.00
C3     C     0.21348   0.26143   0.06040   0.00000  Uiso   1.00
C4     C     0.15055   0.21010   0.44271   0.00000  Uiso   1.00
C5     C     0.20935   0.26438   0.11067   0.00000  Uiso   1.00
C6     C     0.14762   0.21398   0.39169   0.00000  Uiso   1.00
C7     C     0.12616   0.23315   0.09843   0.00000  Uiso   1.00
C8     C     0.18778   0.28403   0.39934   0.00000  Uiso   1.00
C9     C     0.12652   0.23428   0.04770   0.00000  Uiso   1.00
C10    C     0.18664   0.28356   0.44991   0.00000  Uiso   1.00
C11    C     0.17062   0.24676   0.02766   0.00000  Uiso   1.00
C12    C     0.16978   0.24617   0.47294   0.00000  Uiso   1.00
C13    C     0.06817   0.25145   0.23801   0.00000  Uiso   1.00
C14    C     0.26524   0.24974   0.26219   0.00000  Uiso   1.00
C15    C     0.01404   0.26061   0.23391   0.00000  Uiso   1.00
C16    C     0.31977   0.24327   0.26740   0.00000  Uiso   1.00
C17    C     0.12727   0.04940   0.26810   0.00000  Uiso   1.00
C18    C     0.17725   0.45194   0.20975   0.00000  Uiso   1.00
C19    C     0.12972   0.09513   0.26906   0.00000  Uiso   1.00
C20    C     0.17680   0.40616   0.21051   0.00000  Uiso   1.00
C21    C     0.16912   0.11717   0.24966   0.00000  Uiso   1.00
C22    C     0.16127   0.38352   0.25004   0.00000  Uiso   1.00
C23    C     0.20756   0.09298   0.22955   0.00000  Uiso   1.00
C24    C     0.14456   0.40789   0.28896   0.00000  Uiso   1.00
C25    C     0.20493   0.04680   0.22970   0.00000  Uiso   1.00
C26    C     0.14759   0.45395   0.28866   0.00000  Uiso   1.00
C27    C     0.16504   0.02483   0.24877   0.00000  Uiso   1.00
C28    C     0.16338   0.47622   0.24909   0.00000  Uiso   1.00
Cu29   Cu    0.16667   0.24999   0.29821   0.00000  Uiso   1.00
Cu30   Cu    0.16667   0.25000   0.20178   0.00000  Uiso   1.00
H31    H     0.09545   0.03333   0.28209   0.00000  Uiso   1.00
H32    H     0.18848   0.46833   0.17826   0.00000  Uiso   1.00
H33    H     0.10009   0.11347   0.28414   0.00000  Uiso   1.00
H34    H     0.18914   0.38844   0.18007   0.00000  Uiso   1.00
H35    H     0.23498   0.02773   0.21618   0.00000  Uiso   1.00
H36    H     0.13666   0.47254   0.31915   0.00000  Uiso   1.00
H37    H     0.24154   0.27667   0.13511   0.00000  Uiso   1.00
H38    H     0.13176   0.18702   0.36875   0.00000  Uiso   1.00
H39    H     0.09241   0.22424   0.02401   0.00000  Uiso   1.00
H40    H     0.20004   0.31237   0.47122   0.00000  Uiso   1.00
N41    N     0.16667   0.25001   0.12935   0.00000  Uiso   1.00
N42    N     0.16667   0.24999   0.37065   0.00000  Uiso   1.00
O43    O     0.16667   0.18572   0.29071   0.00000  Uiso   1.00
O44    O     0.16666   0.31427   0.20928   0.00000  Uiso   1.00
O45    O     0.16667   0.18573   0.20928   0.00000  Uiso   1.00
O46    O     0.16666   0.31427   0.29072   0.00000  Uiso   1.00
O47    O     0.09161   0.24999   0.28132   0.00000  Uiso   1.00
O48    O     0.24172   0.25000   0.21868   0.00000  Uiso   1.00
O49    O     0.09161   0.25000   0.19988   0.00000  Uiso   1.00
O50    O     0.24172   0.25000   0.30011   0.00000  Uiso   1.00
C51    C     0.32841   0.29716   0.20048   0.00000  Uiso   1.00
O52    O     0.01228   0.30157   0.16199   0.00000  Uiso   1.00
O53    O     0.29319   0.32794   0.21416   0.00000  Uiso   1.00
H54    H     0.28393   0.35129   0.18859   0.00000  Uiso   1.00
C55    C     0.00694   0.20922   0.30348   0.00000  Uiso   1.00
O56    O     0.02588   0.17542   0.28956   0.00000  Uiso   1.00
O57    O     0.00465   0.21511   0.35307   0.00000  Uiso   1.00
H58    H     0.32499   0.24536   0.36120   0.00000  Uiso   1.00
C59    C     0.25182   0.11404   0.20995   0.00000  Uiso   1.00
O60    O     0.26480   0.15186   0.22122   0.00000  Uiso   1.00
O61    O     0.27981   0.08993   0.17926   0.00000  Uiso   1.00
H62    H     0.30952   0.10746   0.16915   0.00000  Uiso   1.00
C63    C     0.12143   0.38733   0.32928   0.00000  Uiso   1.00
O64    O     0.08939   0.35796   0.32096   0.00000  Uiso   1.00
O65    O     0.13473   0.40303   0.37671   0.00000  Uiso   1.00
H66    H     0.11672   0.38637   0.40115   0.00000  Uiso   1.00
C67    C     0.26358   0.27209   0.04406   0.00000  Uiso   1.00
O68    O     0.27903   0.25055   0.01151   0.00000  Uiso   1.00
O69    O     0.29360   0.30646   0.06645   0.00000  Uiso   1.00
H70    H     0.32699   0.31044   0.05231   0.00000  Uiso   1.00
C71    C     0.13564   0.16724   0.46246   0.00000  Uiso   1.00
O72    O     0.15781   0.15364   0.00087   0.00000  Uiso   1.00
O73    O     0.09723   0.14155   0.43611   0.00000  Uiso   1.00
H74    H     0.09065   0.11296   0.45305   0.00000  Uiso   1.00
O75    O     0.08335   0.21716   0.11674   0.00000  Uiso   1.00
C76    C     0.07588   0.17159   0.10598   0.00000  Uiso   1.00
H77    H     0.07855   0.15356   0.14089   0.00000  Uiso   1.00
H78    H     0.10509   0.15655   0.08501   0.00000  Uiso   1.00
C79    C     0.02217   0.16449   0.07845   0.00000  Uiso   1.00
H80    H     0.32631   0.17485   0.10183   0.00000  Uiso   1.00
H81    H     0.01739   0.18513   0.04533   0.00000  Uiso   1.00
C82    C     0.01315   0.11622   0.06351   0.00000  Uiso   1.00
H83    H     0.04010   0.10612   0.03781   0.00000  Uiso   1.00
H84    H     0.30658   0.11194   0.04530   0.00000  Uiso   1.00
H85    H     0.01881   0.09457   0.09581   0.00000  Uiso   1.00
O86    O     0.20783   0.32028   0.37848   0.00000  Uiso   1.00
C87    C     0.26172   0.32268   0.39139   0.00000  Uiso   1.00
H88    H     0.27985   0.31957   0.35757   0.00000  Uiso   1.00
H89    H     0.27830   0.29611   0.41634   0.00000  Uiso   1.00
C90    C     0.27600   0.36772   0.41450   0.00000  Uiso   1.00
H91    H     0.26114   0.39423   0.38904   0.00000  Uiso   1.00
H92    H     0.25805   0.37151   0.44835   0.00000  Uiso   1.00
C93    C     0.00072   0.37280   0.42654   0.00000  Uiso   1.00
H94    H     0.01627   0.34716   0.45278   0.00000  Uiso   1.00
H95    H     0.00994   0.40585   0.44300   0.00000  Uiso   1.00
H96    H     0.01935   0.36970   0.39303   0.00000  Uiso   1.00
C97    C     0.50118   0.16517   0.24994   0.00000  Uiso   1.00
C98    C     0.49782   0.33506   0.25000   0.00000  Uiso   1.00
C99    C     0.54681   0.26143   0.06040   0.00000  Uiso   1.00
C100   C     0.48388   0.21010   0.44271   0.00000  Uiso   1.00
C101   C     0.54268   0.26438   0.11067   0.00000  Uiso   1.00
C102   C     0.48096   0.21398   0.39169   0.00000  Uiso   1.00
C103   C     0.45949   0.23315   0.09843   0.00000  Uiso   1.00
C104   C     0.52111   0.28403   0.39934   0.00000  Uiso   1.00
C105   C     0.45985   0.23428   0.04770   0.00000  Uiso   1.00
C106   C     0.51998   0.28356   0.44991   0.00000  Uiso   1.00
C107   C     0.50395   0.24676   0.02766   0.00000  Uiso   1.00
C108   C     0.50312   0.24617   0.47294   0.00000  Uiso   1.00
C109   C     0.40150   0.25145   0.23801   0.00000  Uiso   1.00
C110   C     0.59857   0.24974   0.26219   0.00000  Uiso   1.00
C111   C     0.34737   0.26061   0.23391   0.00000  Uiso   1.00
C112   C     0.65311   0.24327   0.26740   0.00000  Uiso   1.00
C113   C     0.46060   0.04940   0.26810   0.00000  Uiso   1.00
C114   C     0.51058   0.45194   0.20975   0.00000  Uiso   1.00
C115   C     0.46305   0.09513   0.26906   0.00000  Uiso   1.00
C116   C     0.51013   0.40616   0.21051   0.00000  Uiso   1.00
C117   C     0.50245   0.11717   0.24966   0.00000  Uiso   1.00
C118   C     0.49460   0.38352   0.25004   0.00000  Uiso   1.00
C119   C     0.54089   0.09298   0.22955   0.00000  Uiso   1.00
C120   C     0.47789   0.40789   0.28896   0.00000  Uiso   1.00
C121   C     0.53827   0.04680   0.22970   0.00000  Uiso   1.00
C122   C     0.48092   0.45395   0.28866   0.00000  Uiso   1.00
C123   C     0.49838   0.02483   0.24877   0.00000  Uiso   1.00
C124   C     0.49672   0.47622   0.24909   0.00000  Uiso   1.00
Cu125  Cu    0.50000   0.24999   0.29821   0.00000  Uiso   1.00
Cu126  Cu    0.50000   0.25000   0.20178   0.00000  Uiso   1.00
H127   H     0.42879   0.03333   0.28209   0.00000  Uiso   1.00
H128   H     0.52181   0.46833   0.17826   0.00000  Uiso   1.00
H129   H     0.43342   0.11347   0.28414   0.00000  Uiso   1.00
H130   H     0.52248   0.38844   0.18007   0.00000  Uiso   1.00
H131   H     0.56831   0.02773   0.21618   0.00000  Uiso   1.00
H132   H     0.46999   0.47254   0.31915   0.00000  Uiso   1.00
H133   H     0.57487   0.27667   0.13511   0.00000  Uiso   1.00
H134   H     0.46509   0.18702   0.36875   0.00000  Uiso   1.00
H135   H     0.42574   0.22424   0.02401   0.00000  Uiso   1.00
H136   H     0.53337   0.31237   0.47122   0.00000  Uiso   1.00
N137   N     0.50000   0.25001   0.12935   0.00000  Uiso   1.00
N138   N     0.50000   0.24999   0.37065   0.00000  Uiso   1.00
O139   O     0.50000   0.18572   0.29071   0.00000  Uiso   1.00
O140   O     0.50000   0.31427   0.20928   0.00000  Uiso   1.00
O141   O     0.50000   0.18573   0.20928   0.00000  Uiso   1.00
O142   O     0.50000   0.31427   0.29072   0.00000  Uiso   1.00
O143   O     0.42495   0.24999   0.28132   0.00000  Uiso   1.00
O144   O     0.57505   0.25000   0.21868   0.00000  Uiso   1.00
O145   O     0.42495   0.25000   0.19988   0.00000  Uiso   1.00
O146   O     0.57505   0.25000   0.30011   0.00000  Uiso   1.00
C147   C     0.66174   0.29716   0.20048   0.00000  Uiso   1.00
O148   O     0.34562   0.30157   0.16199   0.00000  Uiso   1.00
O149   O     0.62653   0.32794   0.21416   0.00000  Uiso   1.00
H150   H     0.61726   0.35129   0.18859   0.00000  Uiso   1.00
C151   C     0.34027   0.20922   0.30348   0.00000  Uiso   1.00
O152   O     0.35921   0.17542   0.28956   0.00000  Uiso   1.00
O153   O     0.33798   0.21511   0.35307   0.00000  Uiso   1.00
H154   H     0.65832   0.24536   0.36120   0.00000  Uiso   1.00
C155   C     0.58516   0.11404   0.20995   0.00000  Uiso   1.00
O156   O     0.59813   0.15186   0.22122   0.00000  Uiso   1.00
O157   O     0.61315   0.08993   0.17926   0.00000  Uiso   1.00
H158   H     0.64286   0.10746   0.16915   0.00000  Uiso   1.00
C159   C     0.45476   0.38733   0.32928   0.00000  Uiso   1.00
O160   O     0.42272   0.35796   0.32096   0.00000  Uiso   1.00
O161   O     0.46806   0.40303   0.37671   0.00000  Uiso   1.00
H162   H     0.45005   0.38637   0.40115   0.00000  Uiso   1.00
C163   C     0.59692   0.27209   0.04406   0.00000  Uiso   1.00
O164   O     0.61236   0.25055   0.01151   0.00000  Uiso   1.00
O165   O     0.62693   0.30646   0.06645   0.00000  Uiso   1.00
H166   H     0.66032   0.31044   0.05231   0.00000  Uiso   1.00
C167   C     0.46898   0.16724   0.46246   0.00000  Uiso   1.00
O168   O     0.49114   0.15364   0.00087   0.00000  Uiso   1.00
O169   O     0.43056   0.14155   0.43611   0.00000  Uiso   1.00
H170   H     0.42398   0.11296   0.45305   0.00000  Uiso   1.00
O171   O     0.41669   0.21716   0.11674   0.00000  Uiso   1.00
C172   C     0.40922   0.17159   0.10598   0.00000  Uiso   1.00
H173   H     0.41188   0.15356   0.14089   0.00000  Uiso   1.00
H174   H     0.43842   0.15655   0.08501   0.00000  Uiso   1.00
C175   C     0.35551   0.16449   0.07845   0.00000  Uiso   1.00
H176   H     0.65964   0.17485   0.10183   0.00000  Uiso   1.00
H177   H     0.35073   0.18513   0.04533   0.00000  Uiso   1.00
C178   C     0.34648   0.11622   0.06351   0.00000  Uiso   1.00
H179   H     0.37344   0.10612   0.03781   0.00000  Uiso   1.00
H180   H     0.63992   0.11194   0.04530   0.00000  Uiso   1.00
H181   H     0.35214   0.09457   0.09581   0.00000  Uiso   1.00
O182   O     0.54116   0.32028   0.37848   0.00000  Uiso   1.00
C183   C     0.59505   0.32268   0.39139   0.00000  Uiso   1.00
H184   H     0.61318   0.31957   0.35757   0.00000  Uiso   1.00
H185   H     0.61164   0.29611   0.41634   0.00000  Uiso   1.00
C186   C     0.60933   0.36772   0.41450   0.00000  Uiso   1.00
H187   H     0.59447   0.39423   0.38904   0.00000  Uiso   1.00
H188   H     0.59139   0.37151   0.44835   0.00000  Uiso   1.00
C189   C     0.33406   0.37280   0.42654   0.00000  Uiso   1.00
H190   H     0.34961   0.34716   0.45278   0.00000  Uiso   1.00
H191   H     0.34328   0.40585   0.44300   0.00000  Uiso   1.00
H192   H     0.35269   0.36970   0.39303   0.00000  Uiso   1.00
C193   C     0.83451   0.16517   0.24994   0.00000  Uiso   1.00
C194   C     0.83115   0.33506   0.25000   0.00000  Uiso   1.00
C195   C     0.88015   0.26143   0.06040   0.00000  Uiso   1.00
C196   C     0.81722   0.21010   0.44271   0.00000  Uiso   1.00
C197   C     0.87602   0.26438   0.11067   0.00000  Uiso   1.00
C198   C     0.81429   0.21398   0.39169   0.00000  Uiso   1.00
C199   C     0.79282   0.23315   0.09843   0.00000  Uiso   1.00
C200   C     0.85445   0.28403   0.39934   0.00000  Uiso   1.00
C201   C     0.79318   0.23428   0.04770   0.00000  Uiso   1.00
C202   C     0.85331   0.28356   0.44991   0.00000  Uiso   1.00
C203   C     0.83728   0.24676   0.02766   0.00000  Uiso   1.00
C204   C     0.83645   0.24617   0.47294   0.00000  Uiso   1.00
C205   C     0.73483   0.25145   0.23801   0.00000  Uiso   1.00
C206   C     0.93190   0.24974   0.26219   0.00000  Uiso   1.00
C207   C     0.68071   0.26061   0.23391   0.00000  Uiso   1.00
C208   C     0.98644   0.24327   0.26740   0.00000  Uiso   1.00
C209   C     0.79394   0.04940   0.26810   0.00000  Uiso   1.00
C210   C     0.84391   0.45194   0.20975   0.00000  Uiso   1.00
C211   C     0.79639   0.09513   0.26906   0.00000  Uiso   1.00
C212   C     0.84347   0.40616   0.21051   0.00000  Uiso   1.00
C213   C     0.83579   0.11717   0.24966   0.00000  Uiso   1.00
C214   C     0.82794   0.38352   0.25004   0.00000  Uiso   1.00
C215   C     0.87423   0.09298   0.22955   0.00000  Uiso   1.00
C216   C     0.81123   0.40789   0.28896   0.00000  Uiso   1.00
C217   C     0.87160   0.04680   0.22970   0.00000  Uiso   1.00
C218   C     0.81426   0.45395   0.28866   0.00000  Uiso   1.00
C219   C     0.83171   0.02483   0.24877   0.00000  Uiso   1.00
C220   C     0.83005   0.47622   0.24909   0.00000  Uiso   1.00
Cu221  Cu    0.83333   0.24999   0.29821   0.00000  Uiso   1.00
Cu222  Cu    0.83333   0.25000   0.20178   0.00000  Uiso   1.00
H223   H     0.76212   0.03333   0.28209   0.00000  Uiso   1.00
H224   H     0.85515   0.46833   0.17826   0.00000  Uiso   1.00
H225   H     0.76676   0.11347   0.28414   0.00000  Uiso   1.00
H226   H     0.85581   0.38844   0.18007   0.00000  Uiso   1.00
H227   H     0.90164   0.02773   0.21618   0.00000  Uiso   1.00
H228   H     0.80333   0.47254   0.31915   0.00000  Uiso   1.00
H229   H     0.90820   0.27667   0.13511   0.00000  Uiso   1.00
H230   H     0.79842   0.18702   0.36875   0.00000  Uiso   1.00
H231   H     0.75907   0.22424   0.02401   0.00000  Uiso   1.00
H232   H     0.86670   0.31237   0.47122   0.00000  Uiso   1.00
N233   N     0.83333   0.25001   0.12935   0.00000  Uiso   1.00
N234   N     0.83333   0.24999   0.37065   0.00000  Uiso   1.00
O235   O     0.83334   0.18572   0.29071   0.00000  Uiso   1.00
O236   O     0.83333   0.31427   0.20928   0.00000  Uiso   1.00
O237   O     0.83334   0.18573   0.20928   0.00000  Uiso   1.00
O238   O     0.83333   0.31427   0.29072   0.00000  Uiso   1.00
O239   O     0.75828   0.24999   0.28132   0.00000  Uiso   1.00
O240   O     0.90839   0.25000   0.21868   0.00000  Uiso   1.00
O241   O     0.75828   0.25000   0.19988   0.00000  Uiso   1.00
O242   O     0.90839   0.25000   0.30011   0.00000  Uiso   1.00
C243   C     0.99508   0.29716   0.20048   0.00000  Uiso   1.00
O244   O     0.67895   0.30157   0.16199   0.00000  Uiso   1.00
O245   O     0.95986   0.32794   0.21416   0.00000  Uiso   1.00
H246   H     0.95059   0.35129   0.18859   0.00000  Uiso   1.00
C247   C     0.67360   0.20922   0.30348   0.00000  Uiso   1.00
O248   O     0.69255   0.17542   0.28956   0.00000  Uiso   1.00
O249   O     0.67131   0.21511   0.35307   0.00000  Uiso   1.00
H250   H     0.99166   0.24536   0.36120   0.00000  Uiso   1.00
C251   C     0.91849   0.11404   0.20995   0.00000  Uiso   1.00
O252   O     0.93147   0.15186   0.22122   0.00000  Uiso   1.00
O253   O     0.94648   0.08993   0.17926   0.00000  Uiso   1.00
H254   H     0.97619   0.10746   0.16915   0.00000  Uiso   1.00
C255   C     0.78809   0.38733   0.32928   0.00000  Uiso   1.00
O256   O     0.75605   0.35796   0.32096   0.00000  Uiso   1.00
O257   O     0.80140   0.40303   0.37671   0.00000  Uiso   1.00
H258   H     0.78338   0.38637   0.40115   0.00000  Uiso   1.00
C259   C     0.93025   0.27209   0.04406   0.00000  Uiso   1.00
O260   O     0.94570   0.25055   0.01151   0.00000  Uiso   1.00
O261   O     0.96027   0.30646   0.06645   0.00000  Uiso   1.00
H262   H     0.99365   0.31044   0.05231   0.00000  Uiso   1.00
C263   C     0.80231   0.16724   0.46246   0.00000  Uiso   1.00
O264   O     0.82447   0.15364   0.00087   0.00000  Uiso   1.00
O265   O     0.76389   0.14155   0.43611   0.00000  Uiso   1.00
H266   H     0.75731   0.11296   0.45305   0.00000  Uiso   1.00
O267   O     0.75002   0.21716   0.11674   0.00000  Uiso   1.00
C268   C     0.74255   0.17159   0.10598   0.00000  Uiso   1.00
H269   H     0.74522   0.15356   0.14089   0.00000  Uiso   1.00
H270   H     0.77176   0.15655   0.08501   0.00000  Uiso   1.00
C271   C     0.68884   0.16449   0.07845   0.00000  Uiso   1.00
H272   H     0.99297   0.17485   0.10183   0.00000  Uiso   1.00
H273   H     0.68406   0.18513   0.04533   0.00000  Uiso   1.00
C274   C     0.67982   0.11622   0.06351   0.00000  Uiso   1.00
H275   H     0.70677   0.10612   0.03781   0.00000  Uiso   1.00
H276   H     0.97325   0.11194   0.04530   0.00000  Uiso   1.00
H277   H     0.68547   0.09457   0.09581   0.00000  Uiso   1.00
O278   O     0.87450   0.32028   0.37848   0.00000  Uiso   1.00
C279   C     0.92839   0.32268   0.39139   0.00000  Uiso   1.00
H280   H     0.94651   0.31957   0.35757   0.00000  Uiso   1.00
H281   H     0.94497   0.29611   0.41634   0.00000  Uiso   1.00
C282   C     0.94267   0.36772   0.41450   0.00000  Uiso   1.00
H283   H     0.92780   0.39423   0.38904   0.00000  Uiso   1.00
H284   H     0.92472   0.37151   0.44835   0.00000  Uiso   1.00
C285   C     0.66739   0.37280   0.42654   0.00000  Uiso   1.00
H286   H     0.68294   0.34716   0.45278   0.00000  Uiso   1.00
H287   H     0.67661   0.40585   0.44300   0.00000  Uiso   1.00
H288   H     0.68602   0.36970   0.39303   0.00000  Uiso   1.00
C289   C     0.16784   0.66517   0.24994   0.00000  Uiso   1.00
C290   C     0.16449   0.83506   0.25000   0.00000  Uiso   1.00
C291   C     0.21348   0.76143   0.06040   0.00000  Uiso   1.00
C292   C     0.15055   0.71010   0.44271   0.00000  Uiso   1.00
C293   C     0.20935   0.76438   0.11067   0.00000  Uiso   1.00
C294   C     0.14762   0.71398   0.39169   0.00000  Uiso   1.00
C295   C     0.12616   0.73315   0.09843   0.00000  Uiso   1.00
C296   C     0.18778   0.78403   0.39934   0.00000  Uiso   1.00
C297   C     0.12652   0.73428   0.04770   0.00000  Uiso   1.00
C298   C     0.18664   0.78356   0.44991   0.00000  Uiso   1.00
C299   C     0.17062   0.74676   0.02766   0.00000  Uiso   1.00
C300   C     0.16978   0.74617   0.47294   0.00000  Uiso   1.00
C301   C     0.06817   0.75145   0.23801   0.00000  Uiso   1.00
C302   C     0.26524   0.74974   0.26219   0.00000  Uiso   1.00
C303   C     0.01404   0.76061   0.23391   0.00000  Uiso   1.00
C304   C     0.31977   0.74327   0.26740   0.00000  Uiso   1.00
C305   C     0.12727   0.54940   0.26810   0.00000  Uiso   1.00
C306   C     0.17725   0.95194   0.20975   0.00000  Uiso   1.00
C307   C     0.12972   0.59513   0.26906   0.00000  Uiso   1.00
C308   C     0.17680   0.90616   0.21051   0.00000  Uiso   1.00
C309   C     0.16912   0.61717   0.24966   0.00000  Uiso   1.00
C310   C     0.16127   0.88352   0.25004   0.00000  Uiso   1.00
C311   C     0.20756   0.59298   0.22955   0.00000  Uiso   1.00
C312   C     0.14456   0.90789   0.28896   0.00000  Uiso   1.00
C313   C     0.20493   0.54680   0.22970   0.00000  Uiso   1.00
C314   C     0.14759   0.95395   0.28866   0.00000  Uiso   1.00
C315   C     0.16504   0.52483   0.24877   0.00000  Uiso   1.00
C316   C     0.16338   0.97622   0.24909   0.00000  Uiso   1.00
Cu317  Cu    0.16667   0.74999   0.29821   0.00000  Uiso   1.00
Cu318  Cu    0.16667   0.75000   0.20178   0.00000  Uiso   1.00
H319   H     0.09545   0.53333   0.28209   0.00000  Uiso   1.00
H320   H     0.18848   0.96833   0.17826   0.00000  Uiso   1.00
H321   H     0.10009   0.61347   0.28414   0.00000  Uiso   1.00
H322   H     0.18914   0.88844   0.18007   0.00000  Uiso   1.00
H323   H     0.23498   0.52773   0.21618   0.00000  Uiso   1.00
H324   H     0.13666   0.97254   0.31915   0.00000  Uiso   1.00
H325   H     0.24154   0.77667   0.13511   0.00000  Uiso   1.00
H326   H     0.13176   0.68702   0.36875   0.00000  Uiso   1.00
H327   H     0.09241   0.72424   0.02401   0.00000  Uiso   1.00
H328   H     0.20004   0.81237   0.47122   0.00000  Uiso   1.00
N329   N     0.16667   0.75001   0.12935   0.00000  Uiso   1.00
N330   N     0.16667   0.74999   0.37065   0.00000  Uiso   1.00
O331   O     0.16667   0.68572   0.29071   0.00000  Uiso   1.00
O332   O     0.16666   0.81427   0.20928   0.00000  Uiso   1.00
O333   O     0.16667   0.68573   0.20928   0.00000  Uiso   1.00
O334   O     0.16666   0.81427   0.29072   0.00000  Uiso   1.00
O335   O     0.09161   0.74999   0.28132   0.00000  Uiso   1.00
O336   O     0.24172   0.75000   0.21868   0.00000  Uiso   1.00
O337   O     0.09161   0.75000   0.19988   0.00000  Uiso   1.00
O338   O     0.24172   0.75000   0.30011   0.00000  Uiso   1.00
C339   C     0.32841   0.79716   0.20048   0.00000  Uiso   1.00
O340   O     0.01228   0.80157   0.16199   0.00000  Uiso   1.00
O341   O     0.29319   0.82794   0.21416   0.00000  Uiso   1.00
H342   H     0.28393   0.85129   0.18859   0.00000  Uiso   1.00
C343   C     0.00694   0.70922   0.30348   0.00000  Uiso   1.00
O344   O     0.02588   0.67542   0.28956   0.00000  Uiso   1.00
O345   O     0.00465   0.71511   0.35307   0.00000  Uiso   1.00
H346   H     0.32499   0.74536   0.36120   0.00000  Uiso   1.00
C347   C     0.25182   0.61404   0.20995   0.00000  Uiso   1.00
O348   O     0.26480   0.65186   0.22122   0.00000  Uiso   1.00
O349   O     0.27981   0.58993   0.17926   0.00000  Uiso   1.00
H350   H     0.30952   0.60746   0.16915   0.00000  Uiso   1.00
C351   C     0.12143   0.88733   0.32928   0.00000  Uiso   1.00
O352   O     0.08939   0.85796   0.32096   0.00000  Uiso   1.00
O353   O     0.13473   0.90303   0.37671   0.00000  Uiso   1.00
H354   H     0.11672   0.88637   0.40115   0.00000  Uiso   1.00
C355   C     0.26358   0.77209   0.04406   0.00000  Uiso   1.00
O356   O     0.27903   0.75055   0.01151   0.00000  Uiso   1.00
O357   O     0.29360   0.80646   0.06645   0.00000  Uiso   1.00
H358   H     0.32699   0.81044   0.05231   0.00000  Uiso   1.00
C359   C     0.13564   0.66724   0.46246   0.00000  Uiso   1.00
O360   O     0.15781   0.65364   0.00087   0.00000  Uiso   1.00
O361   O     0.09723   0.64155   0.43611   0.00000  Uiso   1.00
H362   H     0.09065   0.61296   0.45305   0.00000  Uiso   1.00
O363   O     0.08335   0.71716   0.11674   0.00000  Uiso   1.00
C364   C     0.07588   0.67159   0.10598   0.00000  Uiso   1.00
H365   H     0.07855   0.65356   0.14089   0.00000  Uiso   1.00
H366   H     0.10509   0.65655   0.08501   0.00000  Uiso   1.00
C367   C     0.02217   0.66449   0.07845   0.00000  Uiso   1.00
H368   H     0.32631   0.67485   0.10183   0.00000  Uiso   1.00
H369   H     0.01739   0.68513   0.04533   0.00000  Uiso   1.00
C370   C     0.01315   0.61622   0.06351   0.00000  Uiso   1.00
H371   H     0.04010   0.60612   0.03781   0.00000  Uiso   1.00
H372   H     0.30658   0.61194   0.04530   0.00000  Uiso   1.00
H373   H     0.01881   0.59457   0.09581   0.00000  Uiso   1.00
O374   O     0.20783   0.82028   0.37848   0.00000  Uiso   1.00
C375   C     0.26172   0.82268   0.39139   0.00000  Uiso   1.00
H376   H     0.27985   0.81957   0.35757   0.00000  Uiso   1.00
H377   H     0.27830   0.79611   0.41634   0.00000  Uiso   1.00
C378   C     0.27600   0.86772   0.41450   0.00000  Uiso   1.00
H379   H     0.26114   0.89423   0.38904   0.00000  Uiso   1.00
H380   H     0.25805   0.87151   0.44835   0.00000  Uiso   1.00
C381   C     0.00072   0.87280   0.42654   0.00000  Uiso   1.00
H382   H     0.01627   0.84716   0.45278   0.00000  Uiso   1.00
H383   H     0.00994   0.90585   0.44300   0.00000  Uiso   1.00
H384   H     0.01935   0.86970   0.39303   0.00000  Uiso   1.00
C385   C     0.50118   0.66517   0.24994   0.00000  Uiso   1.00
C386   C     0.49782   0.83506   0.25000   0.00000  Uiso   1.00
C387   C     0.54681   0.76143   0.06040   0.00000  Uiso   1.00
C388   C     0.48388   0.71010   0.44271   0.00000  Uiso   1.00
C389   C     0.54268   0.76438   0.11067   0.00000  Uiso   1.00
C390   C     0.48096   0.71398   0.39169   0.00000  Uiso   1.00
C391   C     0.45949   0.73315   0.09843   0.00000  Uiso   1.00
C392   C     0.52111   0.78403   0.39934   0.00000  Uiso   1.00
C393   C     0.45985   0.73428   0.04770   0.00000  Uiso   1.00
C394   C     0.51998   0.78356   0.44991   0.00000  Uiso   1.00
C395   C     0.50395   0.74676   0.02766   0.00000  Uiso   1.00
C396   C     0.50312   0.74617   0.47294   0.00000  Uiso   1.00
C397   C     0.40150   0.75145   0.23801   0.00000  Uiso   1.00
C398   C     0.59857   0.74974   0.26219   0.00000  Uiso   1.00
C399   C     0.34737   0.76061   0.23391   0.00000  Uiso   1.00
C400   C     0.65311   0.74327   0.26740   0.00000  Uiso   1.00
C401   C     0.46060   0.54940   0.26810   0.00000  Uiso   1.00
C402   C     0.51058   0.95194   0.20975   0.00000  Uiso   1.00
C403   C     0.46305   0.59513   0.26906   0.00000  Uiso   1.00
C404   C     0.51013   0.90616   0.21051   0.00000  Uiso   1.00
C405   C     0.50245   0.61717   0.24966   0.00000  Uiso   1.00
C406   C     0.49460   0.88352   0.25004   0.00000  Uiso   1.00
C407   C     0.54089   0.59298   0.22955   0.00000  Uiso   1.00
C408   C     0.47789   0.90789   0.28896   0.00000  Uiso   1.00
C409   C     0.53827   0.54680   0.22970   0.00000  Uiso   1.00
C410   C     0.48092   0.95395   0.28866   0.00000  Uiso   1.00
C411   C     0.49838   0.52483   0.24877   0.00000  Uiso   1.00
C412   C     0.49672   0.97622   0.24909   0.00000  Uiso   1.00
Cu413  Cu    0.50000   0.74999   0.29821   0.00000  Uiso   1.00
Cu414  Cu    0.50000   0.75000   0.20178   0.00000  Uiso   1.00
H415   H     0.42879   0.53333   0.28209   0.00000  Uiso   1.00
H416   H     0.52181   0.96833   0.17826   0.00000  Uiso   1.00
H417   H     0.43342   0.61347   0.28414   0.00000  Uiso   1.00
H418   H     0.52248   0.88844   0.18007   0.00000  Uiso   1.00
H419   H     0.56831   0.52773   0.21618   0.00000  Uiso   1.00
H420   H     0.46999   0.97254   0.31915   0.00000  Uiso   1.00
H421   H     0.57487   0.77667   0.13511   0.00000  Uiso   1.00
H422   H     0.46509   0.68702   0.36875   0.00000  Uiso   1.00
H423   H     0.42574   0.72424   0.02401   0.00000  Uiso   1.00
H424   H     0.53337   0.81237   0.47122   0.00000  Uiso   1.00
N425   N     0.50000   0.75001   0.12935   0.00000  Uiso   1.00
N426   N     0.50000   0.74999   0.37065   0.00000  Uiso   1.00
O427   O     0.50000   0.68572   0.29071   0.00000  Uiso   1.00
O428   O     0.50000   0.81427   0.20928   0.00000  Uiso   1.00
O429   O     0.50000   0.68573   0.20928   0.00000  Uiso   1.00
O430   O     0.50000   0.81427   0.29072   0.00000  Uiso   1.00
O431   O     0.42495   0.74999   0.28132   0.00000  Uiso   1.00
O432   O     0.57505   0.75000   0.21868   0.00000  Uiso   1.00
O433   O     0.42495   0.75000   0.19988   0.00000  Uiso   1.00
O434   O     0.57505   0.75000   0.30011   0.00000  Uiso   1.00
C435   C     0.66174   0.79716   0.20048   0.00000  Uiso   1.00
O436   O     0.34562   0.80157   0.16199   0.00000  Uiso   1.00
O437   O     0.62653   0.82794   0.21416   0.00000  Uiso   1.00
H438   H     0.61726   0.85129   0.18859   0.00000  Uiso   1.00
C439   C     0.34027   0.70922   0.30348   0.00000  Uiso   1.00
O440   O     0.35921   0.67542   0.28956   0.00000  Uiso   1.00
O441   O     0.33798   0.71511   0.35307   0.00000  Uiso   1.00
H442   H     0.65832   0.74536   0.36120   0.00000  Uiso   1.00
C443   C     0.58516   0.61404   0.20995   0.00000  Uiso   1.00
O444   O     0.59813   0.65186   0.22122   0.00000  Uiso   1.00
O445   O     0.61315   0.58993   0.17926   0.00000  Uiso   1.00
H446   H     0.64286   0.60746   0.16915   0.00000  Uiso   1.00
C447   C     0.45476   0.88733   0.32928   0.00000  Uiso   1.00
O448   O     0.42272   0.85796   0.32096   0.00000  Uiso   1.00
O449   O     0.46806   0.90303   0.37671   0.00000  Uiso   1.00
H450   H     0.45005   0.88637   0.40115   0.00000  Uiso   1.00
C451   C     0.59692   0.77209   0.04406   0.00000  Uiso   1.00
O452   O     0.61236   0.75055   0.01151   0.00000  Uiso   1.00
O453   O     0.62693   0.80646   0.06645   0.00000  Uiso   1.00
H454   H     0.66032   0.81044   0.05231   0.00000  Uiso   1.00
C455   C     0.46898   0.66724   0.46246   0.00000  Uiso   1.00
O456   O     0.49114   0.65364   0.00087   0.00000  Uiso   1.00
O457   O     0.43056   0.64155   0.43611   0.00000  Uiso   1.00
H458   H     0.42398   0.61296   0.45305   0.00000  Uiso   1.00
O459   O     0.41669   0.71716   0.11674   0.00000  Uiso   1.00
C460   C     0.40922   0.67159   0.10598   0.00000  Uiso   1.00
H461   H     0.41188   0.65356   0.14089   0.00000  Uiso   1.00
H462   H     0.43842   0.65655   0.08501   0.00000  Uiso   1.00
C463   C     0.35551   0.66449   0.07845   0.00000  Uiso   1.00
H464   H     0.65964   0.67485   0.10183   0.00000  Uiso   1.00
H465   H     0.35073   0.68513   0.04533   0.00000  Uiso   1.00
C466   C     0.34648   0.61622   0.06351   0.00000  Uiso   1.00
H467   H     0.37344   0.60612   0.03781   0.00000  Uiso   1.00
H468   H     0.63992   0.61194   0.04530   0.00000  Uiso   1.00
H469   H     0.35214   0.59457   0.09581   0.00000  Uiso   1.00
O470   O     0.54116   0.82028   0.37848   0.00000  Uiso   1.00
C471   C     0.59505   0.82268   0.39139   0.00000  Uiso   1.00
H472   H     0.61318   0.81957   0.35757   0.00000  Uiso   1.00
H473   H     0.61164   0.79611   0.41634   0.00000  Uiso   1.00
C474   C     0.60933   0.86772   0.41450   0.00000  Uiso   1.00
H475   H     0.59447   0.89423   0.38904   0.00000  Uiso   1.00
H476   H     0.59139   0.87151   0.44835   0.00000  Uiso   1.00
C477   C     0.33406   0.87280   0.42654   0.00000  Uiso   1.00
H478   H     0.34961   0.84716   0.45278   0.00000  Uiso   1.00
H479   H     0.34328   0.90585   0.44300   0.00000  Uiso   1.00
H480   H     0.35269   0.86970   0.39303   0.00000  Uiso   1.00
C481   C     0.83451   0.66517   0.24994   0.00000  Uiso   1.00
C482   C     0.83115   0.83506   0.25000   0.00000  Uiso   1.00
C483   C     0.88015   0.76143   0.06040   0.00000  Uiso   1.00
C484   C     0.81722   0.71010   0.44271   0.00000  Uiso   1.00
C485   C     0.87602   0.76438   0.11067   0.00000  Uiso   1.00
C486   C     0.81429   0.71398   0.39169   0.00000  Uiso   1.00
C487   C     0.79282   0.73315   0.09843   0.00000  Uiso   1.00
C488   C     0.85445   0.78403   0.39934   0.00000  Uiso   1.00
C489   C     0.79318   0.73428   0.04770   0.00000  Uiso   1.00
C490   C     0.85331   0.78356   0.44991   0.00000  Uiso   1.00
C491   C     0.83728   0.74676   0.02766   0.00000  Uiso   1.00
C492   C     0.83645   0.74617   0.47294   0.00000  Uiso   1.00
C493   C     0.73483   0.75145   0.23801   0.00000  Uiso   1.00
C494   C     0.93190   0.74974   0.26219   0.00000  Uiso   1.00
C495   C     0.68071   0.76061   0.23391   0.00000  Uiso   1.00
C496   C     0.98644   0.74327   0.26740   0.00000  Uiso   1.00
C497   C     0.79394   0.54940   0.26810   0.00000  Uiso   1.00
C498   C     0.84391   0.95194   0.20975   0.00000  Uiso   1.00
C499   C     0.79639   0.59513   0.26906   0.00000  Uiso   1.00
C500   C     0.84347   0.90616   0.21051   0.00000  Uiso   1.00
C501   C     0.83579   0.61717   0.24966   0.00000  Uiso   1.00
C502   C     0.82794   0.88352   0.25004   0.00000  Uiso   1.00
C503   C     0.87423   0.59298   0.22955   0.00000  Uiso   1.00
C504   C     0.81123   0.90789   0.28896   0.00000  Uiso   1.00
C505   C     0.87160   0.54680   0.22970   0.00000  Uiso   1.00
C506   C     0.81426   0.95395   0.28866   0.00000  Uiso   1.00
C507   C     0.83171   0.52483   0.24877   0.00000  Uiso   1.00
C508   C     0.83005   0.97622   0.24909   0.00000  Uiso   1.00
Cu509  Cu    0.83333   0.74999   0.29821   0.00000  Uiso   1.00
Cu510  Cu    0.83333   0.75000   0.20178   0.00000  Uiso   1.00
H511   H     0.76212   0.53333   0.28209   0.00000  Uiso   1.00
H512   H     0.85515   0.96833   0.17826   0.00000  Uiso   1.00
H513   H     0.76676   0.61347   0.28414   0.00000  Uiso   1.00
H514   H     0.85581   0.88844   0.18007   0.00000  Uiso   1.00
H515   H     0.90164   0.52773   0.21618   0.00000  Uiso   1.00
H516   H     0.80333   0.97254   0.31915   0.00000  Uiso   1.00
H517   H     0.90820   0.77667   0.13511   0.00000  Uiso   1.00
H518   H     0.79842   0.68702   0.36875   0.00000  Uiso   1.00
H519   H     0.75907   0.72424   0.02401   0.00000  Uiso   1.00
H520   H     0.86670   0.81237   0.47122   0.00000  Uiso   1.00
N521   N     0.83333   0.75001   0.12935   0.00000  Uiso   1.00
N522   N     0.83333   0.74999   0.37065   0.00000  Uiso   1.00
O523   O     0.83334   0.68572   0.29071   0.00000  Uiso   1.00
O524   O     0.83333   0.81427   0.20928   0.00000  Uiso   1.00
O525   O     0.83334   0.68573   0.20928   0.00000  Uiso   1.00
O526   O     0.83333   0.81427   0.29072   0.00000  Uiso   1.00
O527   O     0.75828   0.74999   0.28132   0.00000  Uiso   1.00
O528   O     0.90839   0.75000   0.21868   0.00000  Uiso   1.00
O529   O     0.75828   0.75000   0.19988   0.00000  Uiso   1.00
O530   O     0.90839   0.75000   0.30011   0.00000  Uiso   1.00
C531   C     0.99508   0.79716   0.20048   0.00000  Uiso   1.00
O532   O     0.67895   0.80157   0.16199   0.00000  Uiso   1.00
O533   O     0.95986   0.82794   0.21416   0.00000  Uiso   1.00
H534   H     0.95059   0.85129   0.18859   0.00000  Uiso   1.00
C535   C     0.67360   0.70922   0.30348   0.00000  Uiso   1.00
O536   O     0.69255   0.67542   0.28956   0.00000  Uiso   1.00
O537   O     0.67131   0.71511   0.35307   0.00000  Uiso   1.00
H538   H     0.99166   0.74536   0.36120   0.00000  Uiso   1.00
C539   C     0.91849   0.61404   0.20995   0.00000  Uiso   1.00
O540   O     0.93147   0.65186   0.22122   0.00000  Uiso   1.00
O541   O     0.94648   0.58993   0.17926   0.00000  Uiso   1.00
H542   H     0.97619   0.60746   0.16915   0.00000  Uiso   1.00
C543   C     0.78809   0.88733   0.32928   0.00000  Uiso   1.00
O544   O     0.75605   0.85796   0.32096   0.00000  Uiso   1.00
O545   O     0.80140   0.90303   0.37671   0.00000  Uiso   1.00
H546   H     0.78338   0.88637   0.40115   0.00000  Uiso   1.00
C547   C     0.93025   0.77209   0.04406   0.00000  Uiso   1.00
O548   O     0.94570   0.75055   0.01151   0.00000  Uiso   1.00
O549   O     0.96027   0.80646   0.06645   0.00000  Uiso   1.00
H550   H     0.99365   0.81044   0.05231   0.00000  Uiso   1.00
C551   C     0.80231   0.66724   0.46246   0.00000  Uiso   1.00
O552   O     0.82447   0.65364   0.00087   0.00000  Uiso   1.00
O553   O     0.76389   0.64155   0.43611   0.00000  Uiso   1.00
H554   H     0.75731   0.61296   0.45305   0.00000  Uiso   1.00
O555   O     0.75002   0.71716   0.11674   0.00000  Uiso   1.00
C556   C     0.74255   0.67159   0.10598   0.00000  Uiso   1.00
H557   H     0.74522   0.65356   0.14089   0.00000  Uiso   1.00
H558   H     0.77176   0.65655   0.08501   0.00000  Uiso   1.00
C559   C     0.68884   0.66449   0.07845   0.00000  Uiso   1.00
H560   H     0.99297   0.67485   0.10183   0.00000  Uiso   1.00
H561   H     0.68406   0.68513   0.04533   0.00000  Uiso   1.00
C562   C     0.67982   0.61622   0.06351   0.00000  Uiso   1.00
H563   H     0.70677   0.60612   0.03781   0.00000  Uiso   1.00
H564   H     0.97325   0.61194   0.04530   0.00000  Uiso   1.00
H565   H     0.68547   0.59457   0.09581   0.00000  Uiso   1.00
O566   O     0.87450   0.82028   0.37848   0.00000  Uiso   1.00
C567   C     0.92839   0.82268   0.39139   0.00000  Uiso   1.00
H568   H     0.94651   0.81957   0.35757   0.00000  Uiso   1.00
H569   H     0.94497   0.79611   0.41634   0.00000  Uiso   1.00
C570   C     0.94267   0.86772   0.41450   0.00000  Uiso   1.00
H571   H     0.92780   0.89423   0.38904   0.00000  Uiso   1.00
H572   H     0.92472   0.87151   0.44835   0.00000  Uiso   1.00
C573   C     0.66739   0.87280   0.42654   0.00000  Uiso   1.00
H574   H     0.68294   0.84716   0.45278   0.00000  Uiso   1.00
H575   H     0.67661   0.90585   0.44300   0.00000  Uiso   1.00
H576   H     0.68602   0.86970   0.39303   0.00000  Uiso   1.00
C577   C     0.16784   0.16517   0.74994   0.00000  Uiso   1.00
C578   C     0.16449   0.33506   0.75000   0.00000  Uiso   1.00
C579   C     0.21348   0.26143   0.56040   0.00000  Uiso   1.00
C580   C     0.15055   0.21010   0.94271   0.00000  Uiso   1.00
C581   C     0.20935   0.26438   0.61067   0.00000  Uiso   1.00
C582   C     0.14762   0.21398   0.89169   0.00000  Uiso   1.00
C583   C     0.12616   0.23315   0.59843   0.00000  Uiso   1.00
C584   C     0.18778   0.28403   0.89934   0.00000  Uiso   1.00
C585   C     0.12652   0.23428   0.54770   0.00000  Uiso   1.00
C586   C     0.18664   0.28356   0.94991   0.00000  Uiso   1.00
C587   C     0.17062   0.24676   0.52766   0.00000  Uiso   1.00
C588   C     0.16978   0.24617   0.97294   0.00000  Uiso   1.00
C589   C     0.06817   0.25145   0.73801   0.00000  Uiso   1.00
C590   C     0.26524   0.24974   0.76219   0.00000  Uiso   1.00
C591   C     0.01404   0.26061   0.73391   0.00000  Uiso   1.00
C592   C     0.31977   0.24327   0.76740   0.00000  Uiso   1.00
C593   C     0.12727   0.04940   0.76810   0.00000  Uiso   1.00
C594   C     0.17725   0.45194   0.70975   0.00000  Uiso   1.00
C595   C     0.12972   0.09513   0.76906   0.00000  Uiso   1.00
C596   C     0.17680   0.40616   0.71051   0.00000  Uiso   1.00
C597   C     0.16912   0.11717   0.74966   0.00000  Uiso   1.00
C598   C     0.16127   0.38352   0.75004   0.00000  Uiso   1.00
C599   C     0.20756   0.09298   0.72955   0.00000  Uiso   1.00
C600   C     0.14456   0.40789   0.78896   0.00000  Uiso   1.00
C601   C     0.20493   0.04680   0.72970   0.00000  Uiso   1.00
C602   C     0.14759   0.45395   0.78866   0.00000  Uiso   1.00
C603   C     0.16504   0.02483   0.74877   0.00000  Uiso   1.00
C604   C     0.16338   0.47622   0.74909   0.00000  Uiso   1.00
Cu605  Cu    0.16667   0.24999   0.79821   0.00000  Uiso   1.00
Cu606  Cu    0.16667   0.25000   0.70178   0.00000  Uiso   1.00
H607   H     0.09545   0.03333   0.78209   0.00000  Uiso   1.00
H608   H     0.18848   0.46833   0.67826   0.00000  Uiso   1.00
H609   H     0.10009   0.11347   0.78414   0.00000  Uiso   1.00
H610   H     0.18914   0.38844   0.68007   0.00000  Uiso   1.00
H611   H     0.23498   0.02773   0.71618   0.00000  Uiso   1.00
H612   H     0.13666   0.47254   0.81915   0.00000  Uiso   1.00
H613   H     0.24154   0.27667   0.63511   0.00000  Uiso   1.00
H614   H     0.13176   0.18702   0.86875   0.00000  Uiso   1.00
H615   H     0.09241   0.22424   0.52401   0.00000  Uiso   1.00
H616   H     0.20004   0.31237   0.97122   0.00000  Uiso   1.00
N617   N     0.16667   0.25001   0.62935   0.00000  Uiso   1.00
N618   N     0.16667   0.24999   0.87065   0.00000  Uiso   1.00
O619   O     0.16667   0.18572   0.79071   0.00000  Uiso   1.00
O620   O     0.16666   0.31427   0.70928   0.00000  Uiso   1.00
O621   O     0.16667   0.18573   0.70928   0.00000  Uiso   1.00
O622   O     0.16666   0.31427   0.79072   0.00000  Uiso   1.00
O623   O     0.09161   0.24999   0.78132   0.00000  Uiso   1.00
O624   O     0.24172   0.25000   0.71868   0.00000  Uiso   1.00
O625   O     0.09161   0.25000   0.69988   0.00000  Uiso   1.00
O626   O     0.24172   0.25000   0.80011   0.00000  Uiso   1.00
C627   C     0.32841   0.29716   0.70048   0.00000  Uiso   1.00
O628   O     0.01228   0.30157   0.66199   0.00000  Uiso   1.00
O629   O     0.29319   0.32794   0.71416   0.00000  Uiso   1.00
H630   H     0.28393   0.35129   0.68859   0.00000  Uiso   1.00
C631   C     0.00694   0.20922   0.80348   0.00000  Uiso   1.00
O632   O     0.02588   0.17542   0.78956   0.00000  Uiso   1.00
O633   O     0.00465   0.21511   0.85307   0.00000  Uiso   1.00
H634   H     0.32499   0.24536   0.86120   0.00000  Uiso   1.00
C635   C     0.25182   0.11404   0.70995   0.00000  Uiso   1.00
O636   O     0.26480   0.15186   0.72122   0.00000  Uiso   1.00
O637   O     0.27981   0.08993   0.67926   0.00000  Uiso   1.00
H638   H     0.30952   0.10746   0.66915   0.00000  Uiso   1.00
C639   C     0.12143   0.38733   0.82928   0.00000  Uiso   1.00
O640   O     0.08939   0.35796   0.82096   0.00000  Uiso   1.00
O641   O     0.13473   0.40303   0.87671   0.00000  Uiso   1.00
H642   H     0.11672   0.38637   0.90115   0.00000  Uiso   1.00
C643   C     0.26358   0.27209   0.54406   0.00000  Uiso   1.00
O644   O     0.27903   0.25055   0.51151   0.00000  Uiso   1.00
O645   O     0.29360   0.30646   0.56645   0.00000  Uiso   1.00
H646   H     0.32699   0.31044   0.55231   0.00000  Uiso   1.00
C647   C     0.13564   0.16724   0.96246   0.00000  Uiso   1.00
O648   O     0.15781   0.15364   0.50087   0.00000  Uiso   1.00
O649   O     0.09723   0.14155   0.93611   0.00000  Uiso   1.00
H650   H     0.09065   0.11296   0.95305   0.00000  Uiso   1.00
O651   O     0.08335   0.21716   0.61674   0.00000  Uiso   1.00
C652   C     0.07588   0.17159   0.60598   0.00000  Uiso   1.00
H653   H     0.07855   0.15356   0.64089   0.00000  Uiso   1.00
H654   H     0.10509   0.15655   0.58501   0.00000  Uiso   1.00
C655   C     0.02217   0.16449   0.57845   0.00000  Uiso   1.00
H656   H     0.32631   0.17485   0.60183   0.00000  Uiso   1.00
H657   H     0.01739   0.18513   0.54533   0.00000  Uiso   1.00
C658   C     0.01315   0.11622   0.56351   0.00000  Uiso   1.00
H659   H     0.04010   0.10612   0.53781   0.00000  Uiso   1.00
H660   H     0.30658   0.11194   0.54530   0.00000  Uiso   1.00
H661   H     0.01881   0.09457   0.59581   0.00000  Uiso   1.00
O662   O     0.20783   0.32028   0.87848   0.00000  Uiso   1.00
C663   C     0.26172   0.32268   0.89139   0.00000  Uiso   1.00
H664   H     0.27985   0.31957   0.85757   0.00000  Uiso   1.00
H665   H     0.27830   0.29611   0.91634   0.00000  Uiso   1.00
C666   C     0.27600   0.36772   0.91450   0.00000  Uiso   1.00
H667   H     0.26114   0.39423   0.88904   0.00000  Uiso   1.00
H668   H     0.25805   0.37151   0.94835   0.00000  Uiso   1.00
C669   C     0.00072   0.37280   0.92654   0.00000  Uiso   1.00
H670   H     0.01627   0.34716   0.95278   0.00000  Uiso   1.00
H671   H     0.00994   0.40585   0.94300   0.00000  Uiso   1.00
H672   H     0.01935   0.36970   0.89303   0.00000  Uiso   1.00
C673   C     0.50118   0.16517   0.74994   0.00000  Uiso   1.00
C674   C     0.49782   0.33506   0.75000   0.00000  Uiso   1.00
C675   C     0.54681   0.26143   0.56040   0.00000  Uiso   1.00
C676   C     0.48388   0.21010   0.94271   0.00000  Uiso   1.00
C677   C     0.54268   0.26438   0.61067   0.00000  Uiso   1.00
C678   C     0.48096   0.21398   0.89169   0.00000  Uiso   1.00
C679   C     0.45949   0.23315   0.59843   0.00000  Uiso   1.00
C680   C     0.52111   0.28403   0.89934   0.00000  Uiso   1.00
C681   C     0.45985   0.23428   0.54770   0.00000  Uiso   1.00
C682   C     0.51998   0.28356   0.94991   0.00000  Uiso   1.00
C683   C     0.50395   0.24676   0.52766   0.00000  Uiso   1.00
C684   C     0.50312   0.24617   0.97294   0.00000  Uiso   1.00
C685   C     0.40150   0.25145   0.73801   0.00000  Uiso   1.00
C686   C     0.59857   0.24974   0.76219   0.00000  Uiso   1.00
C687   C     0.34737   0.26061   0.73391   0.00000  Uiso   1.00
C688   C     0.65311   0.24327   0.76740   0.00000  Uiso   1.00
C689   C     0.46060   0.04940   0.76810   0.00000  Uiso   1.00
C690   C     0.51058   0.45194   0.70975   0.00000  Uiso   1.00
C691   C     0.46305   0.09513   0.76906   0.00000  Uiso   1.00
C692   C     0.51013   0.40616   0.71051   0.00000  Uiso   1.00
C693   C     0.50245   0.11717   0.74966   0.00000  Uiso   1.00
C694   C     0.49460   0.38352   0.75004   0.00000  Uiso   1.00
C695   C     0.54089   0.09298   0.72955   0.00000  Uiso   1.00
C696   C     0.47789   0.40789   0.78896   0.00000  Uiso   1.00
C697   C     0.53827   0.04680   0.72970   0.00000  Uiso   1.00
C698   C     0.48092   0.45395   0.78866   0.00000  Uiso   1.00
C699   C     0.49838   0.02483   0.74877   0.00000  Uiso   1.00
C700   C     0.49672   0.47622   0.74909   0.00000  Uiso   1.00
Cu701  Cu    0.50000   0.24999   0.79821   0.00000  Uiso   1.00
Cu702  Cu    0.50000   0.25000   0.70178   0.00000  Uiso   1.00
H703   H     0.42879   0.03333   0.78209   0.00000  Uiso   1.00
H704   H     0.52181   0.46833   0.67826   0.00000  Uiso   1.00
H705   H     0.43342   0.11347   0.78414   0.00000  Uiso   1.00
H706   H     0.52248   0.38844   0.68007   0.00000  Uiso   1.00
H707   H     0.56831   0.02773   0.71618   0.00000  Uiso   1.00
H708   H     0.46999   0.47254   0.81915   0.00000  Uiso   1.00
H709   H     0.57487   0.27667   0.63511   0.00000  Uiso   1.00
H710   H     0.46509   0.18702   0.86875   0.00000  Uiso   1.00
H711   H     0.42574   0.22424   0.52401   0.00000  Uiso   1.00
H712   H     0.53337   0.31237   0.97122   0.00000  Uiso   1.00
N713   N     0.50000   0.25001   0.62935   0.00000  Uiso   1.00
N714   N     0.50000   0.24999   0.87065   0.00000  Uiso   1.00
O715   O     0.50000   0.18572   0.79071   0.00000  Uiso   1.00
O716   O     0.50000   0.31427   0.70928   0.00000  Uiso   1.00
O717   O     0.50000   0.18573   0.70928   0.00000  Uiso   1.00
O718   O     0.50000   0.31427   0.79072   0.00000  Uiso   1.00
O719   O     0.42495   0.24999   0.78132   0.00000  Uiso   1.00
O720   O     0.57505   0.25000   0.71868   0.00000  Uiso   1.00
O721   O     0.42495   0.25000   0.69988   0.00000  Uiso   1.00
O722   O     0.57505   0.25000   0.80011   0.00000  Uiso   1.00
C723   C     0.66174   0.29716   0.70048   0.00000  Uiso   1.00
O724   O     0.34562   0.30157   0.66199   0.00000  Uiso   1.00
O725   O     0.62653   0.32794   0.71416   0.00000  Uiso   1.00
H726   H     0.61726   0.35129   0.68859   0.00000  Uiso   1.00
C727   C     0.34027   0.20922   0.80348   0.00000  Uiso   1.00
O728   O     0.35921   0.17542   0.78956   0.00000  Uiso   1.00
O729   O     0.33798   0.21511   0.85307   0.00000  Uiso   1.00
H730   H     0.65832   0.24536   0.86120   0.00000  Uiso   1.00
C731   C     0.58516   0.11404   0.70995   0.00000  Uiso   1.00
O732   O     0.59813   0.15186   0.72122   0.00000  Uiso   1.00
O733   O     0.61315   0.08993   0.67926   0.00000  Uiso   1.00
H734   H     0.64286   0.10746   0.66915   0.00000  Uiso   1.00
C735   C     0.45476   0.38733   0.82928   0.00000  Uiso   1.00
O736   O     0.42272   0.35796   0.82096   0.00000  Uiso   1.00
O737   O     0.46806   0.40303   0.87671   0.00000  Uiso   1.00
H738   H     0.45005   0.38637   0.90115   0.00000  Uiso   1.00
C739   C     0.59692   0.27209   0.54406   0.00000  Uiso   1.00
O740   O     0.61236   0.25055   0.51151   0.00000  Uiso   1.00
O741   O     0.62693   0.30646   0.56645   0.00000  Uiso   1.00
H742   H     0.66032   0.31044   0.55231   0.00000  Uiso   1.00
C743   C     0.46898   0.16724   0.96246   0.00000  Uiso   1.00
O744   O     0.49114   0.15364   0.50087   0.00000  Uiso   1.00
O745   O     0.43056   0.14155   0.93611   0.00000  Uiso   1.00
H746   H     0.42398   0.11296   0.95305   0.00000  Uiso   1.00
O747   O     0.41669   0.21716   0.61674   0.00000  Uiso   1.00
C748   C     0.40922   0.17159   0.60598   0.00000  Uiso   1.00
H749   H     0.41188   0.15356   0.64089   0.00000  Uiso   1.00
H750   H     0.43842   0.15655   0.58501   0.00000  Uiso   1.00
C751   C     0.35551   0.16449   0.57845   0.00000  Uiso   1.00
H752   H     0.65964   0.17485   0.60183   0.00000  Uiso   1.00
H753   H     0.35073   0.18513   0.54533   0.00000  Uiso   1.00
C754   C     0.34648   0.11622   0.56351   0.00000  Uiso   1.00
H755   H     0.37344   0.10612   0.53781   0.00000  Uiso   1.00
H756   H     0.63992   0.11194   0.54530   0.00000  Uiso   1.00
H757   H     0.35214   0.09457   0.59581   0.00000  Uiso   1.00
O758   O     0.54116   0.32028   0.87848   0.00000  Uiso   1.00
C759   C     0.59505   0.32268   0.89139   0.00000  Uiso   1.00
H760   H     0.61318   0.31957   0.85757   0.00000  Uiso   1.00
H761   H     0.61164   0.29611   0.91634   0.00000  Uiso   1.00
C762   C     0.60933   0.36772   0.91450   0.00000  Uiso   1.00
H763   H     0.59447   0.39423   0.88904   0.00000  Uiso   1.00
H764   H     0.59139   0.37151   0.94835   0.00000  Uiso   1.00
C765   C     0.33406   0.37280   0.92654   0.00000  Uiso   1.00
H766   H     0.34961   0.34716   0.95278   0.00000  Uiso   1.00
H767   H     0.34328   0.40585   0.94300   0.00000  Uiso   1.00
H768   H     0.35269   0.36970   0.89303   0.00000  Uiso   1.00
C769   C     0.83451   0.16517   0.74994   0.00000  Uiso   1.00
C770   C     0.83115   0.33506   0.75000   0.00000  Uiso   1.00
C771   C     0.88015   0.26143   0.56040   0.00000  Uiso   1.00
C772   C     0.81722   0.21010   0.94271   0.00000  Uiso   1.00
C773   C     0.87602   0.26438   0.61067   0.00000  Uiso   1.00
C774   C     0.81429   0.21398   0.89169   0.00000  Uiso   1.00
C775   C     0.79282   0.23315   0.59843   0.00000  Uiso   1.00
C776   C     0.85445   0.28403   0.89934   0.00000  Uiso   1.00
C777   C     0.79318   0.23428   0.54770   0.00000  Uiso   1.00
C778   C     0.85331   0.28356   0.94991   0.00000  Uiso   1.00
C779   C     0.83728   0.24676   0.52766   0.00000  Uiso   1.00
C780   C     0.83645   0.24617   0.97294   0.00000  Uiso   1.00
C781   C     0.73483   0.25145   0.73801   0.00000  Uiso   1.00
C782   C     0.93190   0.24974   0.76219   0.00000  Uiso   1.00
C783   C     0.68071   0.26061   0.73391   0.00000  Uiso   1.00
C784   C     0.98644   0.24327   0.76740   0.00000  Uiso   1.00
C785   C     0.79394   0.04940   0.76810   0.00000  Uiso   1.00
C786   C     0.84391   0.45194   0.70975   0.00000  Uiso   1.00
C787   C     0.79639   0.09513   0.76906   0.00000  Uiso   1.00
C788   C     0.84347   0.40616   0.71051   0.00000  Uiso   1.00
C789   C     0.83579   0.11717   0.74966   0.00000  Uiso   1.00
C790   C     0.82794   0.38352   0.75004   0.00000  Uiso   1.00
C791   C     0.87423   0.09298   0.72955   0.00000  Uiso   1.00
C792   C     0.81123   0.40789   0.78896   0.00000  Uiso   1.00
C793   C     0.87160   0.04680   0.72970   0.00000  Uiso   1.00
C794   C     0.81426   0.45395   0.78866   0.00000  Uiso   1.00
C795   C     0.83171   0.02483   0.74877   0.00000  Uiso   1.00
C796   C     0.83005   0.47622   0.74909   0.00000  Uiso   1.00
Cu797  Cu    0.83333   0.24999   0.79821   0.00000  Uiso   1.00
Cu798  Cu    0.83333   0.25000   0.70178   0.00000  Uiso   1.00
H799   H     0.76212   0.03333   0.78209   0.00000  Uiso   1.00
H800   H     0.85515   0.46833   0.67826   0.00000  Uiso   1.00
H801   H     0.76676   0.11347   0.78414   0.00000  Uiso   1.00
H802   H     0.85581   0.38844   0.68007   0.00000  Uiso   1.00
H803   H     0.90164   0.02773   0.71618   0.00000  Uiso   1.00
H804   H     0.80333   0.47254   0.81915   0.00000  Uiso   1.00
H805   H     0.90820   0.27667   0.63511   0.00000  Uiso   1.00
H806   H     0.79842   0.18702   0.86875   0.00000  Uiso   1.00
H807   H     0.75907   0.22424   0.52401   0.00000  Uiso   1.00
H808   H     0.86670   0.31237   0.97122   0.00000  Uiso   1.00
N809   N     0.83333   0.25001   0.62935   0.00000  Uiso   1.00
N810   N     0.83333   0.24999   0.87065   0.00000  Uiso   1.00
O811   O     0.83334   0.18572   0.79071   0.00000  Uiso   1.00
O812   O     0.83333   0.31427   0.70928   0.00000  Uiso   1.00
O813   O     0.83334   0.18573   0.70928   0.00000  Uiso   1.00
O814   O     0.83333   0.31427   0.79072   0.00000  Uiso   1.00
O815   O     0.75828   0.24999   0.78132   0.00000  Uiso   1.00
O816   O     0.90839   0.25000   0.71868   0.00000  Uiso   1.00
O817   O     0.75828   0.25000   0.69988   0.00000  Uiso   1.00
O818   O     0.90839   0.25000   0.80011   0.00000  Uiso   1.00
C819   C     0.99508   0.29716   0.70048   0.00000  Uiso   1.00
O820   O     0.67895   0.30157   0.66199   0.00000  Uiso   1.00
O821   O     0.95986   0.32794   0.71416   0.00000  Uiso   1.00
H822   H     0.95059   0.35129   0.68859   0.00000  Uiso   1.00
C823   C     0.67360   0.20922   0.80348   0.00000  Uiso   1.00
O824   O     0.69255   0.17542   0.78956   0.00000  Uiso   1.00
O825   O     0.67131   0.21511   0.85307   0.00000  Uiso   1.00
H826   H     0.99166   0.24536   0.86120   0.00000  Uiso   1.00
C827   C     0.91849   0.11404   0.70995   0.00000  Uiso   1.00
O828   O     0.93147   0.15186   0.72122   0.00000  Uiso   1.00
O829   O     0.94648   0.08993   0.67926   0.00000  Uiso   1.00
H830   H     0.97619   0.10746   0.66915   0.00000  Uiso   1.00
C831   C     0.78809   0.38733   0.82928   0.00000  Uiso   1.00
O832   O     0.75605   0.35796   0.82096   0.00000  Uiso   1.00
O833   O     0.80140   0.40303   0.87671   0.00000  Uiso   1.00
H834   H     0.78338   0.38637   0.90115   0.00000  Uiso   1.00
C835   C     0.93025   0.27209   0.54406   0.00000  Uiso   1.00
O836   O     0.94570   0.25055   0.51151   0.00000  Uiso   1.00
O837   O     0.96027   0.30646   0.56645   0.00000  Uiso   1.00
H838   H     0.99365   0.31044   0.55231   0.00000  Uiso   1.00
C839   C     0.80231   0.16724   0.96246   0.00000  Uiso   1.00
O840   O     0.82447   0.15364   0.50087   0.00000  Uiso   1.00
O841   O     0.76389   0.14155   0.93611   0.00000  Uiso   1.00
H842   H     0.75731   0.11296   0.95305   0.00000  Uiso   1.00
O843   O     0.75002   0.21716   0.61674   0.00000  Uiso   1.00
C844   C     0.74255   0.17159   0.60598   0.00000  Uiso   1.00
H845   H     0.74522   0.15356   0.64089   0.00000  Uiso   1.00
H846   H     0.77176   0.15655   0.58501   0.00000  Uiso   1.00
C847   C     0.68884   0.16449   0.57845   0.00000  Uiso   1.00
H848   H     0.99297   0.17485   0.60183   0.00000  Uiso   1.00
H849   H     0.68406   0.18513   0.54533   0.00000  Uiso   1.00
C850   C     0.67982   0.11622   0.56351   0.00000  Uiso   1.00
H851   H     0.70677   0.10612   0.53781   0.00000  Uiso   1.00
H852   H     0.97325   0.11194   0.54530   0.00000  Uiso   1.00
H853   H     0.68547   0.09457   0.59581   0.00000  Uiso   1.00
O854   O     0.87450   0.32028   0.87848   0.00000  Uiso   1.00
C855   C     0.92839   0.32268   0.89139   0.00000  Uiso   1.00
H856   H     0.94651   0.31957   0.85757   0.00000  Uiso   1.00
H857   H     0.94497   0.29611   0.91634   0.00000  Uiso   1.00
C858   C     0.94267   0.36772   0.91450   0.00000  Uiso   1.00
H859   H     0.92780   0.39423   0.88904   0.00000  Uiso   1.00
H860   H     0.92472   0.37151   0.94835   0.00000  Uiso   1.00
C861   C     0.66739   0.37280   0.92654   0.00000  Uiso   1.00
H862   H     0.68294   0.34716   0.95278   0.00000  Uiso   1.00
H863   H     0.67661   0.40585   0.94300   0.00000  Uiso   1.00
H864   H     0.68602   0.36970   0.89303   0.00000  Uiso   1.00
C865   C     0.16784   0.66517   0.74994   0.00000  Uiso   1.00
C866   C     0.16449   0.83506   0.75000   0.00000  Uiso   1.00
C867   C     0.21348   0.76143   0.56040   0.00000  Uiso   1.00
C868   C     0.15055   0.71010   0.94271   0.00000  Uiso   1.00
C869   C     0.20935   0.76438   0.61067   0.00000  Uiso   1.00
C870   C     0.14762   0.71398   0.89169   0.00000  Uiso   1.00
C871   C     0.12616   0.73315   0.59843   0.00000  Uiso   1.00
C872   C     0.18778   0.78403   0.89934   0.00000  Uiso   1.00
C873   C     0.12652   0.73428   0.54770   0.00000  Uiso   1.00
C874   C     0.18664   0.78356   0.94991   0.00000  Uiso   1.00
C875   C     0.17062   0.74676   0.52766   0.00000  Uiso   1.00
C876   C     0.16978   0.74617   0.97294   0.00000  Uiso   1.00
C877   C     0.06817   0.75145   0.73801   0.00000  Uiso   1.00
C878   C     0.26524   0.74974   0.76219   0.00000  Uiso   1.00
C879   C     0.01404   0.76061   0.73391   0.00000  Uiso   1.00
C880   C     0.31977   0.74327   0.76740   0.00000  Uiso   1.00
C881   C     0.12727   0.54940   0.76810   0.00000  Uiso   1.00
C882   C     0.17725   0.95194   0.70975   0.00000  Uiso   1.00
C883   C     0.12972   0.59513   0.76906   0.00000  Uiso   1.00
C884   C     0.17680   0.90616   0.71051   0.00000  Uiso   1.00
C885   C     0.16912   0.61717   0.74966   0.00000  Uiso   1.00
C886   C     0.16127   0.88352   0.75004   0.00000  Uiso   1.00
C887   C     0.20756   0.59298   0.72955   0.00000  Uiso   1.00
C888   C     0.14456   0.90789   0.78896   0.00000  Uiso   1.00
C889   C     0.20493   0.54680   0.72970   0.00000  Uiso   1.00
C890   C     0.14759   0.95395   0.78866   0.00000  Uiso   1.00
C891   C     0.16504   0.52483   0.74877   0.00000  Uiso   1.00
C892   C     0.16338   0.97622   0.74909   0.00000  Uiso   1.00
Cu893  Cu    0.16667   0.74999   0.79821   0.00000  Uiso   1.00
Cu894  Cu    0.16667   0.75000   0.70178   0.00000  Uiso   1.00
H895   H     0.09545   0.53333   0.78209   0.00000  Uiso   1.00
H896   H     0.18848   0.96833   0.67826   0.00000  Uiso   1.00
H897   H     0.10009   0.61347   0.78414   0.00000  Uiso   1.00
H898   H     0.18914   0.88844   0.68007   0.00000  Uiso   1.00
H899   H     0.23498   0.52773   0.71618   0.00000  Uiso   1.00
H900   H     0.13666   0.97254   0.81915   0.00000  Uiso   1.00
H901   H     0.24154   0.77667   0.63511   0.00000  Uiso   1.00
H902   H     0.13176   0.68702   0.86875   0.00000  Uiso   1.00
H903   H     0.09241   0.72424   0.52401   0.00000  Uiso   1.00
H904   H     0.20004   0.81237   0.97122   0.00000  Uiso   1.00
N905   N     0.16667   0.75001   0.62935   0.00000  Uiso   1.00
N906   N     0.16667   0.74999   0.87065   0.00000  Uiso   1.00
O907   O     0.16667   0.68572   0.79071   0.00000  Uiso   1.00
O908   O     0.16666   0.81427   0.70928   0.00000  Uiso   1.00
O909   O     0.16667   0.68573   0.70928   0.00000  Uiso   1.00
O910   O     0.16666   0.81427   0.79072   0.00000  Uiso   1.00
O911   O     0.09161   0.74999   0.78132   0.00000  Uiso   1.00
O912   O     0.24172   0.75000   0.71868   0.00000  Uiso   1.00
O913   O     0.09161   0.75000   0.69988   0.00000  Uiso   1.00
O914   O     0.24172   0.75000   0.80011   0.00000  Uiso   1.00
C915   C     0.32841   0.79716   0.70048   0.00000  Uiso   1.00
O916   O     0.01228   0.80157   0.66199   0.00000  Uiso   1.00
O917   O     0.29319   0.82794   0.71416   0.00000  Uiso   1.00
H918   H     0.28393   0.85129   0.68859   0.00000  Uiso   1.00
C919   C     0.00694   0.70922   0.80348   0.00000  Uiso   1.00
O920   O     0.02588   0.67542   0.78956   0.00000  Uiso   1.00
O921   O     0.00465   0.71511   0.85307   0.00000  Uiso   1.00
H922   H     0.32499   0.74536   0.86120   0.00000  Uiso   1.00
C923   C     0.25182   0.61404   0.70995   0.00000  Uiso   1.00
O924   O     0.26480   0.65186   0.72122   0.00000  Uiso   1.00
O925   O     0.27981   0.58993   0.67926   0.00000  Uiso   1.00
H926   H     0.30952   0.60746   0.66915   0.00000  Uiso   1.00
C927   C     0.12143   0.88733   0.82928   0.00000  Uiso   1.00
O928   O     0.08939   0.85796   0.82096   0.00000  Uiso   1.00
O929   O     0.13473   0.90303   0.87671   0.00000  Uiso   1.00
H930   H     0.11672   0.88637   0.90115   0.00000  Uiso   1.00
C931   C     0.26358   0.77209   0.54406   0.00000  Uiso   1.00
O932   O     0.27903   0.75055   0.51151   0.00000  Uiso   1.00
O933   O     0.29360   0.80646   0.56645   0.00000  Uiso   1.00
H934   H     0.32699   0.81044   0.55231   0.00000  Uiso   1.00
C935   C     0.13564   0.66724   0.96246   0.00000  Uiso   1.00
O936   O     0.15781   0.65364   0.50087   0.00000  Uiso   1.00
O937   O     0.09723   0.64155   0.93611   0.00000  Uiso   1.00
H938   H     0.09065   0.61296   0.95305   0.00000  Uiso   1.00
O939   O     0.08335   0.71716   0.61674   0.00000  Uiso   1.00
C940   C     0.07588   0.67159   0.60598   0.00000  Uiso   1.00
H941   H     0.07855   0.65356   0.64089   0.00000  Uiso   1.00
H942   H     0.10509   0.65655   0.58501   0.00000  Uiso   1.00
C943   C     0.02217   0.66449   0.57845   0.00000  Uiso   1.00
H944   H     0.32631   0.67485   0.60183   0.00000  Uiso   1.00
H945   H     0.01739   0.68513   0.54533   0.00000  Uiso   1.00
C946   C     0.01315   0.61622   0.56351   0.00000  Uiso   1.00
H947   H     0.04010   0.60612   0.53781   0.00000  Uiso   1.00
H948   H     0.30658   0.61194   0.54530   0.00000  Uiso   1.00
H949   H     0.01881   0.59457   0.59581   0.00000  Uiso   1.00
O950   O     0.20783   0.82028   0.87848   0.00000  Uiso   1.00
C951   C     0.26172   0.82268   0.89139   0.00000  Uiso   1.00
H952   H     0.27985   0.81957   0.85757   0.00000  Uiso   1.00
H953   H     0.27830   0.79611   0.91634   0.00000  Uiso   1.00
C954   C     0.27600   0.86772   0.91450   0.00000  Uiso   1.00
H955   H     0.26114   0.89423   0.88904   0.00000  Uiso   1.00
H956   H     0.25805   0.87151   0.94835   0.00000  Uiso   1.00
C957   C     0.00072   0.87280   0.92654   0.00000  Uiso   1.00
H958   H     0.01627   0.84716   0.95278   0.00000  Uiso   1.00
H959   H     0.00994   0.90585   0.94300   0.00000  Uiso   1.00
H960   H     0.01935   0.86970   0.89303   0.00000  Uiso   1.00
C961   C     0.50118   0.66517   0.74994   0.00000  Uiso   1.00
C962   C     0.49782   0.83506   0.75000   0.00000  Uiso   1.00
C963   C     0.54681   0.76143   0.56040   0.00000  Uiso   1.00
C964   C     0.48388   0.71010   0.94271   0.00000  Uiso   1.00
C965   C     0.54268   0.76438   0.61067   0.00000  Uiso   1.00
C966   C     0.48096   0.71398   0.89169   0.00000  Uiso   1.00
C967   C     0.45949   0.73315   0.59843   0.00000  Uiso   1.00
C968   C     0.52111   0.78403   0.89934   0.00000  Uiso   1.00
C969   C     0.45985   0.73428   0.54770   0.00000  Uiso   1.00
C970   C     0.51998   0.78356   0.94991   0.00000  Uiso   1.00
C971   C     0.50395   0.74676   0.52766   0.00000  Uiso   1.00
C972   C     0.50312   0.74617   0.97294   0.00000  Uiso   1.00
C973   C     0.40150   0.75145   0.73801   0.00000  Uiso   1.00
C974   C     0.59857   0.74974   0.76219   0.00000  Uiso   1.00
C975   C     0.34737   0.76061   0.73391   0.00000  Uiso   1.00
C976   C     0.65311   0.74327   0.76740   0.00000  Uiso   1.00
C977   C     0.46060   0.54940   0.76810   0.00000  Uiso   1.00
C978   C     0.51058   0.95194   0.70975   0.00000  Uiso   1.00
C979   C     0.46305   0.59513   0.76906   0.00000  Uiso   1.00
C980   C     0.51013   0.90616   0.71051   0.00000  Uiso   1.00
C981   C     0.50245   0.61717   0.74966   0.00000  Uiso   1.00
C982   C     0.49460   0.88352   0.75004   0.00000  Uiso   1.00
C983   C     0.54089   0.59298   0.72955   0.00000  Uiso   1.00
C984   C     0.47789   0.90789   0.78896   0.00000  Uiso   1.00
C985   C     0.53827   0.54680   0.72970   0.00000  Uiso   1.00
C986   C     0.48092   0.95395   0.78866   0.00000  Uiso   1.00
C987   C     0.49838   0.52483   0.74877   0.00000  Uiso   1.00
C988   C     0.49672   0.97622   0.74909   0.00000  Uiso   1.00
Cu989  Cu    0.50000   0.74999   0.79821   0.00000  Uiso   1.00
Cu990  Cu    0.50000   0.75000   0.70178   0.00000  Uiso   1.00
H991   H     0.42879   0.53333   0.78209   0.00000  Uiso   1.00
H992   H     0.52181   0.96833   0.67826   0.00000  Uiso   1.00
H993   H     0.43342   0.61347   0.78414   0.00000  Uiso   1.00
H994   H     0.52248   0.88844   0.68007   0.00000  Uiso   1.00
H995   H     0.56831   0.52773   0.71618   0.00000  Uiso   1.00
H996   H     0.46999   0.97254   0.81915   0.00000  Uiso   1.00
H997   H     0.57487   0.77667   0.63511   0.00000  Uiso   1.00
H998   H     0.46509   0.68702   0.86875   0.00000  Uiso   1.00
H999   H     0.42574   0.72424   0.52401   0.00000  Uiso   1.00
H1000  H     0.53337   0.81237   0.97122   0.00000  Uiso   1.00
N1001  N     0.50000   0.75001   0.62935   0.00000  Uiso   1.00
N1002  N     0.50000   0.74999   0.87065   0.00000  Uiso   1.00
O1003  O     0.50000   0.68572   0.79071   0.00000  Uiso   1.00
O1004  O     0.50000   0.81427   0.70928   0.00000  Uiso   1.00
O1005  O     0.50000   0.68573   0.70928   0.00000  Uiso   1.00
O1006  O     0.50000   0.81427   0.79072   0.00000  Uiso   1.00
O1007  O     0.42495   0.74999   0.78132   0.00000  Uiso   1.00
O1008  O     0.57505   0.75000   0.71868   0.00000  Uiso   1.00
O1009  O     0.42495   0.75000   0.69988   0.00000  Uiso   1.00
O1010  O     0.57505   0.75000   0.80011   0.00000  Uiso   1.00
C1011  C     0.66174   0.79716   0.70048   0.00000  Uiso   1.00
O1012  O     0.34562   0.80157   0.66199   0.00000  Uiso   1.00
O1013  O     0.62653   0.82794   0.71416   0.00000  Uiso   1.00
H1014  H     0.61726   0.85129   0.68859   0.00000  Uiso   1.00
C1015  C     0.34027   0.70922   0.80348   0.00000  Uiso   1.00
O1016  O     0.35921   0.67542   0.78956   0.00000  Uiso   1.00
O1017  O     0.33798   0.71511   0.85307   0.00000  Uiso   1.00
H1018  H     0.65832   0.74536   0.86120   0.00000  Uiso   1.00
C1019  C     0.58516   0.61404   0.70995   0.00000  Uiso   1.00
O1020  O     0.59813   0.65186   0.72122   0.00000  Uiso   1.00
O1021  O     0.61315   0.58993   0.67926   0.00000  Uiso   1.00
H1022  H     0.64286   0.60746   0.66915   0.00000  Uiso   1.00
C1023  C     0.45476   0.88733   0.82928   0.00000  Uiso   1.00
O1024  O     0.42272   0.85796   0.82096   0.00000  Uiso   1.00
O1025  O     0.46806   0.90303   0.87671   0.00000  Uiso   1.00
H1026  H     0.45005   0.88637   0.90115   0.00000  Uiso   1.00
C1027  C     0.59692   0.77209   0.54406   0.00000  Uiso   1.00
O1028  O     0.61236   0.75055   0.51151   0.00000  Uiso   1.00
O1029  O     0.62693   0.80646   0.56645   0.00000  Uiso   1.00
H1030  H     0.66032   0.81044   0.55231   0.00000  Uiso   1.00
C1031  C     0.46898   0.66724   0.96246   0.00000  Uiso   1.00
O1032  O     0.49114   0.65364   0.50087   0.00000  Uiso   1.00
O1033  O     0.43056   0.64155   0.93611   0.00000  Uiso   1.00
H1034  H     0.42398   0.61296   0.95305   0.00000  Uiso   1.00
O1035  O     0.41669   0.71716   0.61674   0.00000  Uiso   1.00
C1036  C     0.40922   0.67159   0.60598   0.00000  Uiso   1.00
H1037  H     0.41188   0.65356   0.64089   0.00000  Uiso   1.00
H1038  H     0.43842   0.65655   0.58501   0.00000  Uiso   1.00
C1039  C     0.35551   0.66449   0.57845   0.00000  Uiso   1.00
H1040  H     0.65964   0.67485   0.60183   0.00000  Uiso   1.00
H1041  H     0.35073   0.68513   0.54533   0.00000  Uiso   1.00
C1042  C     0.34648   0.61622   0.56351   0.00000  Uiso   1.00
H1043  H     0.37344   0.60612   0.53781   0.00000  Uiso   1.00
H1044  H     0.63992   0.61194   0.54530   0.00000  Uiso   1.00
H1045  H     0.35214   0.59457   0.59581   0.00000  Uiso   1.00
O1046  O     0.54116   0.82028   0.87848   0.00000  Uiso   1.00
C1047  C     0.59505   0.82268   0.89139   0.00000  Uiso   1.00
H1048  H     0.61318   0.81957   0.85757   0.00000  Uiso   1.00
H1049  H     0.61164   0.79611   0.91634   0.00000  Uiso   1.00
C1050  C     0.60933   0.86772   0.91450   0.00000  Uiso   1.00
H1051  H     0.59447   0.89423   0.88904   0.00000  Uiso   1.00
H1052  H     0.59139   0.87151   0.94835   0.00000  Uiso   1.00
C1053  C     0.33406   0.87280   0.92654   0.00000  Uiso   1.00
H1054  H     0.34961   0.84716   0.95278   0.00000  Uiso   1.00
H1055  H     0.34328   0.90585   0.94300   0.00000  Uiso   1.00
H1056  H     0.35269   0.86970   0.89303   0.00000  Uiso   1.00
C1057  C     0.83451   0.66517   0.74994   0.00000  Uiso   1.00
C1058  C     0.83115   0.83506   0.75000   0.00000  Uiso   1.00
C1059  C     0.88015   0.76143   0.56040   0.00000  Uiso   1.00
C1060  C     0.81722   0.71010   0.94271   0.00000  Uiso   1.00
C1061  C     0.87602   0.76438   0.61067   0.00000  Uiso   1.00
C1062  C     0.81429   0.71398   0.89169   0.00000  Uiso   1.00
C1063  C     0.79282   0.73315   0.59843   0.00000  Uiso   1.00
C1064  C     0.85445   0.78403   0.89934   0.00000  Uiso   1.00
C1065  C     0.79318   0.73428   0.54770   0.00000  Uiso   1.00
C1066  C     0.85331   0.78356   0.94991   0.00000  Uiso   1.00
C1067  C     0.83728   0.74676   0.52766   0.00000  Uiso   1.00
C1068  C     0.83645   0.74617   0.97294   0.00000  Uiso   1.00
C1069  C     0.73483   0.75145   0.73801   0.00000  Uiso   1.00
C1070  C     0.93190   0.74974   0.76219   0.00000  Uiso   1.00
C1071  C     0.68071   0.76061   0.73391   0.00000  Uiso   1.00
C1072  C     0.98644   0.74327   0.76740   0.00000  Uiso   1.00
C1073  C     0.79394   0.54940   0.76810   0.00000  Uiso   1.00
C1074  C     0.84391   0.95194   0.70975   0.00000  Uiso   1.00
C1075  C     0.79639   0.59513   0.76906   0.00000  Uiso   1.00
C1076  C     0.84347   0.90616   0.71051   0.00000  Uiso   1.00
C1077  C     0.83579   0.61717   0.74966   0.00000  Uiso   1.00
C1078  C     0.82794   0.88352   0.75004   0.00000  Uiso   1.00
C1079  C     0.87423   0.59298   0.72955   0.00000  Uiso   1.00
C1080  C     0.81123   0.90789   0.78896   0.00000  Uiso   1.00
C1081  C     0.87160   0.54680   0.72970   0.00000  Uiso   1.00
C1082  C     0.81426   0.95395   0.78866   0.00000  Uiso   1.00
C1083  C     0.83171   0.52483   0.74877   0.00000  Uiso   1.00
C1084  C     0.83005   0.97622   0.74909   0.00000  Uiso   1.00
Cu1085 Cu    0.83333   0.74999   0.79821   0.00000  Uiso   1.00
Cu1086 Cu    0.83333   0.75000   0.70178   0.00000  Uiso   1.00
H1087  H     0.76212   0.53333   0.78209   0.00000  Uiso   1.00
H1088  H     0.85515   0.96833   0.67826   0.00000  Uiso   1.00
H1089  H     0.76676   0.61347   0.78414   0.00000  Uiso   1.00
H1090  H     0.85581   0.88844   0.68007   0.00000  Uiso   1.00
H1091  H     0.90164   0.52773   0.71618   0.00000  Uiso   1.00
H1092  H     0.80333   0.97254   0.81915   0.00000  Uiso   1.00
H1093  H     0.90820   0.77667   0.63511   0.00000  Uiso   1.00
H1094  H     0.79842   0.68702   0.86875   0.00000  Uiso   1.00
H1095  H     0.75907   0.72424   0.52401   0.00000  Uiso   1.00
H1096  H     0.86670   0.81237   0.97122   0.00000  Uiso   1.00
N1097  N     0.83333   0.75001   0.62935   0.00000  Uiso   1.00
N1098  N     0.83333   0.74999   0.87065   0.00000  Uiso   1.00
O1099  O     0.83334   0.68572   0.79071   0.00000  Uiso   1.00
O1100  O     0.83333   0.81427   0.70928   0.00000  Uiso   1.00
O1101  O     0.83334   0.68573   0.70928   0.00000  Uiso   1.00
O1102  O     0.83333   0.81427   0.79072   0.00000  Uiso   1.00
O1103  O     0.75828   0.74999   0.78132   0.00000  Uiso   1.00
O1104  O     0.90839   0.75000   0.71868   0.00000  Uiso   1.00
O1105  O     0.75828   0.75000   0.69988   0.00000  Uiso   1.00
O1106  O     0.90839   0.75000   0.80011   0.00000  Uiso   1.00
C1107  C     0.99508   0.79716   0.70048   0.00000  Uiso   1.00
O1108  O     0.67895   0.80157   0.66199   0.00000  Uiso   1.00
O1109  O     0.95986   0.82794   0.71416   0.00000  Uiso   1.00
H1110  H     0.95059   0.85129   0.68859   0.00000  Uiso   1.00
C1111  C     0.67360   0.70922   0.80348   0.00000  Uiso   1.00
O1112  O     0.69255   0.67542   0.78956   0.00000  Uiso   1.00
O1113  O     0.67131   0.71511   0.85307   0.00000  Uiso   1.00
H1114  H     0.99166   0.74536   0.86120   0.00000  Uiso   1.00
C1115  C     0.91849   0.61404   0.70995   0.00000  Uiso   1.00
O1116  O     0.93147   0.65186   0.72122   0.00000  Uiso   1.00
O1117  O     0.94648   0.58993   0.67926   0.00000  Uiso   1.00
H1118  H     0.97619   0.60746   0.66915   0.00000  Uiso   1.00
C1119  C     0.78809   0.88733   0.82928   0.00000  Uiso   1.00
O1120  O     0.75605   0.85796   0.82096   0.00000  Uiso   1.00
O1121  O     0.80140   0.90303   0.87671   0.00000  Uiso   1.00
H1122  H     0.78338   0.88637   0.90115   0.00000  Uiso   1.00
C1123  C     0.93025   0.77209   0.54406   0.00000  Uiso   1.00
O1124  O     0.94570   0.75055   0.51151   0.00000  Uiso   1.00
O1125  O     0.96027   0.80646   0.56645   0.00000  Uiso   1.00
H1126  H     0.99365   0.81044   0.55231   0.00000  Uiso   1.00
C1127  C     0.80231   0.66724   0.96246   0.00000  Uiso   1.00
O1128  O     0.82447   0.65364   0.50087   0.00000  Uiso   1.00
O1129  O     0.76389   0.64155   0.93611   0.00000  Uiso   1.00
H1130  H     0.75731   0.61296   0.95305   0.00000  Uiso   1.00
O1131  O     0.75002   0.71716   0.61674   0.00000  Uiso   1.00
C1132  C     0.74255   0.67159   0.60598   0.00000  Uiso   1.00
H1133  H     0.74522   0.65356   0.64089   0.00000  Uiso   1.00
H1134  H     0.77176   0.65655   0.58501   0.00000  Uiso   1.00
C1135  C     0.68884   0.66449   0.57845   0.00000  Uiso   1.00
H1136  H     0.99297   0.67485   0.60183   0.00000  Uiso   1.00
H1137  H     0.68406   0.68513   0.54533   0.00000  Uiso   1.00
C1138  C     0.67982   0.61622   0.56351   0.00000  Uiso   1.00
H1139  H     0.70677   0.60612   0.53781   0.00000  Uiso   1.00
H1140  H     0.97325   0.61194   0.54530   0.00000  Uiso   1.00
H1141  H     0.68547   0.59457   0.59581   0.00000  Uiso   1.00
O1142  O     0.87450   0.82028   0.87848   0.00000  Uiso   1.00
C1143  C     0.92839   0.82268   0.89139   0.00000  Uiso   1.00
H1144  H     0.94651   0.81957   0.85757   0.00000  Uiso   1.00
H1145  H     0.94497   0.79611   0.91634   0.00000  Uiso   1.00
C1146  C     0.94267   0.86772   0.91450   0.00000  Uiso   1.00
H1147  H     0.92780   0.89423   0.88904   0.00000  Uiso   1.00
H1148  H     0.92472   0.87151   0.94835   0.00000  Uiso   1.00
C1149  C     0.66739   0.87280   0.92654   0.00000  Uiso   1.00
H1150  H     0.68294   0.84716   0.95278   0.00000  Uiso   1.00
H1151  H     0.67661   0.90585   0.94300   0.00000  Uiso   1.00
H1152  H     0.68602   0.86970   0.89303   0.00000  Uiso   1.00
loop_
_geom_bond_atom_site_label_1
_geom_bond_atom_site_label_2
_geom_bond_distance
_geom_bond_site_symmetry_2
_ccdc_geom_bond_type
C1     C21     1.454   .     S
C1     O43     1.293   .     A
C1     O45     1.291   .     A
C2     O46     1.294   .     A
C2     O44     1.298   .     A
C2     C22     1.470   .     S
C3     C67     1.483   .     S
C3     C5      1.417   .     A
C3     C11     1.421   .     A
C4     C12     1.424   .     A
C4     C6      1.416   .     A
C4     C71     1.484   .     S
C5     H37     1.077   .     S
C5     N41     1.367   .     A
C6     H38     1.081   .     S
C6     N42     1.366   .     A
C7     O75     1.382   .     S
C7     C9      1.412   .     A
C7     N41     1.373   .     A
C8     O86     1.380   .     S
C8     N42     1.370   .     A
C8     C10     1.410   .     A
C9     H39     1.082   .     S
C9     C11     1.402   .     A
C10    H40     1.082   .     S
C10    C12     1.404   .     A
C11    C588    1.518   1_554 S
C12    C587    1.518   .     S
C13    O47     1.280   .     A
C13    C15     1.440   .     S
C13    O49     1.293   .     A
C14    C16     1.436   .     S
C14    O48     1.285   .     A
C14    O50     1.289   .     A
C15    C208    1.360   1_455 S
C15    C243    1.495   1_455 S
C16    C111    1.360   .     S
C16    C151    1.496   .     S
C17    C27     1.401   .     A
C17    H31     1.083   .     S
C17    C19     1.386   .     A
C18    C28     1.400   .     A
C18    H32     1.083   .     S
C18    C20     1.387   .     A
C19    C21     1.398   .     A
C19    H33     1.083   .     S
C20    H34     1.083   .     S
C20    C22     1.404   .     A
C21    C23     1.419   .     A
C22    C24     1.421   .     A
C23    C59     1.491   .     S
C23    C25     1.400   .     A
C24    C26     1.397   .     A
C24    C63     1.483   .     S
C25    H35     1.083   .     S
C25    C27     1.403   .     A
C26    H36     1.084   .     S
C26    C28     1.402   .     A
C27    C316    1.473   1_545 S
C28    C315    1.473   .     S
Cu29   N42     2.013   .     S
Cu29   O47     1.967   .     S
Cu29   O43     1.956   .     S
Cu29   O50     1.966   .     S
Cu29   Cu30    2.680   .     S
Cu29   O46     1.959   .     S
Cu30   O45     1.959   .     S
Cu30   O48     1.967   .     S
Cu30   N41     2.013   .     S
Cu30   O44     1.956   .     S
Cu30   O49     1.966   .     S
C51    O53     1.400   .     S
C51    C111    1.495   .     S
C51    O148    1.222   .     S
O52    C243    1.222   1_455 S
O53    H54     1.014   .     S
C55    O56     1.221   .     D
C55    O57     1.397   .     S
C55    C208    1.496   1_455 S
O57    H250    1.012   1_455 S
H58    O153    1.012   .     S
C59    O60     1.221   .     D
C59    O61     1.399   .     S
O61    H62     1.014   .     S
C63    O65     1.398   .     S
C63    O64     1.223   .     D
O65    H66     1.014   .     S
C67    O68     1.223   .     D
C67    O69     1.397   .     S
O69    H70     1.014   .     S
C71    O73     1.399   .     S
C71    O648    1.223   .     S
O72    C647    1.223   1_554 S
O73    H74     1.014   .     S
O75    C76     1.417   .     S
C76    C79     1.530   .     S
C76    H78     1.118   .     S
C76    H77     1.112   .     S
C79    H81     1.111   .     S
C79    C82     1.526   .     S
C79    H272    1.112   1_455 S
H80    C175    1.112   .     S
C82    H83     1.111   .     S
C82    H85     1.110   .     S
C82    H276    1.110   1_455 S
H84    C178    1.110   .     S
O86    C87     1.417   .     S
C87    H88     1.111   .     S
C87    C90     1.528   .     S
C87    H89     1.118   .     S
C90    H91     1.112   .     S
C90    H92     1.111   .     S
C90    C189    1.526   .     S
C93    H94     1.111   .     S
C93    H95     1.110   .     S
C93    H96     1.110   .     S
C93    C282    1.526   1_455 S
C97    C117    1.454   .     S
C97    O139    1.293   .     A
C97    O141    1.291   .     A
C98    O142    1.294   .     A
C98    O140    1.298   .     A
C98    C118    1.470   .     S
C99    C163    1.483   .     S
C99    C101    1.417   .     A
C99    C107    1.421   .     A
C100   C108    1.424   .     A
C100   C102    1.416   .     A
C100   C167    1.484   .     S
C101   H133    1.077   .     S
C101   N137    1.367   .     A
C102   H134    1.081   .     S
C102   N138    1.366   .     A
C103   O171    1.382   .     S
C103   C105    1.412   .     A
C103   N137    1.373   .     A
C104   O182    1.380   .     S
C104   N138    1.370   .     A
C104   C106    1.410   .     A
C105   H135    1.082   .     S
C105   C107    1.402   .     A
C106   H136    1.082   .     S
C106   C108    1.404   .     A
C107   C684    1.518   1_554 S
C108   C683    1.518   .     S
C109   O143    1.280   .     A
C109   C111    1.440   .     S
C109   O145    1.293   .     A
C110   C112    1.436   .     S
C110   O144    1.285   .     A
C110   O146    1.289   .     A
C112   C207    1.360   .     S
C112   C247    1.496   .     S
C113   C123    1.401   .     A
C113   H127    1.083   .     S
C113   C115    1.386   .     A
C114   C124    1.400   .     A
C114   H128    1.083   .     S
C114   C116    1.387   .     A
C115   C117    1.398   .     A
C115   H129    1.083   .     S
C116   H130    1.083   .     S
C116   C118    1.404   .     A
C117   C119    1.419   .     A
C118   C120    1.421   .     A
C119   C155    1.491   .     S
C119   C121    1.400   .     A
C120   C122    1.397   .     A
C120   C159    1.483   .     S
C121   H131    1.083   .     S
C121   C123    1.403   .     A
C122   H132    1.084   .     S
C122   C124    1.402   .     A
C123   C412    1.473   1_545 S
C124   C411    1.473   .     S
Cu125  N138    2.013   .     S
Cu125  O143    1.967   .     S
Cu125  O139    1.956   .     S
Cu125  O146    1.966   .     S
Cu125  Cu126   2.680   .     S
Cu125  O142    1.959   .     S
Cu126  O141    1.959   .     S
Cu126  O144    1.967   .     S
Cu126  N137    2.013   .     S
Cu126  O140    1.956   .     S
Cu126  O145    1.966   .     S
C147   O149    1.400   .     S
C147   C207    1.495   .     S
C147   O244    1.222   .     S
O149   H150    1.014   .     S
C151   O152    1.221   .     D
C151   O153    1.397   .     S
H154   O249    1.012   .     S
C155   O156    1.221   .     D
C155   O157    1.399   .     S
O157   H158    1.014   .     S
C159   O161    1.398   .     S
C159   O160    1.223   .     D
O161   H162    1.014   .     S
C163   O164    1.223   .     D
C163   O165    1.397   .     S
O165   H166    1.014   .     S
C167   O169    1.399   .     S
C167   O744    1.223   .     S
O168   C743    1.223   1_554 S
O169   H170    1.014   .     S
O171   C172    1.417   .     S
C172   C175    1.530   .     S
C172   H174    1.118   .     S
C172   H173    1.112   .     S
C175   H177    1.111   .     S
C175   C178    1.526   .     S
H176   C271    1.112   .     S
C178   H179    1.111   .     S
C178   H181    1.110   .     S
H180   C274    1.110   .     S
O182   C183    1.417   .     S
C183   H184    1.111   .     S
C183   C186    1.528   .     S
C183   H185    1.118   .     S
C186   H187    1.112   .     S
C186   H188    1.111   .     S
C186   C285    1.526   .     S
C189   H190    1.111   .     S
C189   H191    1.110   .     S
C189   H192    1.110   .     S
C193   C213    1.454   .     S
C193   O235    1.293   .     A
C193   O237    1.291   .     A
C194   O238    1.294   .     A
C194   O236    1.298   .     A
C194   C214    1.470   .     S
C195   C259    1.483   .     S
C195   C197    1.417   .     A
C195   C203    1.421   .     A
C196   C204    1.424   .     A
C196   C198    1.416   .     A
C196   C263    1.484   .     S
C197   H229    1.077   .     S
C197   N233    1.367   .     A
C198   H230    1.081   .     S
C198   N234    1.366   .     A
C199   O267    1.382   .     S
C199   C201    1.412   .     A
C199   N233    1.373   .     A
C200   O278    1.380   .     S
C200   N234    1.370   .     A
C200   C202    1.410   .     A
C201   H231    1.082   .     S
C201   C203    1.402   .     A
C202   H232    1.082   .     S
C202   C204    1.404   .     A
C203   C780    1.518   1_554 S
C204   C779    1.518   .     S
C205   O239    1.280   .     A
C205   C207    1.440   .     S
C205   O241    1.293   .     A
C206   C208    1.436   .     S
C206   O240    1.285   .     A
C206   O242    1.289   .     A
C208   C15     1.360   1_655 S
C208   C55     1.496   1_655 S
C209   C219    1.401   .     A
C209   H223    1.083   .     S
C209   C211    1.386   .     A
C210   C220    1.400   .     A
C210   H224    1.083   .     S
C210   C212    1.387   .     A
C211   C213    1.398   .     A
C211   H225    1.083   .     S
C212   H226    1.083   .     S
C212   C214    1.404   .     A
C213   C215    1.419   .     A
C214   C216    1.421   .     A
C215   C251    1.491   .     S
C215   C217    1.400   .     A
C216   C218    1.397   .     A
C216   C255    1.483   .     S
C217   H227    1.083   .     S
C217   C219    1.403   .     A
C218   H228    1.084   .     S
C218   C220    1.402   .     A
C219   C508    1.473   1_545 S
C220   C507    1.473   .     S
Cu221  N234    2.013   .     S
Cu221  O239    1.967   .     S
Cu221  O235    1.956   .     S
Cu221  O242    1.966   .     S
Cu221  Cu222   2.680   .     S
Cu221  O238    1.959   .     S
Cu222  O237    1.959   .     S
Cu222  O240    1.967   .     S
Cu222  N233    2.013   .     S
Cu222  O236    1.956   .     S
Cu222  O241    1.966   .     S
C243   O245    1.400   .     S
C243   C15     1.495   1_655 S
C243   O52     1.222   1_655 S
O245   H246    1.014   .     S
C247   O248    1.221   .     D
C247   O249    1.397   .     S
H250   O57     1.012   1_655 S
C251   O252    1.221   .     D
C251   O253    1.399   .     S
O253   H254    1.014   .     S
C255   O257    1.398   .     S
C255   O256    1.223   .     D
O257   H258    1.014   .     S
C259   O260    1.223   .     D
C259   O261    1.397   .     S
O261   H262    1.014   .     S
C263   O265    1.399   .     S
C263   O840    1.223   .     S
O264   C839    1.223   1_554 S
O265   H266    1.014   .     S
O267   C268    1.417   .     S
C268   C271    1.530   .     S
C268   H270    1.118   .     S
C268   H269    1.112   .     S
C271   H273    1.111   .     S
C271   C274    1.526   .     S
H272   C79     1.112   1_655 S
C274   H275    1.111   .     S
C274   H277    1.110   .     S
H276   C82     1.110   1_655 S
O278   C279    1.417   .     S
C279   H280    1.111   .     S
C279   C282    1.528   .     S
C279   H281    1.118   .     S
C282   H283    1.112   .     S
C282   H284    1.111   .     S
C282   C93     1.526   1_655 S
C285   H286    1.111   .     S
C285   H287    1.110   .     S
C285   H288    1.110   .     S
C289   C309    1.454   .     S
C289   O331    1.293   .     A
C289   O333    1.291   .     A
C290   O334    1.294   .     A
C290   O332    1.298   .     A
C290   C310    1.470   .     S
C291   C355    1.483   .     S
C291   C293    1.417   .     A
C291   C299    1.421   .     A
C292   C300    1.424   .     A
C292   C294    1.416   .     A
C292   C359    1.484   .     S
C293   H325    1.077   .     S
C293   N329    1.367   .     A
C294   H326    1.081   .     S
C294   N330    1.366   .     A
C295   O363    1.382   .     S
C295   C297    1.412   .     A
C295   N329    1.373   .     A
C296   O374    1.380   .     S
C296   N330    1.370   .     A
C296   C298    1.410   .     A
C297   H327    1.082   .     S
C297   C299    1.402   .     A
C298   H328    1.082   .     S
C298   C300    1.404   .     A
C299   C876    1.518   1_554 S
C300   C875    1.518   .     S
C301   O335    1.280   .     A
C301   C303    1.440   .     S
C301   O337    1.293   .     A
C302   C304    1.436   .     S
C302   O336    1.285   .     A
C302   O338    1.289   .     A
C303   C496    1.360   1_455 S
C303   C531    1.495   1_455 S
C304   C399    1.360   .     S
C304   C439    1.496   .     S
C305   C315    1.401   .     A
C305   H319    1.083   .     S
C305   C307    1.386   .     A
C306   C316    1.400   .     A
C306   H320    1.083   .     S
C306   C308    1.387   .     A
C307   C309    1.398   .     A
C307   H321    1.083   .     S
C308   H322    1.083   .     S
C308   C310    1.404   .     A
C309   C311    1.419   .     A
C310   C312    1.421   .     A
C311   C347    1.491   .     S
C311   C313    1.400   .     A
C312   C314    1.397   .     A
C312   C351    1.483   .     S
C313   H323    1.083   .     S
C313   C315    1.403   .     A
C314   H324    1.084   .     S
C314   C316    1.402   .     A
C316   C27     1.473   1_565 S
Cu317  N330    2.013   .     S
Cu317  O335    1.967   .     S
Cu317  O331    1.956   .     S
Cu317  O338    1.966   .     S
Cu317  Cu318   2.680   .     S
Cu317  O334    1.959   .     S
Cu318  O333    1.959   .     S
Cu318  O336    1.967   .     S
Cu318  N329    2.013   .     S
Cu318  O332    1.956   .     S
Cu318  O337    1.966   .     S
C339   O341    1.400   .     S
C339   C399    1.495   .     S
C339   O436    1.222   .     S
O340   C531    1.222   1_455 S
O341   H342    1.014   .     S
C343   O344    1.221   .     D
C343   O345    1.397   .     S
C343   C496    1.496   1_455 S
O345   H538    1.012   1_455 S
H346   O441    1.012   .     S
C347   O348    1.221   .     D
C347   O349    1.399   .     S
O349   H350    1.014   .     S
C351   O353    1.398   .     S
C351   O352    1.223   .     D
O353   H354    1.014   .     S
C355   O356    1.223   .     D
C355   O357    1.397   .     S
O357   H358    1.014   .     S
C359   O361    1.399   .     S
C359   O936    1.223   .     S
O360   C935    1.223   1_554 S
O361   H362    1.014   .     S
O363   C364    1.417   .     S
C364   C367    1.530   .     S
C364   H366    1.118   .     S
C364   H365    1.112   .     S
C367   H369    1.111   .     S
C367   C370    1.526   .     S
C367   H560    1.112   1_455 S
H368   C463    1.112   .     S
C370   H371    1.111   .     S
C370   H373    1.110   .     S
C370   H564    1.110   1_455 S
H372   C466    1.110   .     S
O374   C375    1.417   .     S
C375   H376    1.111   .     S
C375   C378    1.528   .     S
C375   H377    1.118   .     S
C378   H379    1.112   .     S
C378   H380    1.111   .     S
C378   C477    1.526   .     S
C381   H382    1.111   .     S
C381   H383    1.110   .     S
C381   H384    1.110   .     S
C381   C570    1.526   1_455 S
C385   C405    1.454   .     S
C385   O427    1.293   .     A
C385   O429    1.291   .     A
C386   O430    1.294   .     A
C386   O428    1.298   .     A
C386   C406    1.470   .     S
C387   C451    1.483   .     S
C387   C389    1.417   .     A
C387   C395    1.421   .     A
C388   C396    1.424   .     A
C388   C390    1.416   .     A
C388   C455    1.484   .     S
C389   H421    1.077   .     S
C389   N425    1.367   .     A
C390   H422    1.081   .     S
C390   N426    1.366   .     A
C391   O459    1.382   .     S
C391   C393    1.412   .     A
C391   N425    1.373   .     A
C392   O470    1.380   .     S
C392   N426    1.370   .     A
C392   C394    1.410   .     A
C393   H423    1.082   .     S
C393   C395    1.402   .     A
C394   H424    1.082   .     S
C394   C396    1.404   .     A
C395   C972    1.518   1_554 S
C396   C971    1.518   .     S
C397   O431    1.280   .     A
C397   C399    1.440   .     S
C397   O433    1.293   .     A
C398   C400    1.436   .     S
C398   O432    1.285   .     A
C398   O434    1.289   .     A
C400   C495    1.360   .     S
C400   C535    1.496   .     S
C401   C411    1.401   .     A
C401   H415    1.083   .     S
C401   C403    1.386   .     A
C402   C412    1.400   .     A
C402   H416    1.083   .     S
C402   C404    1.387   .     A
C403   C405    1.398   .     A
C403   H417    1.083   .     S
C404   H418    1.083   .     S
C404   C406    1.404   .     A
C405   C407    1.419   .     A
C406   C408    1.421   .     A
C407   C443    1.491   .     S
C407   C409    1.400   .     A
C408   C410    1.397   .     A
C408   C447    1.483   .     S
C409   H419    1.083   .     S
C409   C411    1.403   .     A
C410   H420    1.084   .     S
C410   C412    1.402   .     A
C412   C123    1.473   1_565 S
Cu413  N426    2.013   .     S
Cu413  O431    1.967   .     S
Cu413  O427    1.956   .     S
Cu413  O434    1.966   .     S
Cu413  Cu414   2.680   .     S
Cu413  O430    1.959   .     S
Cu414  O429    1.959   .     S
Cu414  O432    1.967   .     S
Cu414  N425    2.013   .     S
Cu414  O428    1.956   .     S
Cu414  O433    1.966   .     S
C435   O437    1.400   .     S
C435   C495    1.495   .     S
C435   O532    1.222   .     S
O437   H438    1.014   .     S
C439   O440    1.221   .     D
C439   O441    1.397   .     S
H442   O537    1.012   .     S
C443   O444    1.221   .     D
C443   O445    1.399   .     S
O445   H446    1.014   .     S
C447   O449    1.398   .     S
C447   O448    1.223   .     D
O449   H450    1.014   .     S
C451   O452    1.223   .     D
C451   O453    1.397   .     S
O453   H454    1.014   .     S
C455   O457    1.399   .     S
C455   O1032   1.223   .     S
O456   C1031   1.223   1_554 S
O457   H458    1.014   .     S
O459   C460    1.417   .     S
C460   C463    1.530   .     S
C460   H462    1.118   .     S
C460   H461    1.112   .     S
C463   H465    1.111   .     S
C463   C466    1.526   .     S
H464   C559    1.112   .     S
C466   H467    1.111   .     S
C466   H469    1.110   .     S
H468   C562    1.110   .     S
O470   C471    1.417   .     S
C471   H472    1.111   .     S
C471   C474    1.528   .     S
C471   H473    1.118   .     S
C474   H475    1.112   .     S
C474   H476    1.111   .     S
C474   C573    1.526   .     S
C477   H478    1.111   .     S
C477   H479    1.110   .     S
C477   H480    1.110   .     S
C481   C501    1.454   .     S
C481   O523    1.293   .     A
C481   O525    1.291   .     A
C482   O526    1.294   .     A
C482   O524    1.298   .     A
C482   C502    1.470   .     S
C483   C547    1.483   .     S
C483   C485    1.417   .     A
C483   C491    1.421   .     A
C484   C492    1.424   .     A
C484   C486    1.416   .     A
C484   C551    1.484   .     S
C485   H517    1.077   .     S
C485   N521    1.367   .     A
C486   H518    1.081   .     S
C486   N522    1.366   .     A
C487   O555    1.382   .     S
C487   C489    1.412   .     A
C487   N521    1.373   .     A
C488   O566    1.380   .     S
C488   N522    1.370   .     A
C488   C490    1.410   .     A
C489   H519    1.082   .     S
C489   C491    1.402   .     A
C490   H520    1.082   .     S
C490   C492    1.404   .     A
C491   C1068   1.518   1_554 S
C492   C1067   1.518   .     S
C493   O527    1.280   .     A
C493   C495    1.440   .     S
C493   O529    1.293   .     A
C494   C496    1.436   .     S
C494   O528    1.285   .     A
C494   O530    1.289   .     A
C496   C303    1.360   1_655 S
C496   C343    1.496   1_655 S
C497   C507    1.401   .     A
C497   H511    1.083   .     S
C497   C499    1.386   .     A
C498   C508    1.400   .     A
C498   H512    1.083   .     S
C498   C500    1.387   .     A
C499   C501    1.398   .     A
C499   H513    1.083   .     S
C500   H514    1.083   .     S
C500   C502    1.404   .     A
C501   C503    1.419   .     A
C502   C504    1.421   .     A
C503   C539    1.491   .     S
C503   C505    1.400   .     A
C504   C506    1.397   .     A
C504   C543    1.483   .     S
C505   H515    1.083   .     S
C505   C507    1.403   .     A
C506   H516    1.084   .     S
C506   C508    1.402   .     A
C508   C219    1.473   1_565 S
Cu509  N522    2.013   .     S
Cu509  O527    1.967   .     S
Cu509  O523    1.956   .     S
Cu509  O530    1.966   .     S
Cu509  Cu510   2.680   .     S
Cu509  O526    1.959   .     S
Cu510  O525    1.959   .     S
Cu510  O528    1.967   .     S
Cu510  N521    2.013   .     S
Cu510  O524    1.956   .     S
Cu510  O529    1.966   .     S
C531   O533    1.400   .     S
C531   C303    1.495   1_655 S
C531   O340    1.222   1_655 S
O533   H534    1.014   .     S
C535   O536    1.221   .     D
C535   O537    1.397   .     S
H538   O345    1.012   1_655 S
C539   O540    1.221   .     D
C539   O541    1.399   .     S
O541   H542    1.014   .     S
C543   O545    1.398   .     S
C543   O544    1.223   .     D
O545   H546    1.014   .     S
C547   O548    1.223   .     D
C547   O549    1.397   .     S
O549   H550    1.014   .     S
C551   O553    1.399   .     S
C551   O1128   1.223   .     S
O552   C1127   1.223   1_554 S
O553   H554    1.014   .     S
O555   C556    1.417   .     S
C556   C559    1.530   .     S
C556   H558    1.118   .     S
C556   H557    1.112   .     S
C559   H561    1.111   .     S
C559   C562    1.526   .     S
H560   C367    1.112   1_655 S
C562   H563    1.111   .     S
C562   H565    1.110   .     S
H564   C370    1.110   1_655 S
O566   C567    1.417   .     S
C567   H568    1.111   .     S
C567   C570    1.528   .     S
C567   H569    1.118   .     S
C570   H571    1.112   .     S
C570   H572    1.111   .     S
C570   C381    1.526   1_655 S
C573   H574    1.111   .     S
C573   H575    1.110   .     S
C573   H576    1.110   .     S
C577   C597    1.454   .     S
C577   O619    1.293   .     A
C577   O621    1.291   .     A
C578   O622    1.294   .     A
C578   O620    1.298   .     A
C578   C598    1.470   .     S
C579   C643    1.483   .     S
C579   C581    1.417   .     A
C579   C587    1.421   .     A
C580   C588    1.424   .     A
C580   C582    1.416   .     A
C580   C647    1.484   .     S
C581   H613    1.077   .     S
C581   N617    1.367   .     A
C582   H614    1.081   .     S
C582   N618    1.366   .     A
C583   O651    1.382   .     S
C583   C585    1.412   .     A
C583   N617    1.373   .     A
C584   O662    1.380   .     S
C584   N618    1.370   .     A
C584   C586    1.410   .     A
C585   H615    1.082   .     S
C585   C587    1.402   .     A
C586   H616    1.082   .     S
C586   C588    1.404   .     A
C588   C11     1.518   1_556 S
C589   O623    1.280   .     A
C589   C591    1.440   .     S
C589   O625    1.293   .     A
C590   C592    1.436   .     S
C590   O624    1.285   .     A
C590   O626    1.289   .     A
C591   C784    1.360   1_455 S
C591   C819    1.495   1_455 S
C592   C687    1.360   .     S
C592   C727    1.496   .     S
C593   C603    1.401   .     A
C593   H607    1.083   .     S
C593   C595    1.386   .     A
C594   C604    1.400   .     A
C594   H608    1.083   .     S
C594   C596    1.387   .     A
C595   C597    1.398   .     A
C595   H609    1.083   .     S
C596   H610    1.083   .     S
C596   C598    1.404   .     A
C597   C599    1.419   .     A
C598   C600    1.421   .     A
C599   C635    1.491   .     S
C599   C601    1.400   .     A
C600   C602    1.397   .     A
C600   C639    1.483   .     S
C601   H611    1.083   .     S
C601   C603    1.403   .     A
C602   H612    1.084   .     S
C602   C604    1.402   .     A
C603   C892    1.473   1_545 S
C604   C891    1.473   .     S
Cu605  N618    2.013   .     S
Cu605  O623    1.967   .     S
Cu605  O619    1.956   .     S
Cu605  O626    1.966   .     S
Cu605  Cu606   2.680   .     S
Cu605  O622    1.959   .     S
Cu606  O621    1.959   .     S
Cu606  O624    1.967   .     S
Cu606  N617    2.013   .     S
Cu606  O620    1.956   .     S
Cu606  O625    1.966   .     S
C627   O629    1.400   .     S
C627   C687    1.495   .     S
C627   O724    1.222   .     S
O628   C819    1.222   1_455 S
O629   H630    1.014   .     S
C631   O632    1.221   .     D
C631   O633    1.397   .     S
C631   C784    1.496   1_455 S
O633   H826    1.012   1_455 S
H634   O729    1.012   .     S
C635   O636    1.221   .     D
C635   O637    1.399   .     S
O637   H638    1.014   .     S
C639   O641    1.398   .     S
C639   O640    1.223   .     D
O641   H642    1.014   .     S
C643   O644    1.223   .     D
C643   O645    1.397   .     S
O645   H646    1.014   .     S
C647   O649    1.399   .     S
C647   O72     1.223   1_556 S
O649   H650    1.014   .     S
O651   C652    1.417   .     S
C652   C655    1.530   .     S
C652   H654    1.118   .     S
C652   H653    1.112   .     S
C655   H657    1.111   .     S
C655   C658    1.526   .     S
C655   H848    1.112   1_455 S
H656   C751    1.112   .     S
C658   H659    1.111   .     S
C658   H661    1.110   .     S
C658   H852    1.110   1_455 S
H660   C754    1.110   .     S
O662   C663    1.417   .     S
C663   H664    1.111   .     S
C663   C666    1.528   .     S
C663   H665    1.118   .     S
C666   H667    1.112   .     S
C666   H668    1.111   .     S
C666   C765    1.526   .     S
C669   H670    1.111   .     S
C669   H671    1.110   .     S
C669   H672    1.110   .     S
C669   C858    1.526   1_455 S
C673   C693    1.454   .     S
C673   O715    1.293   .     A
C673   O717    1.291   .     A
C674   O718    1.294   .     A
C674   O716    1.298   .     A
C674   C694    1.470   .     S
C675   C739    1.483   .     S
C675   C677    1.417   .     A
C675   C683    1.421   .     A
C676   C684    1.424   .     A
C676   C678    1.416   .     A
C676   C743    1.484   .     S
C677   H709    1.077   .     S
C677   N713    1.367   .     A
C678   H710    1.081   .     S
C678   N714    1.366   .     A
C679   O747    1.382   .     S
C679   C681    1.412   .     A
C679   N713    1.373   .     A
C680   O758    1.380   .     S
C680   N714    1.370   .     A
C680   C682    1.410   .     A
C681   H711    1.082   .     S
C681   C683    1.402   .     A
C682   H712    1.082   .     S
C682   C684    1.404   .     A
C684   C107    1.518   1_556 S
C685   O719    1.280   .     A
C685   C687    1.440   .     S
C685   O721    1.293   .     A
C686   C688    1.436   .     S
C686   O720    1.285   .     A
C686   O722    1.289   .     A
C688   C783    1.360   .     S
C688   C823    1.496   .     S
C689   C699    1.401   .     A
C689   H703    1.083   .     S
C689   C691    1.386   .     A
C690   C700    1.400   .     A
C690   H704    1.083   .     S
C690   C692    1.387   .     A
C691   C693    1.398   .     A
C691   H705    1.083   .     S
C692   H706    1.083   .     S
C692   C694    1.404   .     A
C693   C695    1.419   .     A
C694   C696    1.421   .     A
C695   C731    1.491   .     S
C695   C697    1.400   .     A
C696   C698    1.397   .     A
C696   C735    1.483   .     S
C697   H707    1.083   .     S
C697   C699    1.403   .     A
C698   H708    1.084   .     S
C698   C700    1.402   .     A
C699   C988    1.473   1_545 S
C700   C987    1.473   .     S
Cu701  N714    2.013   .     S
Cu701  O719    1.967   .     S
Cu701  O715    1.956   .     S
Cu701  O722    1.966   .     S
Cu701  Cu702   2.680   .     S
Cu701  O718    1.959   .     S
Cu702  O717    1.959   .     S
Cu702  O720    1.967   .     S
Cu702  N713    2.013   .     S
Cu702  O716    1.956   .     S
Cu702  O721    1.966   .     S
C723   O725    1.400   .     S
C723   C783    1.495   .     S
C723   O820    1.222   .     S
O725   H726    1.014   .     S
C727   O728    1.221   .     D
C727   O729    1.397   .     S
H730   O825    1.012   .     S
C731   O732    1.221   .     D
C731   O733    1.399   .     S
O733   H734    1.014   .     S
C735   O737    1.398   .     S
C735   O736    1.223   .     D
O737   H738    1.014   .     S
C739   O740    1.223   .     D
C739   O741    1.397   .     S
O741   H742    1.014   .     S
C743   O745    1.399   .     S
C743   O168    1.223   1_556 S
O745   H746    1.014   .     S
O747   C748    1.417   .     S
C748   C751    1.530   .     S
C748   H750    1.118   .     S
C748   H749    1.112   .     S
C751   H753    1.111   .     S
C751   C754    1.526   .     S
H752   C847    1.112   .     S
C754   H755    1.111   .     S
C754   H757    1.110   .     S
H756   C850    1.110   .     S
O758   C759    1.417   .     S
C759   H760    1.111   .     S
C759   C762    1.528   .     S
C759   H761    1.118   .     S
C762   H763    1.112   .     S
C762   H764    1.111   .     S
C762   C861    1.526   .     S
C765   H766    1.111   .     S
C765   H767    1.110   .     S
C765   H768    1.110   .     S
C769   C789    1.454   .     S
C769   O811    1.293   .     A
C769   O813    1.291   .     A
C770   O814    1.294   .     A
C770   O812    1.298   .     A
C770   C790    1.470   .     S
C771   C835    1.483   .     S
C771   C773    1.417   .     A
C771   C779    1.421   .     A
C772   C780    1.424   .     A
C772   C774    1.416   .     A
C772   C839    1.484   .     S
C773   H805    1.077   .     S
C773   N809    1.367   .     A
C774   H806    1.081   .     S
C774   N810    1.366   .     A
C775   O843    1.382   .     S
C775   C777    1.412   .     A
C775   N809    1.373   .     A
C776   O854    1.380   .     S
C776   N810    1.370   .     A
C776   C778    1.410   .     A
C777   H807    1.082   .     S
C777   C779    1.402   .     A
C778   H808    1.082   .     S
C778   C780    1.404   .     A
C780   C203    1.518   1_556 S
C781   O815    1.280   .     A
C781   C783    1.440   .     S
C781   O817    1.293   .     A
C782   C784    1.436   .     S
C782   O816    1.285   .     A
C782   O818    1.289   .     A
C784   C591    1.360   1_655 S
C784   C631    1.496   1_655 S
C785   C795    1.401   .     A
C785   H799    1.083   .     S
C785   C787    1.386   .     A
C786   C796    1.400   .     A
C786   H800    1.083   .     S
C786   C788    1.387   .     A
C787   C789    1.398   .     A
C787   H801    1.083   .     S
C788   H802    1.083   .     S
C788   C790    1.404   .     A
C789   C791    1.419   .     A
C790   C792    1.421   .     A
C791   C827    1.491   .     S
C791   C793    1.400   .     A
C792   C794    1.397   .     A
C792   C831    1.483   .     S
C793   H803    1.083   .     S
C793   C795    1.403   .     A
C794   H804    1.084   .     S
C794   C796    1.402   .     A
C795   C1084   1.473   1_545 S
C796   C1083   1.473   .     S
Cu797  N810    2.013   .     S
Cu797  O815    1.967   .     S
Cu797  O811    1.956   .     S
Cu797  O818    1.966   .     S
Cu797  Cu798   2.680   .     S
Cu797  O814    1.959   .     S
Cu798  O813    1.959   .     S
Cu798  O816    1.967   .     S
Cu798  N809    2.013   .     S
Cu798  O812    1.956   .     S
Cu798  O817    1.966   .     S
C819   O821    1.400   .     S
C819   C591    1.495   1_655 S
C819   O628    1.222   1_655 S
O821   H822    1.014   .     S
C823   O824    1.221   .     D
C823   O825    1.397   .     S
H826   O633    1.012   1_655 S
C827   O828    1.221   .     D
C827   O829    1.399   .     S
O829   H830    1.014   .     S
C831   O833    1.398   .     S
C831   O832    1.223   .     D
O833   H834    1.014   .     S
C835   O836    1.223   .     D
C835   O837    1.397   .     S
O837   H838    1.014   .     S
C839   O841    1.399   .     S
C839   O264    1.223   1_556 S
O841   H842    1.014   .     S
O843   C844    1.417   .     S
C844   C847    1.530   .     S
C844   H846    1.118   .     S
C844   H845    1.112   .     S
C847   H849    1.111   .     S
C847   C850    1.526   .     S
H848   C655    1.112   1_655 S
C850   H851    1.111   .     S
C850   H853    1.110   .     S
H852   C658    1.110   1_655 S
O854   C855    1.417   .     S
C855   H856    1.111   .     S
C855   C858    1.528   .     S
C855   H857    1.118   .     S
C858   H859    1.112   .     S
C858   H860    1.111   .     S
C858   C669    1.526   1_655 S
C861   H862    1.111   .     S
C861   H863    1.110   .     S
C861   H864    1.110   .     S
C865   C885    1.454   .     S
C865   O907    1.293   .     A
C865   O909    1.291   .     A
C866   O910    1.294   .     A
C866   O908    1.298   .     A
C866   C886    1.470   .     S
C867   C931    1.483   .     S
C867   C869    1.417   .     A
C867   C875    1.421   .     A
C868   C876    1.424   .     A
C868   C870    1.416   .     A
C868   C935    1.484   .     S
C869   H901    1.077   .     S
C869   N905    1.367   .     A
C870   H902    1.081   .     S
C870   N906    1.366   .     A
C871   O939    1.382   .     S
C871   C873    1.412   .     A
C871   N905    1.373   .     A
C872   O950    1.380   .     S
C872   N906    1.370   .     A
C872   C874    1.410   .     A
C873   H903    1.082   .     S
C873   C875    1.402   .     A
C874   H904    1.082   .     S
C874   C876    1.404   .     A
C876   C299    1.518   1_556 S
C877   O911    1.280   .     A
C877   C879    1.440   .     S
C877   O913    1.293   .     A
C878   C880    1.436   .     S
C878   O912    1.285   .     A
C878   O914    1.289   .     A
C879   C1072   1.360   1_455 S
C879   C1107   1.495   1_455 S
C880   C975    1.360   .     S
C880   C1015   1.496   .     S
C881   C891    1.401   .     A
C881   H895    1.083   .     S
C881   C883    1.386   .     A
C882   C892    1.400   .     A
C882   H896    1.083   .     S
C882   C884    1.387   .     A
C883   C885    1.398   .     A
C883   H897    1.083   .     S
C884   H898    1.083   .     S
C884   C886    1.404   .     A
C885   C887    1.419   .     A
C886   C888    1.421   .     A
C887   C923    1.491   .     S
C887   C889    1.400   .     A
C888   C890    1.397   .     A
C888   C927    1.483   .     S
C889   H899    1.083   .     S
C889   C891    1.403   .     A
C890   H900    1.084   .     S
C890   C892    1.402   .     A
C892   C603    1.473   1_565 S
Cu893  N906    2.013   .     S
Cu893  O911    1.967   .     S
Cu893  O907    1.956   .     S
Cu893  O914    1.966   .     S
Cu893  Cu894   2.680   .     S
Cu893  O910    1.959   .     S
Cu894  O909    1.959   .     S
Cu894  O912    1.967   .     S
Cu894  N905    2.013   .     S
Cu894  O908    1.956   .     S
Cu894  O913    1.966   .     S
C915   O917    1.400   .     S
C915   C975    1.495   .     S
C915   O1012   1.222   .     S
O916   C1107   1.222   1_455 S
O917   H918    1.014   .     S
C919   O920    1.221   .     D
C919   O921    1.397   .     S
C919   C1072   1.496   1_455 S
O921   H1114   1.012   1_455 S
H922   O1017   1.012   .     S
C923   O924    1.221   .     D
C923   O925    1.399   .     S
O925   H926    1.014   .     S
C927   O929    1.398   .     S
C927   O928    1.223   .     D
O929   H930    1.014   .     S
C931   O932    1.223   .     D
C931   O933    1.397   .     S
O933   H934    1.014   .     S
C935   O937    1.399   .     S
C935   O360    1.223   1_556 S
O937   H938    1.014   .     S
O939   C940    1.417   .     S
C940   C943    1.530   .     S
C940   H942    1.118   .     S
C940   H941    1.112   .     S
C943   H945    1.111   .     S
C943   C946    1.526   .     S
C943   H1136   1.112   1_455 S
H944   C1039   1.112   .     S
C946   H947    1.111   .     S
C946   H949    1.110   .     S
C946   H1140   1.110   1_455 S
H948   C1042   1.110   .     S
O950   C951    1.417   .     S
C951   H952    1.111   .     S
C951   C954    1.528   .     S
C951   H953    1.118   .     S
C954   H955    1.112   .     S
C954   H956    1.111   .     S
C954   C1053   1.526   .     S
C957   H958    1.111   .     S
C957   H959    1.110   .     S
C957   H960    1.110   .     S
C957   C1146   1.526   1_455 S
C961   C981    1.454   .     S
C961   O1003   1.293   .     A
C961   O1005   1.291   .     A
C962   O1006   1.294   .     A
C962   O1004   1.298   .     A
C962   C982    1.470   .     S
C963   C1027   1.483   .     S
C963   C965    1.417   .     A
C963   C971    1.421   .     A
C964   C972    1.424   .     A
C964   C966    1.416   .     A
C964   C1031   1.484   .     S
C965   H997    1.077   .     S
C965   N1001   1.367   .     A
C966   H998    1.081   .     S
C966   N1002   1.366   .     A
C967   O1035   1.382   .     S
C967   C969    1.412   .     A
C967   N1001   1.373   .     A
C968   O1046   1.380   .     S
C968   N1002   1.370   .     A
C968   C970    1.410   .     A
C969   H999    1.082   .     S
C969   C971    1.402   .     A
C970   H1000   1.082   .     S
C970   C972    1.404   .     A
C972   C395    1.518   1_556 S
C973   O1007   1.280   .     A
C973   C975    1.440   .     S
C973   O1009   1.293   .     A
C974   C976    1.436   .     S
C974   O1008   1.285   .     A
C974   O1010   1.289   .     A
C976   C1071   1.360   .     S
C976   C1111   1.496   .     S
C977   C987    1.401   .     A
C977   H991    1.083   .     S
C977   C979    1.386   .     A
C978   C988    1.400   .     A
C978   H992    1.083   .     S
C978   C980    1.387   .     A
C979   C981    1.398   .     A
C979   H993    1.083   .     S
C980   H994    1.083   .     S
C980   C982    1.404   .     A
C981   C983    1.419   .     A
C982   C984    1.421   .     A
C983   C1019   1.491   .     S
C983   C985    1.400   .     A
C984   C986    1.397   .     A
C984   C1023   1.483   .     S
C985   H995    1.083   .     S
C985   C987    1.403   .     A
C986   H996    1.084   .     S
C986   C988    1.402   .     A
C988   C699    1.473   1_565 S
Cu989  N1002   2.013   .     S
Cu989  O1007   1.967   .     S
Cu989  O1003   1.956   .     S
Cu989  O1010   1.966   .     S
Cu989  Cu990   2.680   .     S
Cu989  O1006   1.959   .     S
Cu990  O1005   1.959   .     S
Cu990  O1008   1.967   .     S
Cu990  N1001   2.013   .     S
Cu990  O1004   1.956   .     S
Cu990  O1009   1.966   .     S
C1011  O1013   1.400   .     S
C1011  C1071   1.495   .     S
C1011  O1108   1.222   .     S
O1013  H1014   1.014   .     S
C1015  O1016   1.221   .     D
C1015  O1017   1.397   .     S
H1018  O1113   1.012   .     S
C1019  O1020   1.221   .     D
C1019  O1021   1.399   .     S
O1021  H1022   1.014   .     S
C1023  O1025   1.398   .     S
C1023  O1024   1.223   .     D
O1025  H1026   1.014   .     S
C1027  O1028   1.223   .     D
C1027  O1029   1.397   .     S
O1029  H1030   1.014   .     S
C1031  O1033   1.399   .     S
C1031  O456    1.223   1_556 S
O1033  H1034   1.014   .     S
O1035  C1036   1.417   .     S
C1036  C1039   1.530   .     S
C1036  H1038   1.118   .     S
C1036  H1037   1.112   .     S
C1039  H1041   1.111   .     S
C1039  C1042   1.526   .     S
H1040  C1135   1.112   .     S
C1042  H1043   1.111   .     S
C1042  H1045   1.110   .     S
H1044  C1138   1.110   .     S
O1046  C1047   1.417   .     S
C1047  H1048   1.111   .     S
C1047  C1050   1.528   .     S
C1047  H1049   1.118   .     S
C1050  H1051   1.112   .     S
C1050  H1052   1.111   .     S
C1050  C1149   1.526   .     S
C1053  H1054   1.111   .     S
C1053  H1055   1.110   .     S
C1053  H1056   1.110   .     S
C1057  C1077   1.454   .     S
C1057  O1099   1.293   .     A
C1057  O1101   1.291   .     A
C1058  O1102   1.294   .     A
C1058  O1100   1.298   .     A
C1058  C1078   1.470   .     S
C1059  C1123   1.483   .     S
C1059  C1061   1.417   .     A
C1059  C1067   1.421   .     A
C1060  C1068   1.424   .     A
C1060  C1062   1.416   .     A
C1060  C1127   1.484   .     S
C1061  H1093   1.077   .     S
C1061  N1097   1.367   .     A
C1062  H1094   1.081   .     S
C1062  N1098   1.366   .     A
C1063  O1131   1.382   .     S
C1063  C1065   1.412   .     A
C1063  N1097   1.373   .     A
C1064  O1142   1.380   .     S
C1064  N1098   1.370   .     A
C1064  C1066   1.410   .     A
C1065  H1095   1.082   .     S
C1065  C1067   1.402   .     A
C1066  H1096   1.082   .     S
C1066  C1068   1.404   .     A
C1068  C491    1.518   1_556 S
C1069  O1103   1.280   .     A
C1069  C1071   1.440   .     S
C1069  O1105   1.293   .     A
C1070  C1072   1.436   .     S
C1070  O1104   1.285   .     A
C1070  O1106   1.289   .     A
C1072  C879    1.360   1_655 S
C1072  C919    1.496   1_655 S
C1073  C1083   1.401   .     A
C1073  H1087   1.083   .     S
C1073  C1075   1.386   .     A
C1074  C1084   1.400   .     A
C1074  H1088   1.083   .     S
C1074  C1076   1.387   .     A
C1075  C1077   1.398   .     A
C1075  H1089   1.083   .     S
C1076  H1090   1.083   .     S
C1076  C1078   1.404   .     A
C1077  C1079   1.419   .     A
C1078  C1080   1.421   .     A
C1079  C1115   1.491   .     S
C1079  C1081   1.400   .     A
C1080  C1082   1.397   .     A
C1080  C1119   1.483   .     S
C1081  H1091   1.083   .     S
C1081  C1083   1.403   .     A
C1082  H1092   1.084   .     S
C1082  C1084   1.402   .     A
C1084  C795    1.473   1_565 S
Cu1085 N1098   2.013   .     S
Cu1085 O1103   1.967   .     S
Cu1085 O1099   1.956   .     S
Cu1085 O1106   1.966   .     S
Cu1085 Cu1086  2.680   .     S
Cu1085 O1102   1.959   .     S
Cu1086 O1101   1.959   .     S
Cu1086 O1104   1.967   .     S
Cu1086 N1097   2.013   .     S
Cu1086 O1100   1.956   .     S
Cu1086 O1105   1.966   .     S
C1107  O1109   1.400   .     S
C1107  C879    1.495   1_655 S
C1107  O916    1.222   1_655 S
O1109  H1110   1.014   .     S
C1111  O1112   1.221   .     D
C1111  O1113   1.397   .     S
H1114  O921    1.012   1_655 S
C1115  O1116   1.221   .     D
C1115  O1117   1.399   .     S
O1117  H1118   1.014   .     S
C1119  O1121   1.398   .     S
C1119  O1120   1.223   .     D
O1121  H1122   1.014   .     S
C1123  O1124   1.223   .     D
C1123  O1125   1.397   .     S
O1125  H1126   1.014   .     S
C1127  O1129   1.399   .     S
C1127  O552    1.223   1_556 S
O1129  H1130   1.014   .     S
O1131  C1132   1.417   .     S
C1132  C1135   1.530   .     S
C1132  H1134   1.118   .     S
C1132  H1133   1.112   .     S
C1135  H1137   1.111   .     S
C1135  C1138   1.526   .     S
H1136  C943    1.112   1_655 S
C1138  H1139   1.111   .     S
C1138  H1141   1.110   .     S
H1140  C946    1.110   1_655 S
O1142  C1143   1.417   .     S
C1143  H1144   1.111   .     S
C1143  C1146   1.528   .     S
C1143  H1145   1.118   .     S
C1146  H1147   1.112   .     S
C1146  H1148   1.111   .     S
C1146  C957    1.526   1_655 S
C1149  H1150   1.111   .     S
C1149  H1151   1.110   .     S
C1149  H1152   1.110   .     S
