data_str_m3_o10_o17_pcu_sym.47
_audit_creation_date              2020-01-03
_audit_creation_method            'Materials Studio'
_symmetry_space_group_name_H-M    'P1'
_symmetry_Int_Tables_number       1
_symmetry_cell_setting            triclinic
loop_
_symmetry_equiv_pos_as_xyz
  x,y,z
_cell_length_a                    23.7965
_cell_length_b                    25.7180
_cell_length_c                    29.9014
_cell_angle_alpha                 94.0641
_cell_angle_beta                  84.7076
_cell_angle_gamma                 92.8928
loop_
_atom_site_label
_atom_site_type_symbol
_atom_site_fract_x
_atom_site_fract_y
_atom_site_fract_z
_atom_site_U_iso_or_equiv
_atom_site_adp_type
_atom_site_occupancy
C1     C     0.18147   0.26464   0.24928   0.00000  Uiso   1.00
C2     C     0.21632   0.18159   0.40451   0.00000  Uiso   1.00
C3     C     0.16658   0.16651   0.11563   0.00000  Uiso   1.00
C4     C     0.16676   0.16682   0.38437   0.00000  Uiso   1.00
C5     C     0.21619   0.18131   0.09005   0.00000  Uiso   1.00
C6     C     0.11715   0.15202   0.40995   0.00000  Uiso   1.00
C7     C     0.21653   0.18173   0.04380   0.00000  Uiso   1.00
C8     C     0.11680   0.15160   0.45620   0.00000  Uiso   1.00
C9     C     0.16665   0.16663   0.02326   0.00000  Uiso   1.00
C10    C     0.16668   0.16670   0.47674   0.00000  Uiso   1.00
C11    C     0.11672   0.15148   0.04924   0.00000  Uiso   1.00
C12    C     0.15186   0.06870   0.25072   0.00000  Uiso   1.00
C13    C     0.21661   0.18185   0.45076   0.00000  Uiso   1.00
C14    C     0.26577   0.19708   0.01787   0.00000  Uiso   1.00
C15    C     0.06756   0.13625   0.48213   0.00000  Uiso   1.00
C16    C     0.30945   0.07780   0.18655   0.00000  Uiso   1.00
C17    C     0.02389   0.25553   0.31345   0.00000  Uiso   1.00
C18    C     0.26583   0.19710   0.47140   0.00000  Uiso   1.00
C19    C     0.06750   0.13624   0.02860   0.00000  Uiso   1.00
C20    C     0.18918   0.31914   0.25035   0.00000  Uiso   1.00
C21    C     0.14416   0.01419   0.24965   0.00000  Uiso   1.00
C22    C     0.16673   0.16686   0.33642   0.00000  Uiso   1.00
C23    C     0.16660   0.16647   0.16358   0.00000  Uiso   1.00
C24    C     0.11701   0.15175   0.09549   0.00000  Uiso   1.00
H25    H     0.07894   0.13991   0.11572   0.00000  Uiso   1.00
H26    H     0.10158   0.33089   0.24749   0.00000  Uiso   1.00
H27    H     0.04848   0.11358   0.20465   0.00000  Uiso   1.00
H28    H     0.00002   0.05736   0.15737   0.00000  Uiso   1.00
H29    H     0.26894   0.08785   0.17512   0.00000  Uiso   1.00
H30    H     0.30257   0.05069   0.21395   0.00000  Uiso   1.00
H31    H     0.28486   0.21976   0.29535   0.00000  Uiso   1.00
H32    H     0.33332   0.27597   0.34263   0.00000  Uiso   1.00
H33    H     0.03077   0.28264   0.28605   0.00000  Uiso   1.00
H34    H     0.06440   0.24549   0.32488   0.00000  Uiso   1.00
H35    H     0.25440   0.19343   0.38428   0.00000  Uiso   1.00
H36    H     0.25428   0.19306   0.10617   0.00000  Uiso   1.00
H37    H     0.07906   0.14027   0.39383   0.00000  Uiso   1.00
H38    H     0.30408   0.20905   0.03351   0.00000  Uiso   1.00
H39    H     0.02926   0.12428   0.46649   0.00000  Uiso   1.00
H40    H     0.30424   0.20894   0.45162   0.00000  Uiso   1.00
H41    H     0.02910   0.12440   0.04838   0.00000  Uiso   1.00
H42    H     0.23175   0.00244   0.25251   0.00000  Uiso   1.00
N43    N     0.31678   0.15265   0.23783   0.00000  Uiso   1.00
N44    N     0.01656   0.18068   0.26217   0.00000  Uiso   1.00
N45    N     0.00855   0.12364   0.20139   0.00000  Uiso   1.00
N46    N     0.32478   0.20969   0.29861   0.00000  Uiso   1.00
O47    O     0.12975   0.24619   0.25298   0.00000  Uiso   1.00
O48    O     0.20358   0.08714   0.24701   0.00000  Uiso   1.00
O49    O     0.22613   0.23721   0.24518   0.00000  Uiso   1.00
O50    O     0.10720   0.09613   0.25481   0.00000  Uiso   1.00
O51    O     0.11847   0.17117   0.31997   0.00000  Uiso   1.00
O52    O     0.21486   0.16216   0.18002   0.00000  Uiso   1.00
O53    O     0.21485   0.16219   0.31217   0.00000  Uiso   1.00
O54    O     0.11848   0.17115   0.18782   0.00000  Uiso   1.00
Zn55   Zn    0.10231   0.17266   0.25521   0.00000  Uiso   1.00
Zn56   Zn    0.23102   0.16067   0.24479   0.00000  Uiso   1.00
C57    C     0.51481   0.26464   0.24928   0.00000  Uiso   1.00
C58    C     0.54966   0.18159   0.40451   0.00000  Uiso   1.00
C59    C     0.49991   0.16651   0.11563   0.00000  Uiso   1.00
C60    C     0.50009   0.16682   0.38437   0.00000  Uiso   1.00
C61    C     0.54952   0.18131   0.09005   0.00000  Uiso   1.00
C62    C     0.45048   0.15202   0.40995   0.00000  Uiso   1.00
C63    C     0.54987   0.18173   0.04380   0.00000  Uiso   1.00
C64    C     0.45013   0.15160   0.45620   0.00000  Uiso   1.00
C65    C     0.49998   0.16663   0.02326   0.00000  Uiso   1.00
C66    C     0.50002   0.16670   0.47674   0.00000  Uiso   1.00
C67    C     0.45005   0.15148   0.04924   0.00000  Uiso   1.00
C68    C     0.48519   0.06870   0.25072   0.00000  Uiso   1.00
C69    C     0.54995   0.18185   0.45076   0.00000  Uiso   1.00
C70    C     0.59911   0.19708   0.01787   0.00000  Uiso   1.00
C71    C     0.40089   0.13625   0.48213   0.00000  Uiso   1.00
C72    C     0.64278   0.07780   0.18655   0.00000  Uiso   1.00
C73    C     0.35722   0.25553   0.31345   0.00000  Uiso   1.00
C74    C     0.59917   0.19710   0.47140   0.00000  Uiso   1.00
C75    C     0.40083   0.13624   0.02860   0.00000  Uiso   1.00
C76    C     0.52251   0.31914   0.25035   0.00000  Uiso   1.00
C77    C     0.47749   0.01419   0.24965   0.00000  Uiso   1.00
C78    C     0.50007   0.16686   0.33642   0.00000  Uiso   1.00
C79    C     0.49993   0.16647   0.16358   0.00000  Uiso   1.00
C80    C     0.45034   0.15175   0.09549   0.00000  Uiso   1.00
H81    H     0.41227   0.13991   0.11572   0.00000  Uiso   1.00
H82    H     0.43491   0.33089   0.24749   0.00000  Uiso   1.00
H83    H     0.38181   0.11358   0.20465   0.00000  Uiso   1.00
H84    H     0.33335   0.05736   0.15737   0.00000  Uiso   1.00
H85    H     0.60227   0.08785   0.17512   0.00000  Uiso   1.00
H86    H     0.63590   0.05069   0.21395   0.00000  Uiso   1.00
H87    H     0.61819   0.21976   0.29535   0.00000  Uiso   1.00
H88    H     0.66665   0.27597   0.34263   0.00000  Uiso   1.00
H89    H     0.36410   0.28264   0.28605   0.00000  Uiso   1.00
H90    H     0.39773   0.24549   0.32488   0.00000  Uiso   1.00
H91    H     0.58773   0.19343   0.38428   0.00000  Uiso   1.00
H92    H     0.58761   0.19306   0.10617   0.00000  Uiso   1.00
H93    H     0.41239   0.14027   0.39383   0.00000  Uiso   1.00
H94    H     0.63741   0.20905   0.03351   0.00000  Uiso   1.00
H95    H     0.36259   0.12428   0.46649   0.00000  Uiso   1.00
H96    H     0.63757   0.20894   0.45162   0.00000  Uiso   1.00
H97    H     0.36243   0.12440   0.04838   0.00000  Uiso   1.00
H98    H     0.56509   0.00244   0.25251   0.00000  Uiso   1.00
N99    N     0.65011   0.15265   0.23783   0.00000  Uiso   1.00
N100   N     0.34989   0.18068   0.26217   0.00000  Uiso   1.00
N101   N     0.34189   0.12364   0.20139   0.00000  Uiso   1.00
N102   N     0.65811   0.20969   0.29861   0.00000  Uiso   1.00
O103   O     0.46308   0.24619   0.25298   0.00000  Uiso   1.00
O104   O     0.53692   0.08714   0.24701   0.00000  Uiso   1.00
O105   O     0.55946   0.23721   0.24518   0.00000  Uiso   1.00
O106   O     0.44054   0.09613   0.25481   0.00000  Uiso   1.00
O107   O     0.45181   0.17117   0.31997   0.00000  Uiso   1.00
O108   O     0.54819   0.16216   0.18002   0.00000  Uiso   1.00
O109   O     0.54819   0.16219   0.31217   0.00000  Uiso   1.00
O110   O     0.45181   0.17115   0.18782   0.00000  Uiso   1.00
Zn111  Zn    0.43565   0.17266   0.25521   0.00000  Uiso   1.00
Zn112  Zn    0.56435   0.16067   0.24479   0.00000  Uiso   1.00
C113   C     0.84814   0.26464   0.24928   0.00000  Uiso   1.00
C114   C     0.88299   0.18159   0.40451   0.00000  Uiso   1.00
C115   C     0.83324   0.16651   0.11563   0.00000  Uiso   1.00
C116   C     0.83342   0.16682   0.38437   0.00000  Uiso   1.00
C117   C     0.88285   0.18131   0.09005   0.00000  Uiso   1.00
C118   C     0.78381   0.15202   0.40995   0.00000  Uiso   1.00
C119   C     0.88320   0.18173   0.04380   0.00000  Uiso   1.00
C120   C     0.78347   0.15160   0.45620   0.00000  Uiso   1.00
C121   C     0.83331   0.16663   0.02326   0.00000  Uiso   1.00
C122   C     0.83335   0.16670   0.47674   0.00000  Uiso   1.00
C123   C     0.78339   0.15148   0.04924   0.00000  Uiso   1.00
C124   C     0.81853   0.06870   0.25072   0.00000  Uiso   1.00
C125   C     0.88328   0.18185   0.45076   0.00000  Uiso   1.00
C126   C     0.93244   0.19708   0.01787   0.00000  Uiso   1.00
C127   C     0.73423   0.13625   0.48213   0.00000  Uiso   1.00
C128   C     0.97611   0.07780   0.18655   0.00000  Uiso   1.00
C129   C     0.69055   0.25553   0.31345   0.00000  Uiso   1.00
C130   C     0.93250   0.19710   0.47140   0.00000  Uiso   1.00
C131   C     0.73417   0.13624   0.02860   0.00000  Uiso   1.00
C132   C     0.85584   0.31914   0.25035   0.00000  Uiso   1.00
C133   C     0.81082   0.01419   0.24965   0.00000  Uiso   1.00
C134   C     0.83340   0.16686   0.33642   0.00000  Uiso   1.00
C135   C     0.83327   0.16647   0.16358   0.00000  Uiso   1.00
C136   C     0.78368   0.15175   0.09549   0.00000  Uiso   1.00
H137   H     0.74560   0.13991   0.11572   0.00000  Uiso   1.00
H138   H     0.76825   0.33089   0.24749   0.00000  Uiso   1.00
H139   H     0.71514   0.11358   0.20465   0.00000  Uiso   1.00
H140   H     0.66668   0.05736   0.15737   0.00000  Uiso   1.00
H141   H     0.93560   0.08785   0.17512   0.00000  Uiso   1.00
H142   H     0.96923   0.05069   0.21395   0.00000  Uiso   1.00
H143   H     0.95152   0.21976   0.29535   0.00000  Uiso   1.00
H144   H     0.99998   0.27597   0.34263   0.00000  Uiso   1.00
H145   H     0.69743   0.28264   0.28605   0.00000  Uiso   1.00
H146   H     0.73106   0.24549   0.32488   0.00000  Uiso   1.00
H147   H     0.92106   0.19343   0.38428   0.00000  Uiso   1.00
H148   H     0.92094   0.19306   0.10617   0.00000  Uiso   1.00
H149   H     0.74572   0.14027   0.39383   0.00000  Uiso   1.00
H150   H     0.97074   0.20905   0.03351   0.00000  Uiso   1.00
H151   H     0.69592   0.12428   0.46649   0.00000  Uiso   1.00
H152   H     0.97090   0.20894   0.45162   0.00000  Uiso   1.00
H153   H     0.69576   0.12440   0.04838   0.00000  Uiso   1.00
H154   H     0.89842   0.00244   0.25251   0.00000  Uiso   1.00
N155   N     0.98344   0.15265   0.23783   0.00000  Uiso   1.00
N156   N     0.68322   0.18068   0.26217   0.00000  Uiso   1.00
N157   N     0.67522   0.12364   0.20139   0.00000  Uiso   1.00
N158   N     0.99145   0.20969   0.29861   0.00000  Uiso   1.00
O159   O     0.79642   0.24619   0.25298   0.00000  Uiso   1.00
O160   O     0.87025   0.08714   0.24701   0.00000  Uiso   1.00
O161   O     0.89280   0.23721   0.24518   0.00000  Uiso   1.00
O162   O     0.77387   0.09613   0.25481   0.00000  Uiso   1.00
O163   O     0.78514   0.17117   0.31997   0.00000  Uiso   1.00
O164   O     0.88153   0.16216   0.18002   0.00000  Uiso   1.00
O165   O     0.88152   0.16219   0.31217   0.00000  Uiso   1.00
O166   O     0.78515   0.17115   0.18782   0.00000  Uiso   1.00
Zn167  Zn    0.76898   0.17266   0.25521   0.00000  Uiso   1.00
Zn168  Zn    0.89769   0.16067   0.24479   0.00000  Uiso   1.00
C169   C     0.18147   0.59797   0.24928   0.00000  Uiso   1.00
C170   C     0.21632   0.51492   0.40451   0.00000  Uiso   1.00
C171   C     0.16658   0.49984   0.11563   0.00000  Uiso   1.00
C172   C     0.16676   0.50015   0.38437   0.00000  Uiso   1.00
C173   C     0.21619   0.51465   0.09005   0.00000  Uiso   1.00
C174   C     0.11715   0.48535   0.40995   0.00000  Uiso   1.00
C175   C     0.21653   0.51506   0.04380   0.00000  Uiso   1.00
C176   C     0.11680   0.48494   0.45620   0.00000  Uiso   1.00
C177   C     0.16665   0.49996   0.02326   0.00000  Uiso   1.00
C178   C     0.16668   0.50004   0.47674   0.00000  Uiso   1.00
C179   C     0.11672   0.48481   0.04924   0.00000  Uiso   1.00
C180   C     0.15186   0.40203   0.25072   0.00000  Uiso   1.00
C181   C     0.21661   0.51519   0.45076   0.00000  Uiso   1.00
C182   C     0.26577   0.53041   0.01787   0.00000  Uiso   1.00
C183   C     0.06756   0.46959   0.48213   0.00000  Uiso   1.00
C184   C     0.30945   0.41114   0.18655   0.00000  Uiso   1.00
C185   C     0.02389   0.58886   0.31345   0.00000  Uiso   1.00
C186   C     0.26583   0.53043   0.47140   0.00000  Uiso   1.00
C187   C     0.06750   0.46957   0.02860   0.00000  Uiso   1.00
C188   C     0.18918   0.65248   0.25035   0.00000  Uiso   1.00
C189   C     0.14416   0.34752   0.24965   0.00000  Uiso   1.00
C190   C     0.16673   0.50019   0.33642   0.00000  Uiso   1.00
C191   C     0.16660   0.49981   0.16358   0.00000  Uiso   1.00
C192   C     0.11701   0.48508   0.09549   0.00000  Uiso   1.00
H193   H     0.07894   0.47324   0.11572   0.00000  Uiso   1.00
H194   H     0.10158   0.66423   0.24749   0.00000  Uiso   1.00
H195   H     0.04848   0.44691   0.20465   0.00000  Uiso   1.00
H196   H     0.00002   0.39069   0.15737   0.00000  Uiso   1.00
H197   H     0.26894   0.42118   0.17512   0.00000  Uiso   1.00
H198   H     0.30257   0.38403   0.21395   0.00000  Uiso   1.00
H199   H     0.28486   0.55309   0.29535   0.00000  Uiso   1.00
H200   H     0.33332   0.60931   0.34263   0.00000  Uiso   1.00
H201   H     0.03077   0.61597   0.28605   0.00000  Uiso   1.00
H202   H     0.06440   0.57882   0.32488   0.00000  Uiso   1.00
H203   H     0.25440   0.52676   0.38428   0.00000  Uiso   1.00
H204   H     0.25428   0.52640   0.10617   0.00000  Uiso   1.00
H205   H     0.07906   0.47360   0.39383   0.00000  Uiso   1.00
H206   H     0.30408   0.54238   0.03351   0.00000  Uiso   1.00
H207   H     0.02926   0.45762   0.46649   0.00000  Uiso   1.00
H208   H     0.30424   0.54227   0.45162   0.00000  Uiso   1.00
H209   H     0.02910   0.45773   0.04838   0.00000  Uiso   1.00
H210   H     0.23175   0.33577   0.25251   0.00000  Uiso   1.00
N211   N     0.31678   0.48598   0.23783   0.00000  Uiso   1.00
N212   N     0.01656   0.51402   0.26217   0.00000  Uiso   1.00
N213   N     0.00855   0.45698   0.20139   0.00000  Uiso   1.00
N214   N     0.32478   0.54302   0.29861   0.00000  Uiso   1.00
O215   O     0.12975   0.57952   0.25298   0.00000  Uiso   1.00
O216   O     0.20358   0.42048   0.24701   0.00000  Uiso   1.00
O217   O     0.22613   0.57054   0.24518   0.00000  Uiso   1.00
O218   O     0.10720   0.42946   0.25481   0.00000  Uiso   1.00
O219   O     0.11847   0.50450   0.31997   0.00000  Uiso   1.00
O220   O     0.21486   0.49550   0.18002   0.00000  Uiso   1.00
O221   O     0.21485   0.49552   0.31217   0.00000  Uiso   1.00
O222   O     0.11848   0.50448   0.18782   0.00000  Uiso   1.00
Zn223  Zn    0.10231   0.50600   0.25521   0.00000  Uiso   1.00
Zn224  Zn    0.23102   0.49400   0.24479   0.00000  Uiso   1.00
C225   C     0.51481   0.59797   0.24928   0.00000  Uiso   1.00
C226   C     0.54966   0.51492   0.40451   0.00000  Uiso   1.00
C227   C     0.49991   0.49984   0.11563   0.00000  Uiso   1.00
C228   C     0.50009   0.50015   0.38437   0.00000  Uiso   1.00
C229   C     0.54952   0.51465   0.09005   0.00000  Uiso   1.00
C230   C     0.45048   0.48535   0.40995   0.00000  Uiso   1.00
C231   C     0.54987   0.51506   0.04380   0.00000  Uiso   1.00
C232   C     0.45013   0.48494   0.45620   0.00000  Uiso   1.00
C233   C     0.49998   0.49996   0.02326   0.00000  Uiso   1.00
C234   C     0.50002   0.50004   0.47674   0.00000  Uiso   1.00
C235   C     0.45005   0.48481   0.04924   0.00000  Uiso   1.00
C236   C     0.48519   0.40203   0.25072   0.00000  Uiso   1.00
C237   C     0.54995   0.51519   0.45076   0.00000  Uiso   1.00
C238   C     0.59911   0.53041   0.01787   0.00000  Uiso   1.00
C239   C     0.40089   0.46959   0.48213   0.00000  Uiso   1.00
C240   C     0.64278   0.41114   0.18655   0.00000  Uiso   1.00
C241   C     0.35722   0.58886   0.31345   0.00000  Uiso   1.00
C242   C     0.59917   0.53043   0.47140   0.00000  Uiso   1.00
C243   C     0.40083   0.46957   0.02860   0.00000  Uiso   1.00
C244   C     0.52251   0.65248   0.25035   0.00000  Uiso   1.00
C245   C     0.47749   0.34752   0.24965   0.00000  Uiso   1.00
C246   C     0.50007   0.50019   0.33642   0.00000  Uiso   1.00
C247   C     0.49993   0.49981   0.16358   0.00000  Uiso   1.00
C248   C     0.45034   0.48508   0.09549   0.00000  Uiso   1.00
H249   H     0.41227   0.47324   0.11572   0.00000  Uiso   1.00
H250   H     0.43491   0.66423   0.24749   0.00000  Uiso   1.00
H251   H     0.38181   0.44691   0.20465   0.00000  Uiso   1.00
H252   H     0.33335   0.39069   0.15737   0.00000  Uiso   1.00
H253   H     0.60227   0.42118   0.17512   0.00000  Uiso   1.00
H254   H     0.63590   0.38403   0.21395   0.00000  Uiso   1.00
H255   H     0.61819   0.55309   0.29535   0.00000  Uiso   1.00
H256   H     0.66665   0.60931   0.34263   0.00000  Uiso   1.00
H257   H     0.36410   0.61597   0.28605   0.00000  Uiso   1.00
H258   H     0.39773   0.57882   0.32488   0.00000  Uiso   1.00
H259   H     0.58773   0.52676   0.38428   0.00000  Uiso   1.00
H260   H     0.58761   0.52640   0.10617   0.00000  Uiso   1.00
H261   H     0.41239   0.47360   0.39383   0.00000  Uiso   1.00
H262   H     0.63741   0.54238   0.03351   0.00000  Uiso   1.00
H263   H     0.36259   0.45762   0.46649   0.00000  Uiso   1.00
H264   H     0.63757   0.54227   0.45162   0.00000  Uiso   1.00
H265   H     0.36243   0.45773   0.04838   0.00000  Uiso   1.00
H266   H     0.56509   0.33577   0.25251   0.00000  Uiso   1.00
N267   N     0.65011   0.48598   0.23783   0.00000  Uiso   1.00
N268   N     0.34989   0.51402   0.26217   0.00000  Uiso   1.00
N269   N     0.34189   0.45698   0.20139   0.00000  Uiso   1.00
N270   N     0.65811   0.54302   0.29861   0.00000  Uiso   1.00
O271   O     0.46308   0.57952   0.25298   0.00000  Uiso   1.00
O272   O     0.53692   0.42048   0.24701   0.00000  Uiso   1.00
O273   O     0.55946   0.57054   0.24518   0.00000  Uiso   1.00
O274   O     0.44054   0.42946   0.25481   0.00000  Uiso   1.00
O275   O     0.45181   0.50450   0.31997   0.00000  Uiso   1.00
O276   O     0.54819   0.49550   0.18002   0.00000  Uiso   1.00
O277   O     0.54819   0.49552   0.31217   0.00000  Uiso   1.00
O278   O     0.45181   0.50448   0.18782   0.00000  Uiso   1.00
Zn279  Zn    0.43565   0.50600   0.25521   0.00000  Uiso   1.00
Zn280  Zn    0.56435   0.49400   0.24479   0.00000  Uiso   1.00
C281   C     0.84814   0.59797   0.24928   0.00000  Uiso   1.00
C282   C     0.88299   0.51492   0.40451   0.00000  Uiso   1.00
C283   C     0.83324   0.49984   0.11563   0.00000  Uiso   1.00
C284   C     0.83342   0.50015   0.38437   0.00000  Uiso   1.00
C285   C     0.88285   0.51465   0.09005   0.00000  Uiso   1.00
C286   C     0.78381   0.48535   0.40995   0.00000  Uiso   1.00
C287   C     0.88320   0.51506   0.04380   0.00000  Uiso   1.00
C288   C     0.78347   0.48494   0.45620   0.00000  Uiso   1.00
C289   C     0.83331   0.49996   0.02326   0.00000  Uiso   1.00
C290   C     0.83335   0.50004   0.47674   0.00000  Uiso   1.00
C291   C     0.78339   0.48481   0.04924   0.00000  Uiso   1.00
C292   C     0.81853   0.40203   0.25072   0.00000  Uiso   1.00
C293   C     0.88328   0.51519   0.45076   0.00000  Uiso   1.00
C294   C     0.93244   0.53041   0.01787   0.00000  Uiso   1.00
C295   C     0.73423   0.46959   0.48213   0.00000  Uiso   1.00
C296   C     0.97611   0.41114   0.18655   0.00000  Uiso   1.00
C297   C     0.69055   0.58886   0.31345   0.00000  Uiso   1.00
C298   C     0.93250   0.53043   0.47140   0.00000  Uiso   1.00
C299   C     0.73417   0.46957   0.02860   0.00000  Uiso   1.00
C300   C     0.85584   0.65248   0.25035   0.00000  Uiso   1.00
C301   C     0.81082   0.34752   0.24965   0.00000  Uiso   1.00
C302   C     0.83340   0.50019   0.33642   0.00000  Uiso   1.00
C303   C     0.83327   0.49981   0.16358   0.00000  Uiso   1.00
C304   C     0.78368   0.48508   0.09549   0.00000  Uiso   1.00
H305   H     0.74560   0.47324   0.11572   0.00000  Uiso   1.00
H306   H     0.76825   0.66423   0.24749   0.00000  Uiso   1.00
H307   H     0.71514   0.44691   0.20465   0.00000  Uiso   1.00
H308   H     0.66668   0.39069   0.15737   0.00000  Uiso   1.00
H309   H     0.93560   0.42118   0.17512   0.00000  Uiso   1.00
H310   H     0.96923   0.38403   0.21395   0.00000  Uiso   1.00
H311   H     0.95152   0.55309   0.29535   0.00000  Uiso   1.00
H312   H     0.99998   0.60931   0.34263   0.00000  Uiso   1.00
H313   H     0.69743   0.61597   0.28605   0.00000  Uiso   1.00
H314   H     0.73106   0.57882   0.32488   0.00000  Uiso   1.00
H315   H     0.92106   0.52676   0.38428   0.00000  Uiso   1.00
H316   H     0.92094   0.52640   0.10617   0.00000  Uiso   1.00
H317   H     0.74572   0.47360   0.39383   0.00000  Uiso   1.00
H318   H     0.97074   0.54238   0.03351   0.00000  Uiso   1.00
H319   H     0.69592   0.45762   0.46649   0.00000  Uiso   1.00
H320   H     0.97090   0.54227   0.45162   0.00000  Uiso   1.00
H321   H     0.69576   0.45773   0.04838   0.00000  Uiso   1.00
H322   H     0.89842   0.33577   0.25251   0.00000  Uiso   1.00
N323   N     0.98344   0.48598   0.23783   0.00000  Uiso   1.00
N324   N     0.68322   0.51402   0.26217   0.00000  Uiso   1.00
N325   N     0.67522   0.45698   0.20139   0.00000  Uiso   1.00
N326   N     0.99145   0.54302   0.29861   0.00000  Uiso   1.00
O327   O     0.79642   0.57952   0.25298   0.00000  Uiso   1.00
O328   O     0.87025   0.42048   0.24701   0.00000  Uiso   1.00
O329   O     0.89280   0.57054   0.24518   0.00000  Uiso   1.00
O330   O     0.77387   0.42946   0.25481   0.00000  Uiso   1.00
O331   O     0.78514   0.50450   0.31997   0.00000  Uiso   1.00
O332   O     0.88153   0.49550   0.18002   0.00000  Uiso   1.00
O333   O     0.88152   0.49552   0.31217   0.00000  Uiso   1.00
O334   O     0.78515   0.50448   0.18782   0.00000  Uiso   1.00
Zn335  Zn    0.76898   0.50600   0.25521   0.00000  Uiso   1.00
Zn336  Zn    0.89769   0.49400   0.24479   0.00000  Uiso   1.00
C337   C     0.18147   0.93130   0.24928   0.00000  Uiso   1.00
C338   C     0.21632   0.84825   0.40451   0.00000  Uiso   1.00
C339   C     0.16658   0.83318   0.11563   0.00000  Uiso   1.00
C340   C     0.16676   0.83349   0.38437   0.00000  Uiso   1.00
C341   C     0.21619   0.84798   0.09005   0.00000  Uiso   1.00
C342   C     0.11715   0.81869   0.40995   0.00000  Uiso   1.00
C343   C     0.21653   0.84840   0.04380   0.00000  Uiso   1.00
C344   C     0.11680   0.81827   0.45620   0.00000  Uiso   1.00
C345   C     0.16665   0.83330   0.02326   0.00000  Uiso   1.00
C346   C     0.16668   0.83337   0.47674   0.00000  Uiso   1.00
C347   C     0.11672   0.81815   0.04924   0.00000  Uiso   1.00
C348   C     0.15186   0.73536   0.25072   0.00000  Uiso   1.00
C349   C     0.21661   0.84852   0.45076   0.00000  Uiso   1.00
C350   C     0.26577   0.86375   0.01787   0.00000  Uiso   1.00
C351   C     0.06756   0.80292   0.48213   0.00000  Uiso   1.00
C352   C     0.30945   0.74447   0.18655   0.00000  Uiso   1.00
C353   C     0.02389   0.92220   0.31345   0.00000  Uiso   1.00
C354   C     0.26583   0.86376   0.47140   0.00000  Uiso   1.00
C355   C     0.06750   0.80290   0.02860   0.00000  Uiso   1.00
C356   C     0.18918   0.98581   0.25035   0.00000  Uiso   1.00
C357   C     0.14416   0.68086   0.24965   0.00000  Uiso   1.00
C358   C     0.16673   0.83353   0.33642   0.00000  Uiso   1.00
C359   C     0.16660   0.83314   0.16358   0.00000  Uiso   1.00
C360   C     0.11701   0.81841   0.09549   0.00000  Uiso   1.00
H361   H     0.07894   0.80657   0.11572   0.00000  Uiso   1.00
H362   H     0.10158   0.99756   0.24749   0.00000  Uiso   1.00
H363   H     0.04848   0.78024   0.20465   0.00000  Uiso   1.00
H364   H     0.00002   0.72402   0.15737   0.00000  Uiso   1.00
H365   H     0.26894   0.75451   0.17512   0.00000  Uiso   1.00
H366   H     0.30257   0.71736   0.21395   0.00000  Uiso   1.00
H367   H     0.28486   0.88642   0.29535   0.00000  Uiso   1.00
H368   H     0.33332   0.94264   0.34263   0.00000  Uiso   1.00
H369   H     0.03077   0.94931   0.28605   0.00000  Uiso   1.00
H370   H     0.06440   0.91215   0.32488   0.00000  Uiso   1.00
H371   H     0.25440   0.86009   0.38428   0.00000  Uiso   1.00
H372   H     0.25428   0.85973   0.10617   0.00000  Uiso   1.00
H373   H     0.07906   0.80694   0.39383   0.00000  Uiso   1.00
H374   H     0.30408   0.87572   0.03351   0.00000  Uiso   1.00
H375   H     0.02926   0.79095   0.46649   0.00000  Uiso   1.00
H376   H     0.30424   0.87560   0.45162   0.00000  Uiso   1.00
H377   H     0.02910   0.79106   0.04838   0.00000  Uiso   1.00
H378   H     0.23175   0.66911   0.25251   0.00000  Uiso   1.00
N379   N     0.31678   0.81932   0.23783   0.00000  Uiso   1.00
N380   N     0.01656   0.84735   0.26217   0.00000  Uiso   1.00
N381   N     0.00855   0.79031   0.20139   0.00000  Uiso   1.00
N382   N     0.32478   0.87636   0.29861   0.00000  Uiso   1.00
O383   O     0.12975   0.91286   0.25298   0.00000  Uiso   1.00
O384   O     0.20358   0.75381   0.24701   0.00000  Uiso   1.00
O385   O     0.22613   0.90387   0.24518   0.00000  Uiso   1.00
O386   O     0.10720   0.76279   0.25481   0.00000  Uiso   1.00
O387   O     0.11847   0.83784   0.31997   0.00000  Uiso   1.00
O388   O     0.21486   0.82883   0.18002   0.00000  Uiso   1.00
O389   O     0.21485   0.82885   0.31217   0.00000  Uiso   1.00
O390   O     0.11848   0.83781   0.18782   0.00000  Uiso   1.00
Zn391  Zn    0.10231   0.83933   0.25521   0.00000  Uiso   1.00
Zn392  Zn    0.23102   0.82734   0.24479   0.00000  Uiso   1.00
C393   C     0.51481   0.93130   0.24928   0.00000  Uiso   1.00
C394   C     0.54966   0.84825   0.40451   0.00000  Uiso   1.00
C395   C     0.49991   0.83318   0.11563   0.00000  Uiso   1.00
C396   C     0.50009   0.83349   0.38437   0.00000  Uiso   1.00
C397   C     0.54952   0.84798   0.09005   0.00000  Uiso   1.00
C398   C     0.45048   0.81869   0.40995   0.00000  Uiso   1.00
C399   C     0.54987   0.84840   0.04380   0.00000  Uiso   1.00
C400   C     0.45013   0.81827   0.45620   0.00000  Uiso   1.00
C401   C     0.49998   0.83330   0.02326   0.00000  Uiso   1.00
C402   C     0.50002   0.83337   0.47674   0.00000  Uiso   1.00
C403   C     0.45005   0.81815   0.04924   0.00000  Uiso   1.00
C404   C     0.48519   0.73536   0.25072   0.00000  Uiso   1.00
C405   C     0.54995   0.84852   0.45076   0.00000  Uiso   1.00
C406   C     0.59911   0.86375   0.01787   0.00000  Uiso   1.00
C407   C     0.40089   0.80292   0.48213   0.00000  Uiso   1.00
C408   C     0.64278   0.74447   0.18655   0.00000  Uiso   1.00
C409   C     0.35722   0.92220   0.31345   0.00000  Uiso   1.00
C410   C     0.59917   0.86376   0.47140   0.00000  Uiso   1.00
C411   C     0.40083   0.80290   0.02860   0.00000  Uiso   1.00
C412   C     0.52251   0.98581   0.25035   0.00000  Uiso   1.00
C413   C     0.47749   0.68086   0.24965   0.00000  Uiso   1.00
C414   C     0.50007   0.83353   0.33642   0.00000  Uiso   1.00
C415   C     0.49993   0.83314   0.16358   0.00000  Uiso   1.00
C416   C     0.45034   0.81841   0.09549   0.00000  Uiso   1.00
H417   H     0.41227   0.80657   0.11572   0.00000  Uiso   1.00
H418   H     0.43491   0.99756   0.24749   0.00000  Uiso   1.00
H419   H     0.38181   0.78024   0.20465   0.00000  Uiso   1.00
H420   H     0.33335   0.72402   0.15737   0.00000  Uiso   1.00
H421   H     0.60227   0.75451   0.17512   0.00000  Uiso   1.00
H422   H     0.63590   0.71736   0.21395   0.00000  Uiso   1.00
H423   H     0.61819   0.88642   0.29535   0.00000  Uiso   1.00
H424   H     0.66665   0.94264   0.34263   0.00000  Uiso   1.00
H425   H     0.36410   0.94931   0.28605   0.00000  Uiso   1.00
H426   H     0.39773   0.91215   0.32488   0.00000  Uiso   1.00
H427   H     0.58773   0.86009   0.38428   0.00000  Uiso   1.00
H428   H     0.58761   0.85973   0.10617   0.00000  Uiso   1.00
H429   H     0.41239   0.80694   0.39383   0.00000  Uiso   1.00
H430   H     0.63741   0.87572   0.03351   0.00000  Uiso   1.00
H431   H     0.36259   0.79095   0.46649   0.00000  Uiso   1.00
H432   H     0.63757   0.87560   0.45162   0.00000  Uiso   1.00
H433   H     0.36243   0.79106   0.04838   0.00000  Uiso   1.00
H434   H     0.56509   0.66911   0.25251   0.00000  Uiso   1.00
N435   N     0.65011   0.81932   0.23783   0.00000  Uiso   1.00
N436   N     0.34989   0.84735   0.26217   0.00000  Uiso   1.00
N437   N     0.34189   0.79031   0.20139   0.00000  Uiso   1.00
N438   N     0.65811   0.87636   0.29861   0.00000  Uiso   1.00
O439   O     0.46308   0.91286   0.25298   0.00000  Uiso   1.00
O440   O     0.53692   0.75381   0.24701   0.00000  Uiso   1.00
O441   O     0.55946   0.90387   0.24518   0.00000  Uiso   1.00
O442   O     0.44054   0.76279   0.25481   0.00000  Uiso   1.00
O443   O     0.45181   0.83784   0.31997   0.00000  Uiso   1.00
O444   O     0.54819   0.82883   0.18002   0.00000  Uiso   1.00
O445   O     0.54819   0.82885   0.31217   0.00000  Uiso   1.00
O446   O     0.45181   0.83781   0.18782   0.00000  Uiso   1.00
Zn447  Zn    0.43565   0.83933   0.25521   0.00000  Uiso   1.00
Zn448  Zn    0.56435   0.82734   0.24479   0.00000  Uiso   1.00
C449   C     0.84814   0.93130   0.24928   0.00000  Uiso   1.00
C450   C     0.88299   0.84825   0.40451   0.00000  Uiso   1.00
C451   C     0.83324   0.83318   0.11563   0.00000  Uiso   1.00
C452   C     0.83342   0.83349   0.38437   0.00000  Uiso   1.00
C453   C     0.88285   0.84798   0.09005   0.00000  Uiso   1.00
C454   C     0.78381   0.81869   0.40995   0.00000  Uiso   1.00
C455   C     0.88320   0.84840   0.04380   0.00000  Uiso   1.00
C456   C     0.78347   0.81827   0.45620   0.00000  Uiso   1.00
C457   C     0.83331   0.83330   0.02326   0.00000  Uiso   1.00
C458   C     0.83335   0.83337   0.47674   0.00000  Uiso   1.00
C459   C     0.78339   0.81815   0.04924   0.00000  Uiso   1.00
C460   C     0.81853   0.73536   0.25072   0.00000  Uiso   1.00
C461   C     0.88328   0.84852   0.45076   0.00000  Uiso   1.00
C462   C     0.93244   0.86375   0.01787   0.00000  Uiso   1.00
C463   C     0.73423   0.80292   0.48213   0.00000  Uiso   1.00
C464   C     0.97611   0.74447   0.18655   0.00000  Uiso   1.00
C465   C     0.69055   0.92220   0.31345   0.00000  Uiso   1.00
C466   C     0.93250   0.86376   0.47140   0.00000  Uiso   1.00
C467   C     0.73417   0.80290   0.02860   0.00000  Uiso   1.00
C468   C     0.85584   0.98581   0.25035   0.00000  Uiso   1.00
C469   C     0.81082   0.68086   0.24965   0.00000  Uiso   1.00
C470   C     0.83340   0.83353   0.33642   0.00000  Uiso   1.00
C471   C     0.83327   0.83314   0.16358   0.00000  Uiso   1.00
C472   C     0.78368   0.81841   0.09549   0.00000  Uiso   1.00
H473   H     0.74560   0.80657   0.11572   0.00000  Uiso   1.00
H474   H     0.76825   0.99756   0.24749   0.00000  Uiso   1.00
H475   H     0.71514   0.78024   0.20465   0.00000  Uiso   1.00
H476   H     0.66668   0.72402   0.15737   0.00000  Uiso   1.00
H477   H     0.93560   0.75451   0.17512   0.00000  Uiso   1.00
H478   H     0.96923   0.71736   0.21395   0.00000  Uiso   1.00
H479   H     0.95152   0.88642   0.29535   0.00000  Uiso   1.00
H480   H     0.99998   0.94264   0.34263   0.00000  Uiso   1.00
H481   H     0.69743   0.94931   0.28605   0.00000  Uiso   1.00
H482   H     0.73106   0.91215   0.32488   0.00000  Uiso   1.00
H483   H     0.92106   0.86009   0.38428   0.00000  Uiso   1.00
H484   H     0.92094   0.85973   0.10617   0.00000  Uiso   1.00
H485   H     0.74572   0.80694   0.39383   0.00000  Uiso   1.00
H486   H     0.97074   0.87572   0.03351   0.00000  Uiso   1.00
H487   H     0.69592   0.79095   0.46649   0.00000  Uiso   1.00
H488   H     0.97090   0.87560   0.45162   0.00000  Uiso   1.00
H489   H     0.69576   0.79106   0.04838   0.00000  Uiso   1.00
H490   H     0.89842   0.66911   0.25251   0.00000  Uiso   1.00
N491   N     0.98344   0.81932   0.23783   0.00000  Uiso   1.00
N492   N     0.68322   0.84735   0.26217   0.00000  Uiso   1.00
N493   N     0.67522   0.79031   0.20139   0.00000  Uiso   1.00
N494   N     0.99145   0.87636   0.29861   0.00000  Uiso   1.00
O495   O     0.79642   0.91286   0.25298   0.00000  Uiso   1.00
O496   O     0.87025   0.75381   0.24701   0.00000  Uiso   1.00
O497   O     0.89280   0.90387   0.24518   0.00000  Uiso   1.00
O498   O     0.77387   0.76279   0.25481   0.00000  Uiso   1.00
O499   O     0.78514   0.83784   0.31997   0.00000  Uiso   1.00
O500   O     0.88153   0.82883   0.18002   0.00000  Uiso   1.00
O501   O     0.88152   0.82885   0.31217   0.00000  Uiso   1.00
O502   O     0.78515   0.83781   0.18782   0.00000  Uiso   1.00
Zn503  Zn    0.76898   0.83933   0.25521   0.00000  Uiso   1.00
Zn504  Zn    0.89769   0.82734   0.24479   0.00000  Uiso   1.00
C505   C     0.18147   0.26464   0.74928   0.00000  Uiso   1.00
C506   C     0.21632   0.18159   0.90451   0.00000  Uiso   1.00
C507   C     0.16658   0.16651   0.61563   0.00000  Uiso   1.00
C508   C     0.16676   0.16682   0.88437   0.00000  Uiso   1.00
C509   C     0.21619   0.18131   0.59005   0.00000  Uiso   1.00
C510   C     0.11715   0.15202   0.90995   0.00000  Uiso   1.00
C511   C     0.21653   0.18173   0.54380   0.00000  Uiso   1.00
C512   C     0.11680   0.15160   0.95620   0.00000  Uiso   1.00
C513   C     0.16665   0.16663   0.52326   0.00000  Uiso   1.00
C514   C     0.16668   0.16670   0.97674   0.00000  Uiso   1.00
C515   C     0.11672   0.15148   0.54924   0.00000  Uiso   1.00
C516   C     0.15186   0.06870   0.75072   0.00000  Uiso   1.00
C517   C     0.21661   0.18185   0.95076   0.00000  Uiso   1.00
C518   C     0.26577   0.19708   0.51787   0.00000  Uiso   1.00
C519   C     0.06756   0.13625   0.98213   0.00000  Uiso   1.00
C520   C     0.30945   0.07780   0.68655   0.00000  Uiso   1.00
C521   C     0.02389   0.25553   0.81345   0.00000  Uiso   1.00
C522   C     0.26583   0.19710   0.97140   0.00000  Uiso   1.00
C523   C     0.06750   0.13624   0.52860   0.00000  Uiso   1.00
C524   C     0.18918   0.31914   0.75035   0.00000  Uiso   1.00
C525   C     0.14416   0.01419   0.74965   0.00000  Uiso   1.00
C526   C     0.16673   0.16686   0.83642   0.00000  Uiso   1.00
C527   C     0.16660   0.16647   0.66358   0.00000  Uiso   1.00
C528   C     0.11701   0.15175   0.59549   0.00000  Uiso   1.00
H529   H     0.07894   0.13991   0.61572   0.00000  Uiso   1.00
H530   H     0.10158   0.33089   0.74749   0.00000  Uiso   1.00
H531   H     0.04848   0.11358   0.70465   0.00000  Uiso   1.00
H532   H     0.00002   0.05736   0.65737   0.00000  Uiso   1.00
H533   H     0.26894   0.08785   0.67512   0.00000  Uiso   1.00
H534   H     0.30257   0.05069   0.71395   0.00000  Uiso   1.00
H535   H     0.28486   0.21976   0.79535   0.00000  Uiso   1.00
H536   H     0.33332   0.27597   0.84263   0.00000  Uiso   1.00
H537   H     0.03077   0.28264   0.78605   0.00000  Uiso   1.00
H538   H     0.06440   0.24549   0.82488   0.00000  Uiso   1.00
H539   H     0.25440   0.19343   0.88428   0.00000  Uiso   1.00
H540   H     0.25428   0.19306   0.60617   0.00000  Uiso   1.00
H541   H     0.07906   0.14027   0.89383   0.00000  Uiso   1.00
H542   H     0.30408   0.20905   0.53351   0.00000  Uiso   1.00
H543   H     0.02926   0.12428   0.96649   0.00000  Uiso   1.00
H544   H     0.30424   0.20894   0.95162   0.00000  Uiso   1.00
H545   H     0.02910   0.12440   0.54838   0.00000  Uiso   1.00
H546   H     0.23175   0.00244   0.75251   0.00000  Uiso   1.00
N547   N     0.31678   0.15265   0.73783   0.00000  Uiso   1.00
N548   N     0.01656   0.18068   0.76217   0.00000  Uiso   1.00
N549   N     0.00855   0.12364   0.70139   0.00000  Uiso   1.00
N550   N     0.32478   0.20969   0.79861   0.00000  Uiso   1.00
O551   O     0.12975   0.24619   0.75298   0.00000  Uiso   1.00
O552   O     0.20358   0.08714   0.74701   0.00000  Uiso   1.00
O553   O     0.22613   0.23721   0.74518   0.00000  Uiso   1.00
O554   O     0.10720   0.09613   0.75481   0.00000  Uiso   1.00
O555   O     0.11847   0.17117   0.81997   0.00000  Uiso   1.00
O556   O     0.21486   0.16216   0.68002   0.00000  Uiso   1.00
O557   O     0.21485   0.16219   0.81217   0.00000  Uiso   1.00
O558   O     0.11848   0.17115   0.68782   0.00000  Uiso   1.00
Zn559  Zn    0.10231   0.17266   0.75521   0.00000  Uiso   1.00
Zn560  Zn    0.23102   0.16067   0.74479   0.00000  Uiso   1.00
C561   C     0.51481   0.26464   0.74928   0.00000  Uiso   1.00
C562   C     0.54966   0.18159   0.90451   0.00000  Uiso   1.00
C563   C     0.49991   0.16651   0.61563   0.00000  Uiso   1.00
C564   C     0.50009   0.16682   0.88437   0.00000  Uiso   1.00
C565   C     0.54952   0.18131   0.59005   0.00000  Uiso   1.00
C566   C     0.45048   0.15202   0.90995   0.00000  Uiso   1.00
C567   C     0.54987   0.18173   0.54380   0.00000  Uiso   1.00
C568   C     0.45013   0.15160   0.95620   0.00000  Uiso   1.00
C569   C     0.49998   0.16663   0.52326   0.00000  Uiso   1.00
C570   C     0.50002   0.16670   0.97674   0.00000  Uiso   1.00
C571   C     0.45005   0.15148   0.54924   0.00000  Uiso   1.00
C572   C     0.48519   0.06870   0.75072   0.00000  Uiso   1.00
C573   C     0.54995   0.18185   0.95076   0.00000  Uiso   1.00
C574   C     0.59911   0.19708   0.51787   0.00000  Uiso   1.00
C575   C     0.40089   0.13625   0.98213   0.00000  Uiso   1.00
C576   C     0.64278   0.07780   0.68655   0.00000  Uiso   1.00
C577   C     0.35722   0.25553   0.81345   0.00000  Uiso   1.00
C578   C     0.59917   0.19710   0.97140   0.00000  Uiso   1.00
C579   C     0.40083   0.13624   0.52860   0.00000  Uiso   1.00
C580   C     0.52251   0.31914   0.75035   0.00000  Uiso   1.00
C581   C     0.47749   0.01419   0.74965   0.00000  Uiso   1.00
C582   C     0.50007   0.16686   0.83642   0.00000  Uiso   1.00
C583   C     0.49993   0.16647   0.66358   0.00000  Uiso   1.00
C584   C     0.45034   0.15175   0.59549   0.00000  Uiso   1.00
H585   H     0.41227   0.13991   0.61572   0.00000  Uiso   1.00
H586   H     0.43491   0.33089   0.74749   0.00000  Uiso   1.00
H587   H     0.38181   0.11358   0.70465   0.00000  Uiso   1.00
H588   H     0.33335   0.05736   0.65737   0.00000  Uiso   1.00
H589   H     0.60227   0.08785   0.67512   0.00000  Uiso   1.00
H590   H     0.63590   0.05069   0.71395   0.00000  Uiso   1.00
H591   H     0.61819   0.21976   0.79535   0.00000  Uiso   1.00
H592   H     0.66665   0.27597   0.84263   0.00000  Uiso   1.00
H593   H     0.36410   0.28264   0.78605   0.00000  Uiso   1.00
H594   H     0.39773   0.24549   0.82488   0.00000  Uiso   1.00
H595   H     0.58773   0.19343   0.88428   0.00000  Uiso   1.00
H596   H     0.58761   0.19306   0.60617   0.00000  Uiso   1.00
H597   H     0.41239   0.14027   0.89383   0.00000  Uiso   1.00
H598   H     0.63741   0.20905   0.53351   0.00000  Uiso   1.00
H599   H     0.36259   0.12428   0.96649   0.00000  Uiso   1.00
H600   H     0.63757   0.20894   0.95162   0.00000  Uiso   1.00
H601   H     0.36243   0.12440   0.54838   0.00000  Uiso   1.00
H602   H     0.56509   0.00244   0.75251   0.00000  Uiso   1.00
N603   N     0.65011   0.15265   0.73783   0.00000  Uiso   1.00
N604   N     0.34989   0.18068   0.76217   0.00000  Uiso   1.00
N605   N     0.34189   0.12364   0.70139   0.00000  Uiso   1.00
N606   N     0.65811   0.20969   0.79861   0.00000  Uiso   1.00
O607   O     0.46308   0.24619   0.75298   0.00000  Uiso   1.00
O608   O     0.53692   0.08714   0.74701   0.00000  Uiso   1.00
O609   O     0.55946   0.23721   0.74518   0.00000  Uiso   1.00
O610   O     0.44054   0.09613   0.75481   0.00000  Uiso   1.00
O611   O     0.45181   0.17117   0.81997   0.00000  Uiso   1.00
O612   O     0.54819   0.16216   0.68002   0.00000  Uiso   1.00
O613   O     0.54819   0.16219   0.81217   0.00000  Uiso   1.00
O614   O     0.45181   0.17115   0.68782   0.00000  Uiso   1.00
Zn615  Zn    0.43565   0.17266   0.75521   0.00000  Uiso   1.00
Zn616  Zn    0.56435   0.16067   0.74479   0.00000  Uiso   1.00
C617   C     0.84814   0.26464   0.74928   0.00000  Uiso   1.00
C618   C     0.88299   0.18159   0.90451   0.00000  Uiso   1.00
C619   C     0.83324   0.16651   0.61563   0.00000  Uiso   1.00
C620   C     0.83342   0.16682   0.88437   0.00000  Uiso   1.00
C621   C     0.88285   0.18131   0.59005   0.00000  Uiso   1.00
C622   C     0.78381   0.15202   0.90995   0.00000  Uiso   1.00
C623   C     0.88320   0.18173   0.54380   0.00000  Uiso   1.00
C624   C     0.78347   0.15160   0.95620   0.00000  Uiso   1.00
C625   C     0.83331   0.16663   0.52326   0.00000  Uiso   1.00
C626   C     0.83335   0.16670   0.97674   0.00000  Uiso   1.00
C627   C     0.78339   0.15148   0.54924   0.00000  Uiso   1.00
C628   C     0.81853   0.06870   0.75072   0.00000  Uiso   1.00
C629   C     0.88328   0.18185   0.95076   0.00000  Uiso   1.00
C630   C     0.93244   0.19708   0.51787   0.00000  Uiso   1.00
C631   C     0.73423   0.13625   0.98213   0.00000  Uiso   1.00
C632   C     0.97611   0.07780   0.68655   0.00000  Uiso   1.00
C633   C     0.69055   0.25553   0.81345   0.00000  Uiso   1.00
C634   C     0.93250   0.19710   0.97140   0.00000  Uiso   1.00
C635   C     0.73417   0.13624   0.52860   0.00000  Uiso   1.00
C636   C     0.85584   0.31914   0.75035   0.00000  Uiso   1.00
C637   C     0.81082   0.01419   0.74965   0.00000  Uiso   1.00
C638   C     0.83340   0.16686   0.83642   0.00000  Uiso   1.00
C639   C     0.83327   0.16647   0.66358   0.00000  Uiso   1.00
C640   C     0.78368   0.15175   0.59549   0.00000  Uiso   1.00
H641   H     0.74560   0.13991   0.61572   0.00000  Uiso   1.00
H642   H     0.76825   0.33089   0.74749   0.00000  Uiso   1.00
H643   H     0.71514   0.11358   0.70465   0.00000  Uiso   1.00
H644   H     0.66668   0.05736   0.65737   0.00000  Uiso   1.00
H645   H     0.93560   0.08785   0.67512   0.00000  Uiso   1.00
H646   H     0.96923   0.05069   0.71395   0.00000  Uiso   1.00
H647   H     0.95152   0.21976   0.79535   0.00000  Uiso   1.00
H648   H     0.99998   0.27597   0.84263   0.00000  Uiso   1.00
H649   H     0.69743   0.28264   0.78605   0.00000  Uiso   1.00
H650   H     0.73106   0.24549   0.82488   0.00000  Uiso   1.00
H651   H     0.92106   0.19343   0.88428   0.00000  Uiso   1.00
H652   H     0.92094   0.19306   0.60617   0.00000  Uiso   1.00
H653   H     0.74572   0.14027   0.89383   0.00000  Uiso   1.00
H654   H     0.97074   0.20905   0.53351   0.00000  Uiso   1.00
H655   H     0.69592   0.12428   0.96649   0.00000  Uiso   1.00
H656   H     0.97090   0.20894   0.95162   0.00000  Uiso   1.00
H657   H     0.69576   0.12440   0.54838   0.00000  Uiso   1.00
H658   H     0.89842   0.00244   0.75251   0.00000  Uiso   1.00
N659   N     0.98344   0.15265   0.73783   0.00000  Uiso   1.00
N660   N     0.68322   0.18068   0.76217   0.00000  Uiso   1.00
N661   N     0.67522   0.12364   0.70139   0.00000  Uiso   1.00
N662   N     0.99145   0.20969   0.79861   0.00000  Uiso   1.00
O663   O     0.79642   0.24619   0.75298   0.00000  Uiso   1.00
O664   O     0.87025   0.08714   0.74701   0.00000  Uiso   1.00
O665   O     0.89280   0.23721   0.74518   0.00000  Uiso   1.00
O666   O     0.77387   0.09613   0.75481   0.00000  Uiso   1.00
O667   O     0.78514   0.17117   0.81997   0.00000  Uiso   1.00
O668   O     0.88153   0.16216   0.68002   0.00000  Uiso   1.00
O669   O     0.88152   0.16219   0.81217   0.00000  Uiso   1.00
O670   O     0.78515   0.17115   0.68782   0.00000  Uiso   1.00
Zn671  Zn    0.76898   0.17266   0.75521   0.00000  Uiso   1.00
Zn672  Zn    0.89769   0.16067   0.74479   0.00000  Uiso   1.00
C673   C     0.18147   0.59797   0.74928   0.00000  Uiso   1.00
C674   C     0.21632   0.51492   0.90451   0.00000  Uiso   1.00
C675   C     0.16658   0.49984   0.61563   0.00000  Uiso   1.00
C676   C     0.16676   0.50015   0.88437   0.00000  Uiso   1.00
C677   C     0.21619   0.51465   0.59005   0.00000  Uiso   1.00
C678   C     0.11715   0.48535   0.90995   0.00000  Uiso   1.00
C679   C     0.21653   0.51506   0.54380   0.00000  Uiso   1.00
C680   C     0.11680   0.48494   0.95620   0.00000  Uiso   1.00
C681   C     0.16665   0.49996   0.52326   0.00000  Uiso   1.00
C682   C     0.16668   0.50004   0.97674   0.00000  Uiso   1.00
C683   C     0.11672   0.48481   0.54924   0.00000  Uiso   1.00
C684   C     0.15186   0.40203   0.75072   0.00000  Uiso   1.00
C685   C     0.21661   0.51519   0.95076   0.00000  Uiso   1.00
C686   C     0.26577   0.53041   0.51787   0.00000  Uiso   1.00
C687   C     0.06756   0.46959   0.98213   0.00000  Uiso   1.00
C688   C     0.30945   0.41114   0.68655   0.00000  Uiso   1.00
C689   C     0.02389   0.58886   0.81345   0.00000  Uiso   1.00
C690   C     0.26583   0.53043   0.97140   0.00000  Uiso   1.00
C691   C     0.06750   0.46957   0.52860   0.00000  Uiso   1.00
C692   C     0.18918   0.65248   0.75035   0.00000  Uiso   1.00
C693   C     0.14416   0.34752   0.74965   0.00000  Uiso   1.00
C694   C     0.16673   0.50019   0.83642   0.00000  Uiso   1.00
C695   C     0.16660   0.49981   0.66358   0.00000  Uiso   1.00
C696   C     0.11701   0.48508   0.59549   0.00000  Uiso   1.00
H697   H     0.07894   0.47324   0.61572   0.00000  Uiso   1.00
H698   H     0.10158   0.66423   0.74749   0.00000  Uiso   1.00
H699   H     0.04848   0.44691   0.70465   0.00000  Uiso   1.00
H700   H     0.00002   0.39069   0.65737   0.00000  Uiso   1.00
H701   H     0.26894   0.42118   0.67512   0.00000  Uiso   1.00
H702   H     0.30257   0.38403   0.71395   0.00000  Uiso   1.00
H703   H     0.28486   0.55309   0.79535   0.00000  Uiso   1.00
H704   H     0.33332   0.60931   0.84263   0.00000  Uiso   1.00
H705   H     0.03077   0.61597   0.78605   0.00000  Uiso   1.00
H706   H     0.06440   0.57882   0.82488   0.00000  Uiso   1.00
H707   H     0.25440   0.52676   0.88428   0.00000  Uiso   1.00
H708   H     0.25428   0.52640   0.60617   0.00000  Uiso   1.00
H709   H     0.07906   0.47360   0.89383   0.00000  Uiso   1.00
H710   H     0.30408   0.54238   0.53351   0.00000  Uiso   1.00
H711   H     0.02926   0.45762   0.96649   0.00000  Uiso   1.00
H712   H     0.30424   0.54227   0.95162   0.00000  Uiso   1.00
H713   H     0.02910   0.45773   0.54838   0.00000  Uiso   1.00
H714   H     0.23175   0.33577   0.75251   0.00000  Uiso   1.00
N715   N     0.31678   0.48598   0.73783   0.00000  Uiso   1.00
N716   N     0.01656   0.51402   0.76217   0.00000  Uiso   1.00
N717   N     0.00855   0.45698   0.70139   0.00000  Uiso   1.00
N718   N     0.32478   0.54302   0.79861   0.00000  Uiso   1.00
O719   O     0.12975   0.57952   0.75298   0.00000  Uiso   1.00
O720   O     0.20358   0.42048   0.74701   0.00000  Uiso   1.00
O721   O     0.22613   0.57054   0.74518   0.00000  Uiso   1.00
O722   O     0.10720   0.42946   0.75481   0.00000  Uiso   1.00
O723   O     0.11847   0.50450   0.81997   0.00000  Uiso   1.00
O724   O     0.21486   0.49550   0.68002   0.00000  Uiso   1.00
O725   O     0.21485   0.49552   0.81217   0.00000  Uiso   1.00
O726   O     0.11848   0.50448   0.68782   0.00000  Uiso   1.00
Zn727  Zn    0.10231   0.50600   0.75521   0.00000  Uiso   1.00
Zn728  Zn    0.23102   0.49400   0.74479   0.00000  Uiso   1.00
C729   C     0.51481   0.59797   0.74928   0.00000  Uiso   1.00
C730   C     0.54966   0.51492   0.90451   0.00000  Uiso   1.00
C731   C     0.49991   0.49984   0.61563   0.00000  Uiso   1.00
C732   C     0.50009   0.50015   0.88437   0.00000  Uiso   1.00
C733   C     0.54952   0.51465   0.59005   0.00000  Uiso   1.00
C734   C     0.45048   0.48535   0.90995   0.00000  Uiso   1.00
C735   C     0.54987   0.51506   0.54380   0.00000  Uiso   1.00
C736   C     0.45013   0.48494   0.95620   0.00000  Uiso   1.00
C737   C     0.49998   0.49996   0.52326   0.00000  Uiso   1.00
C738   C     0.50002   0.50004   0.97674   0.00000  Uiso   1.00
C739   C     0.45005   0.48481   0.54924   0.00000  Uiso   1.00
C740   C     0.48519   0.40203   0.75072   0.00000  Uiso   1.00
C741   C     0.54995   0.51519   0.95076   0.00000  Uiso   1.00
C742   C     0.59911   0.53041   0.51787   0.00000  Uiso   1.00
C743   C     0.40089   0.46959   0.98213   0.00000  Uiso   1.00
C744   C     0.64278   0.41114   0.68655   0.00000  Uiso   1.00
C745   C     0.35722   0.58886   0.81345   0.00000  Uiso   1.00
C746   C     0.59917   0.53043   0.97140   0.00000  Uiso   1.00
C747   C     0.40083   0.46957   0.52860   0.00000  Uiso   1.00
C748   C     0.52251   0.65248   0.75035   0.00000  Uiso   1.00
C749   C     0.47749   0.34752   0.74965   0.00000  Uiso   1.00
C750   C     0.50007   0.50019   0.83642   0.00000  Uiso   1.00
C751   C     0.49993   0.49981   0.66358   0.00000  Uiso   1.00
C752   C     0.45034   0.48508   0.59549   0.00000  Uiso   1.00
H753   H     0.41227   0.47324   0.61572   0.00000  Uiso   1.00
H754   H     0.43491   0.66423   0.74749   0.00000  Uiso   1.00
H755   H     0.38181   0.44691   0.70465   0.00000  Uiso   1.00
H756   H     0.33335   0.39069   0.65737   0.00000  Uiso   1.00
H757   H     0.60227   0.42118   0.67512   0.00000  Uiso   1.00
H758   H     0.63590   0.38403   0.71395   0.00000  Uiso   1.00
H759   H     0.61819   0.55309   0.79535   0.00000  Uiso   1.00
H760   H     0.66665   0.60931   0.84263   0.00000  Uiso   1.00
H761   H     0.36410   0.61597   0.78605   0.00000  Uiso   1.00
H762   H     0.39773   0.57882   0.82488   0.00000  Uiso   1.00
H763   H     0.58773   0.52676   0.88428   0.00000  Uiso   1.00
H764   H     0.58761   0.52640   0.60617   0.00000  Uiso   1.00
H765   H     0.41239   0.47360   0.89383   0.00000  Uiso   1.00
H766   H     0.63741   0.54238   0.53351   0.00000  Uiso   1.00
H767   H     0.36259   0.45762   0.96649   0.00000  Uiso   1.00
H768   H     0.63757   0.54227   0.95162   0.00000  Uiso   1.00
H769   H     0.36243   0.45773   0.54838   0.00000  Uiso   1.00
H770   H     0.56509   0.33577   0.75251   0.00000  Uiso   1.00
N771   N     0.65011   0.48598   0.73783   0.00000  Uiso   1.00
N772   N     0.34989   0.51402   0.76217   0.00000  Uiso   1.00
N773   N     0.34189   0.45698   0.70139   0.00000  Uiso   1.00
N774   N     0.65811   0.54302   0.79861   0.00000  Uiso   1.00
O775   O     0.46308   0.57952   0.75298   0.00000  Uiso   1.00
O776   O     0.53692   0.42048   0.74701   0.00000  Uiso   1.00
O777   O     0.55946   0.57054   0.74518   0.00000  Uiso   1.00
O778   O     0.44054   0.42946   0.75481   0.00000  Uiso   1.00
O779   O     0.45181   0.50450   0.81997   0.00000  Uiso   1.00
O780   O     0.54819   0.49550   0.68002   0.00000  Uiso   1.00
O781   O     0.54819   0.49552   0.81217   0.00000  Uiso   1.00
O782   O     0.45181   0.50448   0.68782   0.00000  Uiso   1.00
Zn783  Zn    0.43565   0.50600   0.75521   0.00000  Uiso   1.00
Zn784  Zn    0.56435   0.49400   0.74479   0.00000  Uiso   1.00
C785   C     0.84814   0.59797   0.74928   0.00000  Uiso   1.00
C786   C     0.88299   0.51492   0.90451   0.00000  Uiso   1.00
C787   C     0.83324   0.49984   0.61563   0.00000  Uiso   1.00
C788   C     0.83342   0.50015   0.88437   0.00000  Uiso   1.00
C789   C     0.88285   0.51465   0.59005   0.00000  Uiso   1.00
C790   C     0.78381   0.48535   0.90995   0.00000  Uiso   1.00
C791   C     0.88320   0.51506   0.54380   0.00000  Uiso   1.00
C792   C     0.78347   0.48494   0.95620   0.00000  Uiso   1.00
C793   C     0.83331   0.49996   0.52326   0.00000  Uiso   1.00
C794   C     0.83335   0.50004   0.97674   0.00000  Uiso   1.00
C795   C     0.78339   0.48481   0.54924   0.00000  Uiso   1.00
C796   C     0.81853   0.40203   0.75072   0.00000  Uiso   1.00
C797   C     0.88328   0.51519   0.95076   0.00000  Uiso   1.00
C798   C     0.93244   0.53041   0.51787   0.00000  Uiso   1.00
C799   C     0.73423   0.46959   0.98213   0.00000  Uiso   1.00
C800   C     0.97611   0.41114   0.68655   0.00000  Uiso   1.00
C801   C     0.69055   0.58886   0.81345   0.00000  Uiso   1.00
C802   C     0.93250   0.53043   0.97140   0.00000  Uiso   1.00
C803   C     0.73417   0.46957   0.52860   0.00000  Uiso   1.00
C804   C     0.85584   0.65248   0.75035   0.00000  Uiso   1.00
C805   C     0.81082   0.34752   0.74965   0.00000  Uiso   1.00
C806   C     0.83340   0.50019   0.83642   0.00000  Uiso   1.00
C807   C     0.83327   0.49981   0.66358   0.00000  Uiso   1.00
C808   C     0.78368   0.48508   0.59549   0.00000  Uiso   1.00
H809   H     0.74560   0.47324   0.61572   0.00000  Uiso   1.00
H810   H     0.76825   0.66423   0.74749   0.00000  Uiso   1.00
H811   H     0.71514   0.44691   0.70465   0.00000  Uiso   1.00
H812   H     0.66668   0.39069   0.65737   0.00000  Uiso   1.00
H813   H     0.93560   0.42118   0.67512   0.00000  Uiso   1.00
H814   H     0.96923   0.38403   0.71395   0.00000  Uiso   1.00
H815   H     0.95152   0.55309   0.79535   0.00000  Uiso   1.00
H816   H     0.99998   0.60931   0.84263   0.00000  Uiso   1.00
H817   H     0.69743   0.61597   0.78605   0.00000  Uiso   1.00
H818   H     0.73106   0.57882   0.82488   0.00000  Uiso   1.00
H819   H     0.92106   0.52676   0.88428   0.00000  Uiso   1.00
H820   H     0.92094   0.52640   0.60617   0.00000  Uiso   1.00
H821   H     0.74572   0.47360   0.89383   0.00000  Uiso   1.00
H822   H     0.97074   0.54238   0.53351   0.00000  Uiso   1.00
H823   H     0.69592   0.45762   0.96649   0.00000  Uiso   1.00
H824   H     0.97090   0.54227   0.95162   0.00000  Uiso   1.00
H825   H     0.69576   0.45773   0.54838   0.00000  Uiso   1.00
H826   H     0.89842   0.33577   0.75251   0.00000  Uiso   1.00
N827   N     0.98344   0.48598   0.73783   0.00000  Uiso   1.00
N828   N     0.68322   0.51402   0.76217   0.00000  Uiso   1.00
N829   N     0.67522   0.45698   0.70139   0.00000  Uiso   1.00
N830   N     0.99145   0.54302   0.79861   0.00000  Uiso   1.00
O831   O     0.79642   0.57952   0.75298   0.00000  Uiso   1.00
O832   O     0.87025   0.42048   0.74701   0.00000  Uiso   1.00
O833   O     0.89280   0.57054   0.74518   0.00000  Uiso   1.00
O834   O     0.77387   0.42946   0.75481   0.00000  Uiso   1.00
O835   O     0.78514   0.50450   0.81997   0.00000  Uiso   1.00
O836   O     0.88153   0.49550   0.68002   0.00000  Uiso   1.00
O837   O     0.88152   0.49552   0.81217   0.00000  Uiso   1.00
O838   O     0.78515   0.50448   0.68782   0.00000  Uiso   1.00
Zn839  Zn    0.76898   0.50600   0.75521   0.00000  Uiso   1.00
Zn840  Zn    0.89769   0.49400   0.74479   0.00000  Uiso   1.00
C841   C     0.18147   0.93130   0.74928   0.00000  Uiso   1.00
C842   C     0.21632   0.84825   0.90451   0.00000  Uiso   1.00
C843   C     0.16658   0.83318   0.61563   0.00000  Uiso   1.00
C844   C     0.16676   0.83349   0.88437   0.00000  Uiso   1.00
C845   C     0.21619   0.84798   0.59005   0.00000  Uiso   1.00
C846   C     0.11715   0.81869   0.90995   0.00000  Uiso   1.00
C847   C     0.21653   0.84840   0.54380   0.00000  Uiso   1.00
C848   C     0.11680   0.81827   0.95620   0.00000  Uiso   1.00
C849   C     0.16665   0.83330   0.52326   0.00000  Uiso   1.00
C850   C     0.16668   0.83337   0.97674   0.00000  Uiso   1.00
C851   C     0.11672   0.81815   0.54924   0.00000  Uiso   1.00
C852   C     0.15186   0.73536   0.75072   0.00000  Uiso   1.00
C853   C     0.21661   0.84852   0.95076   0.00000  Uiso   1.00
C854   C     0.26577   0.86375   0.51787   0.00000  Uiso   1.00
C855   C     0.06756   0.80292   0.98213   0.00000  Uiso   1.00
C856   C     0.30945   0.74447   0.68655   0.00000  Uiso   1.00
C857   C     0.02389   0.92220   0.81345   0.00000  Uiso   1.00
C858   C     0.26583   0.86376   0.97140   0.00000  Uiso   1.00
C859   C     0.06750   0.80290   0.52860   0.00000  Uiso   1.00
C860   C     0.18918   0.98581   0.75035   0.00000  Uiso   1.00
C861   C     0.14416   0.68086   0.74965   0.00000  Uiso   1.00
C862   C     0.16673   0.83353   0.83642   0.00000  Uiso   1.00
C863   C     0.16660   0.83314   0.66358   0.00000  Uiso   1.00
C864   C     0.11701   0.81841   0.59549   0.00000  Uiso   1.00
H865   H     0.07894   0.80657   0.61572   0.00000  Uiso   1.00
H866   H     0.10158   0.99756   0.74749   0.00000  Uiso   1.00
H867   H     0.04848   0.78024   0.70465   0.00000  Uiso   1.00
H868   H     0.00002   0.72402   0.65737   0.00000  Uiso   1.00
H869   H     0.26894   0.75451   0.67512   0.00000  Uiso   1.00
H870   H     0.30257   0.71736   0.71395   0.00000  Uiso   1.00
H871   H     0.28486   0.88642   0.79535   0.00000  Uiso   1.00
H872   H     0.33332   0.94264   0.84263   0.00000  Uiso   1.00
H873   H     0.03077   0.94931   0.78605   0.00000  Uiso   1.00
H874   H     0.06440   0.91215   0.82488   0.00000  Uiso   1.00
H875   H     0.25440   0.86009   0.88428   0.00000  Uiso   1.00
H876   H     0.25428   0.85973   0.60617   0.00000  Uiso   1.00
H877   H     0.07906   0.80694   0.89383   0.00000  Uiso   1.00
H878   H     0.30408   0.87572   0.53351   0.00000  Uiso   1.00
H879   H     0.02926   0.79095   0.96649   0.00000  Uiso   1.00
H880   H     0.30424   0.87560   0.95162   0.00000  Uiso   1.00
H881   H     0.02910   0.79106   0.54838   0.00000  Uiso   1.00
H882   H     0.23175   0.66911   0.75251   0.00000  Uiso   1.00
N883   N     0.31678   0.81932   0.73783   0.00000  Uiso   1.00
N884   N     0.01656   0.84735   0.76217   0.00000  Uiso   1.00
N885   N     0.00855   0.79031   0.70139   0.00000  Uiso   1.00
N886   N     0.32478   0.87636   0.79861   0.00000  Uiso   1.00
O887   O     0.12975   0.91286   0.75298   0.00000  Uiso   1.00
O888   O     0.20358   0.75381   0.74701   0.00000  Uiso   1.00
O889   O     0.22613   0.90387   0.74518   0.00000  Uiso   1.00
O890   O     0.10720   0.76279   0.75481   0.00000  Uiso   1.00
O891   O     0.11847   0.83784   0.81997   0.00000  Uiso   1.00
O892   O     0.21486   0.82883   0.68002   0.00000  Uiso   1.00
O893   O     0.21485   0.82885   0.81217   0.00000  Uiso   1.00
O894   O     0.11848   0.83781   0.68782   0.00000  Uiso   1.00
Zn895  Zn    0.10231   0.83933   0.75521   0.00000  Uiso   1.00
Zn896  Zn    0.23102   0.82734   0.74479   0.00000  Uiso   1.00
C897   C     0.51481   0.93130   0.74928   0.00000  Uiso   1.00
C898   C     0.54966   0.84825   0.90451   0.00000  Uiso   1.00
C899   C     0.49991   0.83318   0.61563   0.00000  Uiso   1.00
C900   C     0.50009   0.83349   0.88437   0.00000  Uiso   1.00
C901   C     0.54952   0.84798   0.59005   0.00000  Uiso   1.00
C902   C     0.45048   0.81869   0.90995   0.00000  Uiso   1.00
C903   C     0.54987   0.84840   0.54380   0.00000  Uiso   1.00
C904   C     0.45013   0.81827   0.95620   0.00000  Uiso   1.00
C905   C     0.49998   0.83330   0.52326   0.00000  Uiso   1.00
C906   C     0.50002   0.83337   0.97674   0.00000  Uiso   1.00
C907   C     0.45005   0.81815   0.54924   0.00000  Uiso   1.00
C908   C     0.48519   0.73536   0.75072   0.00000  Uiso   1.00
C909   C     0.54995   0.84852   0.95076   0.00000  Uiso   1.00
C910   C     0.59911   0.86375   0.51787   0.00000  Uiso   1.00
C911   C     0.40089   0.80292   0.98213   0.00000  Uiso   1.00
C912   C     0.64278   0.74447   0.68655   0.00000  Uiso   1.00
C913   C     0.35722   0.92220   0.81345   0.00000  Uiso   1.00
C914   C     0.59917   0.86376   0.97140   0.00000  Uiso   1.00
C915   C     0.40083   0.80290   0.52860   0.00000  Uiso   1.00
C916   C     0.52251   0.98581   0.75035   0.00000  Uiso   1.00
C917   C     0.47749   0.68086   0.74965   0.00000  Uiso   1.00
C918   C     0.50007   0.83353   0.83642   0.00000  Uiso   1.00
C919   C     0.49993   0.83314   0.66358   0.00000  Uiso   1.00
C920   C     0.45034   0.81841   0.59549   0.00000  Uiso   1.00
H921   H     0.41227   0.80657   0.61572   0.00000  Uiso   1.00
H922   H     0.43491   0.99756   0.74749   0.00000  Uiso   1.00
H923   H     0.38181   0.78024   0.70465   0.00000  Uiso   1.00
H924   H     0.33335   0.72402   0.65737   0.00000  Uiso   1.00
H925   H     0.60227   0.75451   0.67512   0.00000  Uiso   1.00
H926   H     0.63590   0.71736   0.71395   0.00000  Uiso   1.00
H927   H     0.61819   0.88642   0.79535   0.00000  Uiso   1.00
H928   H     0.66665   0.94264   0.84263   0.00000  Uiso   1.00
H929   H     0.36410   0.94931   0.78605   0.00000  Uiso   1.00
H930   H     0.39773   0.91215   0.82488   0.00000  Uiso   1.00
H931   H     0.58773   0.86009   0.88428   0.00000  Uiso   1.00
H932   H     0.58761   0.85973   0.60617   0.00000  Uiso   1.00
H933   H     0.41239   0.80694   0.89383   0.00000  Uiso   1.00
H934   H     0.63741   0.87572   0.53351   0.00000  Uiso   1.00
H935   H     0.36259   0.79095   0.96649   0.00000  Uiso   1.00
H936   H     0.63757   0.87560   0.95162   0.00000  Uiso   1.00
H937   H     0.36243   0.79106   0.54838   0.00000  Uiso   1.00
H938   H     0.56509   0.66911   0.75251   0.00000  Uiso   1.00
N939   N     0.65011   0.81932   0.73783   0.00000  Uiso   1.00
N940   N     0.34989   0.84735   0.76217   0.00000  Uiso   1.00
N941   N     0.34189   0.79031   0.70139   0.00000  Uiso   1.00
N942   N     0.65811   0.87636   0.79861   0.00000  Uiso   1.00
O943   O     0.46308   0.91286   0.75298   0.00000  Uiso   1.00
O944   O     0.53692   0.75381   0.74701   0.00000  Uiso   1.00
O945   O     0.55946   0.90387   0.74518   0.00000  Uiso   1.00
O946   O     0.44054   0.76279   0.75481   0.00000  Uiso   1.00
O947   O     0.45181   0.83784   0.81997   0.00000  Uiso   1.00
O948   O     0.54819   0.82883   0.68002   0.00000  Uiso   1.00
O949   O     0.54819   0.82885   0.81217   0.00000  Uiso   1.00
O950   O     0.45181   0.83781   0.68782   0.00000  Uiso   1.00
Zn951  Zn    0.43565   0.83933   0.75521   0.00000  Uiso   1.00
Zn952  Zn    0.56435   0.82734   0.74479   0.00000  Uiso   1.00
C953   C     0.84814   0.93130   0.74928   0.00000  Uiso   1.00
C954   C     0.88299   0.84825   0.90451   0.00000  Uiso   1.00
C955   C     0.83324   0.83318   0.61563   0.00000  Uiso   1.00
C956   C     0.83342   0.83349   0.88437   0.00000  Uiso   1.00
C957   C     0.88285   0.84798   0.59005   0.00000  Uiso   1.00
C958   C     0.78381   0.81869   0.90995   0.00000  Uiso   1.00
C959   C     0.88320   0.84840   0.54380   0.00000  Uiso   1.00
C960   C     0.78347   0.81827   0.95620   0.00000  Uiso   1.00
C961   C     0.83331   0.83330   0.52326   0.00000  Uiso   1.00
C962   C     0.83335   0.83337   0.97674   0.00000  Uiso   1.00
C963   C     0.78339   0.81815   0.54924   0.00000  Uiso   1.00
C964   C     0.81853   0.73536   0.75072   0.00000  Uiso   1.00
C965   C     0.88328   0.84852   0.95076   0.00000  Uiso   1.00
C966   C     0.93244   0.86375   0.51787   0.00000  Uiso   1.00
C967   C     0.73423   0.80292   0.98213   0.00000  Uiso   1.00
C968   C     0.97611   0.74447   0.68655   0.00000  Uiso   1.00
C969   C     0.69055   0.92220   0.81345   0.00000  Uiso   1.00
C970   C     0.93250   0.86376   0.97140   0.00000  Uiso   1.00
C971   C     0.73417   0.80290   0.52860   0.00000  Uiso   1.00
C972   C     0.85584   0.98581   0.75035   0.00000  Uiso   1.00
C973   C     0.81082   0.68086   0.74965   0.00000  Uiso   1.00
C974   C     0.83340   0.83353   0.83642   0.00000  Uiso   1.00
C975   C     0.83327   0.83314   0.66358   0.00000  Uiso   1.00
C976   C     0.78368   0.81841   0.59549   0.00000  Uiso   1.00
H977   H     0.74560   0.80657   0.61572   0.00000  Uiso   1.00
H978   H     0.76825   0.99756   0.74749   0.00000  Uiso   1.00
H979   H     0.71514   0.78024   0.70465   0.00000  Uiso   1.00
H980   H     0.66668   0.72402   0.65737   0.00000  Uiso   1.00
H981   H     0.93560   0.75451   0.67512   0.00000  Uiso   1.00
H982   H     0.96923   0.71736   0.71395   0.00000  Uiso   1.00
H983   H     0.95152   0.88642   0.79535   0.00000  Uiso   1.00
H984   H     0.99998   0.94264   0.84263   0.00000  Uiso   1.00
H985   H     0.69743   0.94931   0.78605   0.00000  Uiso   1.00
H986   H     0.73106   0.91215   0.82488   0.00000  Uiso   1.00
H987   H     0.92106   0.86009   0.88428   0.00000  Uiso   1.00
H988   H     0.92094   0.85973   0.60617   0.00000  Uiso   1.00
H989   H     0.74572   0.80694   0.89383   0.00000  Uiso   1.00
H990   H     0.97074   0.87572   0.53351   0.00000  Uiso   1.00
H991   H     0.69592   0.79095   0.96649   0.00000  Uiso   1.00
H992   H     0.97090   0.87560   0.95162   0.00000  Uiso   1.00
H993   H     0.69576   0.79106   0.54838   0.00000  Uiso   1.00
H994   H     0.89842   0.66911   0.75251   0.00000  Uiso   1.00
N995   N     0.98344   0.81932   0.73783   0.00000  Uiso   1.00
N996   N     0.68322   0.84735   0.76217   0.00000  Uiso   1.00
N997   N     0.67522   0.79031   0.70139   0.00000  Uiso   1.00
N998   N     0.99145   0.87636   0.79861   0.00000  Uiso   1.00
O999   O     0.79642   0.91286   0.75298   0.00000  Uiso   1.00
O1000  O     0.87025   0.75381   0.74701   0.00000  Uiso   1.00
O1001  O     0.89280   0.90387   0.74518   0.00000  Uiso   1.00
O1002  O     0.77387   0.76279   0.75481   0.00000  Uiso   1.00
O1003  O     0.78514   0.83784   0.81997   0.00000  Uiso   1.00
O1004  O     0.88153   0.82883   0.68002   0.00000  Uiso   1.00
O1005  O     0.88152   0.82885   0.81217   0.00000  Uiso   1.00
O1006  O     0.78515   0.83781   0.68782   0.00000  Uiso   1.00
Zn1007 Zn    0.76898   0.83933   0.75521   0.00000  Uiso   1.00
Zn1008 Zn    0.89769   0.82734   0.74479   0.00000  Uiso   1.00
loop_
_geom_bond_atom_site_label_1
_geom_bond_atom_site_label_2
_geom_bond_distance
_geom_bond_site_symmetry_2
_ccdc_geom_bond_type
C1     O47     1.294   .     A
C1     C20     1.403   .     S
C1     O49     1.297   .     A
C2     H35     1.085   .     S
C2     C4      1.397   .     A
C2     C13     1.383   .     A
C3     C24     1.397   .     A
C3     C23     1.434   .     S
C3     C5      1.397   .     A
C4     C22     1.434   .     S
C4     C6      1.397   .     A
C5     C7      1.383   .     A
C5     H36     1.085   .     S
C6     H37     1.085   .     S
C6     C8      1.383   .     A
C7     C9      1.411   .     A
C7     C14     1.400   .     A
C8     C10     1.411   .     A
C8     C15     1.400   .     A
C9     C11     1.412   .     A
C9     C514    1.391   1_554 S
C10    C13     1.412   .     A
C10    C513    1.391   .     S
C11    C19     1.400   .     A
C11    C24     1.383   .     A
C12    O50     1.297   .     A
C12    O48     1.294   .     A
C12    C21     1.403   .     S
C13    C18     1.400   .     A
C14    H38     1.084   .     S
C14    C522    1.389   1_554 S
C15    H39     1.084   .     S
C15    C523    1.389   .     S
C16    H30     1.109   .     S
C16    H29     1.101   .     S
C16    H84     1.111   .     S
C16    N101    1.442   .     S
C17    H33     1.109   .     S
C17    H34     1.101   .     S
C17    H144    1.111   1_455 S
C17    N158    1.442   1_455 S
C18    H40     1.084   .     S
C18    C518    1.389   .     S
C19    H41     1.084   .     S
C19    C519    1.389   1_554 S
C20    C189    1.329   .     S
C20    H210    1.085   .     S
C21    C356    1.329   1_545 S
C21    H362    1.085   1_545 S
C22    O53     1.304   .     A
C22    O51     1.303   .     A
C23    O52     1.303   .     A
C23    O54     1.304   .     A
C24    H25     1.085   .     S
H26    C189    1.085   .     S
H27    N45     1.012   .     S
H28    C128    1.111   1_455 S
H31    N46     1.012   .     S
H32    C73     1.111   .     S
H42    C356    1.085   1_545 S
N43    Zn56    2.051   .     S
N43    N100    1.282   .     S
N43    N101    1.382   .     S
N44    Zn55    2.051   .     S
N44    N155    1.282   1_455 S
N44    N158    1.382   1_455 S
N45    N155    1.382   1_455 S
N45    C128    1.442   1_455 S
N46    C73     1.442   .     S
N46    N100    1.382   .     S
O47    Zn55    1.973   .     S
O48    Zn56    1.973   .     S
O49    Zn56    1.977   .     S
O50    Zn55    1.977   .     S
O51    Zn55    2.012   .     S
O52    Zn56    2.012   .     S
O53    Zn56    2.014   .     S
O54    Zn55    2.014   .     S
C57    O103    1.294   .     A
C57    C76     1.403   .     S
C57    O105    1.297   .     A
C58    H91     1.085   .     S
C58    C60     1.397   .     A
C58    C69     1.383   .     A
C59    C80     1.397   .     A
C59    C79     1.434   .     S
C59    C61     1.397   .     A
C60    C78     1.434   .     S
C60    C62     1.397   .     A
C61    C63     1.383   .     A
C61    H92     1.085   .     S
C62    H93     1.085   .     S
C62    C64     1.383   .     A
C63    C65     1.411   .     A
C63    C70     1.400   .     A
C64    C66     1.411   .     A
C64    C71     1.400   .     A
C65    C67     1.412   .     A
C65    C570    1.391   1_554 S
C66    C69     1.412   .     A
C66    C569    1.391   .     S
C67    C75     1.400   .     A
C67    C80     1.383   .     A
C68    O106    1.297   .     A
C68    O104    1.294   .     A
C68    C77     1.403   .     S
C69    C74     1.400   .     A
C70    H94     1.084   .     S
C70    C578    1.389   1_554 S
C71    H95     1.084   .     S
C71    C579    1.389   .     S
C72    H86     1.109   .     S
C72    H85     1.101   .     S
C72    H140    1.111   .     S
C72    N157    1.442   .     S
C73    H89     1.109   .     S
C73    H90     1.101   .     S
C74    H96     1.084   .     S
C74    C574    1.389   .     S
C75    H97     1.084   .     S
C75    C575    1.389   1_554 S
C76    C245    1.329   .     S
C76    H266    1.085   .     S
C77    C412    1.329   1_545 S
C77    H418    1.085   1_545 S
C78    O109    1.304   .     A
C78    O107    1.303   .     A
C79    O108    1.303   .     A
C79    O110    1.304   .     A
C80    H81     1.085   .     S
H82    C245    1.085   .     S
H83    N101    1.012   .     S
H87    N102    1.012   .     S
H88    C129    1.111   .     S
H98    C412    1.085   1_545 S
N99    Zn112   2.051   .     S
N99    N156    1.282   .     S
N99    N157    1.382   .     S
N100   Zn111   2.051   .     S
N102   C129    1.442   .     S
N102   N156    1.382   .     S
O103   Zn111   1.973   .     S
O104   Zn112   1.973   .     S
O105   Zn112   1.977   .     S
O106   Zn111   1.977   .     S
O107   Zn111   2.012   .     S
O108   Zn112   2.012   .     S
O109   Zn112   2.014   .     S
O110   Zn111   2.014   .     S
C113   O159    1.294   .     A
C113   C132    1.403   .     S
C113   O161    1.297   .     A
C114   H147    1.085   .     S
C114   C116    1.397   .     A
C114   C125    1.383   .     A
C115   C136    1.397   .     A
C115   C135    1.434   .     S
C115   C117    1.397   .     A
C116   C134    1.434   .     S
C116   C118    1.397   .     A
C117   C119    1.383   .     A
C117   H148    1.085   .     S
C118   H149    1.085   .     S
C118   C120    1.383   .     A
C119   C121    1.411   .     A
C119   C126    1.400   .     A
C120   C122    1.411   .     A
C120   C127    1.400   .     A
C121   C123    1.412   .     A
C121   C626    1.391   1_554 S
C122   C125    1.412   .     A
C122   C625    1.391   .     S
C123   C131    1.400   .     A
C123   C136    1.383   .     A
C124   O162    1.297   .     A
C124   O160    1.294   .     A
C124   C133    1.403   .     S
C125   C130    1.400   .     A
C126   H150    1.084   .     S
C126   C634    1.389   1_554 S
C127   H151    1.084   .     S
C127   C635    1.389   .     S
C128   H142    1.109   .     S
C128   H141    1.101   .     S
C128   H28     1.111   1_655 S
C128   N45     1.442   1_655 S
C129   H145    1.109   .     S
C129   H146    1.101   .     S
C130   H152    1.084   .     S
C130   C630    1.389   .     S
C131   H153    1.084   .     S
C131   C631    1.389   1_554 S
C132   C301    1.329   .     S
C132   H322    1.085   .     S
C133   C468    1.329   1_545 S
C133   H474    1.085   1_545 S
C134   O165    1.304   .     A
C134   O163    1.303   .     A
C135   O164    1.303   .     A
C135   O166    1.304   .     A
C136   H137    1.085   .     S
H138   C301    1.085   .     S
H139   N157    1.012   .     S
H143   N158    1.012   .     S
H144   C17     1.111   1_655 S
H154   C468    1.085   1_545 S
N155   Zn168   2.051   .     S
N155   N44     1.282   1_655 S
N155   N45     1.382   1_655 S
N156   Zn167   2.051   .     S
N158   C17     1.442   1_655 S
N158   N44     1.382   1_655 S
O159   Zn167   1.973   .     S
O160   Zn168   1.973   .     S
O161   Zn168   1.977   .     S
O162   Zn167   1.977   .     S
O163   Zn167   2.012   .     S
O164   Zn168   2.012   .     S
O165   Zn168   2.014   .     S
O166   Zn167   2.014   .     S
C169   O215    1.294   .     A
C169   C188    1.403   .     S
C169   O217    1.297   .     A
C170   H203    1.085   .     S
C170   C172    1.397   .     A
C170   C181    1.383   .     A
C171   C192    1.397   .     A
C171   C191    1.434   .     S
C171   C173    1.397   .     A
C172   C190    1.434   .     S
C172   C174    1.397   .     A
C173   C175    1.383   .     A
C173   H204    1.085   .     S
C174   H205    1.085   .     S
C174   C176    1.383   .     A
C175   C177    1.411   .     A
C175   C182    1.400   .     A
C176   C178    1.411   .     A
C176   C183    1.400   .     A
C177   C179    1.412   .     A
C177   C682    1.391   1_554 S
C178   C181    1.412   .     A
C178   C681    1.391   .     S
C179   C187    1.400   .     A
C179   C192    1.383   .     A
C180   O218    1.297   .     A
C180   O216    1.294   .     A
C180   C189    1.403   .     S
C181   C186    1.400   .     A
C182   H206    1.084   .     S
C182   C690    1.389   1_554 S
C183   H207    1.084   .     S
C183   C691    1.389   .     S
C184   H198    1.109   .     S
C184   H197    1.101   .     S
C184   H252    1.111   .     S
C184   N269    1.442   .     S
C185   H201    1.109   .     S
C185   H202    1.101   .     S
C185   H312    1.111   1_455 S
C185   N326    1.442   1_455 S
C186   H208    1.084   .     S
C186   C686    1.389   .     S
C187   H209    1.084   .     S
C187   C687    1.389   1_554 S
C188   C357    1.329   .     S
C188   H378    1.085   .     S
C190   O221    1.304   .     A
C190   O219    1.303   .     A
C191   O220    1.303   .     A
C191   O222    1.304   .     A
C192   H193    1.085   .     S
H194   C357    1.085   .     S
H195   N213    1.012   .     S
H196   C296    1.111   1_455 S
H199   N214    1.012   .     S
H200   C241    1.111   .     S
N211   Zn224   2.051   .     S
N211   N268    1.282   .     S
N211   N269    1.382   .     S
N212   Zn223   2.051   .     S
N212   N323    1.282   1_455 S
N212   N326    1.382   1_455 S
N213   N323    1.382   1_455 S
N213   C296    1.442   1_455 S
N214   C241    1.442   .     S
N214   N268    1.382   .     S
O215   Zn223   1.973   .     S
O216   Zn224   1.973   .     S
O217   Zn224   1.977   .     S
O218   Zn223   1.977   .     S
O219   Zn223   2.012   .     S
O220   Zn224   2.012   .     S
O221   Zn224   2.014   .     S
O222   Zn223   2.014   .     S
C225   O271    1.294   .     A
C225   C244    1.403   .     S
C225   O273    1.297   .     A
C226   H259    1.085   .     S
C226   C228    1.397   .     A
C226   C237    1.383   .     A
C227   C248    1.397   .     A
C227   C247    1.434   .     S
C227   C229    1.397   .     A
C228   C246    1.434   .     S
C228   C230    1.397   .     A
C229   C231    1.383   .     A
C229   H260    1.085   .     S
C230   H261    1.085   .     S
C230   C232    1.383   .     A
C231   C233    1.411   .     A
C231   C238    1.400   .     A
C232   C234    1.411   .     A
C232   C239    1.400   .     A
C233   C235    1.412   .     A
C233   C738    1.391   1_554 S
C234   C237    1.412   .     A
C234   C737    1.391   .     S
C235   C243    1.400   .     A
C235   C248    1.383   .     A
C236   O274    1.297   .     A
C236   O272    1.294   .     A
C236   C245    1.403   .     S
C237   C242    1.400   .     A
C238   H262    1.084   .     S
C238   C746    1.389   1_554 S
C239   H263    1.084   .     S
C239   C747    1.389   .     S
C240   H254    1.109   .     S
C240   H253    1.101   .     S
C240   H308    1.111   .     S
C240   N325    1.442   .     S
C241   H257    1.109   .     S
C241   H258    1.101   .     S
C242   H264    1.084   .     S
C242   C742    1.389   .     S
C243   H265    1.084   .     S
C243   C743    1.389   1_554 S
C244   C413    1.329   .     S
C244   H434    1.085   .     S
C246   O277    1.304   .     A
C246   O275    1.303   .     A
C247   O276    1.303   .     A
C247   O278    1.304   .     A
C248   H249    1.085   .     S
H250   C413    1.085   .     S
H251   N269    1.012   .     S
H255   N270    1.012   .     S
H256   C297    1.111   .     S
N267   Zn280   2.051   .     S
N267   N324    1.282   .     S
N267   N325    1.382   .     S
N268   Zn279   2.051   .     S
N270   C297    1.442   .     S
N270   N324    1.382   .     S
O271   Zn279   1.973   .     S
O272   Zn280   1.973   .     S
O273   Zn280   1.977   .     S
O274   Zn279   1.977   .     S
O275   Zn279   2.012   .     S
O276   Zn280   2.012   .     S
O277   Zn280   2.014   .     S
O278   Zn279   2.014   .     S
C281   O327    1.294   .     A
C281   C300    1.403   .     S
C281   O329    1.297   .     A
C282   H315    1.085   .     S
C282   C284    1.397   .     A
C282   C293    1.383   .     A
C283   C304    1.397   .     A
C283   C303    1.434   .     S
C283   C285    1.397   .     A
C284   C302    1.434   .     S
C284   C286    1.397   .     A
C285   C287    1.383   .     A
C285   H316    1.085   .     S
C286   H317    1.085   .     S
C286   C288    1.383   .     A
C287   C289    1.411   .     A
C287   C294    1.400   .     A
C288   C290    1.411   .     A
C288   C295    1.400   .     A
C289   C291    1.412   .     A
C289   C794    1.391   1_554 S
C290   C293    1.412   .     A
C290   C793    1.391   .     S
C291   C299    1.400   .     A
C291   C304    1.383   .     A
C292   O330    1.297   .     A
C292   O328    1.294   .     A
C292   C301    1.403   .     S
C293   C298    1.400   .     A
C294   H318    1.084   .     S
C294   C802    1.389   1_554 S
C295   H319    1.084   .     S
C295   C803    1.389   .     S
C296   H310    1.109   .     S
C296   H309    1.101   .     S
C296   H196    1.111   1_655 S
C296   N213    1.442   1_655 S
C297   H313    1.109   .     S
C297   H314    1.101   .     S
C298   H320    1.084   .     S
C298   C798    1.389   .     S
C299   H321    1.084   .     S
C299   C799    1.389   1_554 S
C300   C469    1.329   .     S
C300   H490    1.085   .     S
C302   O333    1.304   .     A
C302   O331    1.303   .     A
C303   O332    1.303   .     A
C303   O334    1.304   .     A
C304   H305    1.085   .     S
H306   C469    1.085   .     S
H307   N325    1.012   .     S
H311   N326    1.012   .     S
H312   C185    1.111   1_655 S
N323   Zn336   2.051   .     S
N323   N212    1.282   1_655 S
N323   N213    1.382   1_655 S
N324   Zn335   2.051   .     S
N326   C185    1.442   1_655 S
N326   N212    1.382   1_655 S
O327   Zn335   1.973   .     S
O328   Zn336   1.973   .     S
O329   Zn336   1.977   .     S
O330   Zn335   1.977   .     S
O331   Zn335   2.012   .     S
O332   Zn336   2.012   .     S
O333   Zn336   2.014   .     S
O334   Zn335   2.014   .     S
C337   O383    1.294   .     A
C337   C356    1.403   .     S
C337   O385    1.297   .     A
C338   H371    1.085   .     S
C338   C340    1.397   .     A
C338   C349    1.383   .     A
C339   C360    1.397   .     A
C339   C359    1.434   .     S
C339   C341    1.397   .     A
C340   C358    1.434   .     S
C340   C342    1.397   .     A
C341   C343    1.383   .     A
C341   H372    1.085   .     S
C342   H373    1.085   .     S
C342   C344    1.383   .     A
C343   C345    1.411   .     A
C343   C350    1.400   .     A
C344   C346    1.411   .     A
C344   C351    1.400   .     A
C345   C347    1.412   .     A
C345   C850    1.391   1_554 S
C346   C349    1.412   .     A
C346   C849    1.391   .     S
C347   C355    1.400   .     A
C347   C360    1.383   .     A
C348   O386    1.297   .     A
C348   O384    1.294   .     A
C348   C357    1.403   .     S
C349   C354    1.400   .     A
C350   H374    1.084   .     S
C350   C858    1.389   1_554 S
C351   H375    1.084   .     S
C351   C859    1.389   .     S
C352   H366    1.109   .     S
C352   H365    1.101   .     S
C352   H420    1.111   .     S
C352   N437    1.442   .     S
C353   H369    1.109   .     S
C353   H370    1.101   .     S
C353   H480    1.111   1_455 S
C353   N494    1.442   1_455 S
C354   H376    1.084   .     S
C354   C854    1.389   .     S
C355   H377    1.084   .     S
C355   C855    1.389   1_554 S
C356   C21     1.329   1_565 S
C356   H42     1.085   1_565 S
C358   O389    1.304   .     A
C358   O387    1.303   .     A
C359   O388    1.303   .     A
C359   O390    1.304   .     A
C360   H361    1.085   .     S
H362   C21     1.085   1_565 S
H363   N381    1.012   .     S
H364   C464    1.111   1_455 S
H367   N382    1.012   .     S
H368   C409    1.111   .     S
N379   Zn392   2.051   .     S
N379   N436    1.282   .     S
N379   N437    1.382   .     S
N380   Zn391   2.051   .     S
N380   N491    1.282   1_455 S
N380   N494    1.382   1_455 S
N381   N491    1.382   1_455 S
N381   C464    1.442   1_455 S
N382   C409    1.442   .     S
N382   N436    1.382   .     S
O383   Zn391   1.973   .     S
O384   Zn392   1.973   .     S
O385   Zn392   1.977   .     S
O386   Zn391   1.977   .     S
O387   Zn391   2.012   .     S
O388   Zn392   2.012   .     S
O389   Zn392   2.014   .     S
O390   Zn391   2.014   .     S
C393   O439    1.294   .     A
C393   C412    1.403   .     S
C393   O441    1.297   .     A
C394   H427    1.085   .     S
C394   C396    1.397   .     A
C394   C405    1.383   .     A
C395   C416    1.397   .     A
C395   C415    1.434   .     S
C395   C397    1.397   .     A
C396   C414    1.434   .     S
C396   C398    1.397   .     A
C397   C399    1.383   .     A
C397   H428    1.085   .     S
C398   H429    1.085   .     S
C398   C400    1.383   .     A
C399   C401    1.411   .     A
C399   C406    1.400   .     A
C400   C402    1.411   .     A
C400   C407    1.400   .     A
C401   C403    1.412   .     A
C401   C906    1.391   1_554 S
C402   C405    1.412   .     A
C402   C905    1.391   .     S
C403   C411    1.400   .     A
C403   C416    1.383   .     A
C404   O442    1.297   .     A
C404   O440    1.294   .     A
C404   C413    1.403   .     S
C405   C410    1.400   .     A
C406   H430    1.084   .     S
C406   C914    1.389   1_554 S
C407   H431    1.084   .     S
C407   C915    1.389   .     S
C408   H422    1.109   .     S
C408   H421    1.101   .     S
C408   H476    1.111   .     S
C408   N493    1.442   .     S
C409   H425    1.109   .     S
C409   H426    1.101   .     S
C410   H432    1.084   .     S
C410   C910    1.389   .     S
C411   H433    1.084   .     S
C411   C911    1.389   1_554 S
C412   C77     1.329   1_565 S
C412   H98     1.085   1_565 S
C414   O445    1.304   .     A
C414   O443    1.303   .     A
C415   O444    1.303   .     A
C415   O446    1.304   .     A
C416   H417    1.085   .     S
H418   C77     1.085   1_565 S
H419   N437    1.012   .     S
H423   N438    1.012   .     S
H424   C465    1.111   .     S
N435   Zn448   2.051   .     S
N435   N492    1.282   .     S
N435   N493    1.382   .     S
N436   Zn447   2.051   .     S
N438   C465    1.442   .     S
N438   N492    1.382   .     S
O439   Zn447   1.973   .     S
O440   Zn448   1.973   .     S
O441   Zn448   1.977   .     S
O442   Zn447   1.977   .     S
O443   Zn447   2.012   .     S
O444   Zn448   2.012   .     S
O445   Zn448   2.014   .     S
O446   Zn447   2.014   .     S
C449   O495    1.294   .     A
C449   C468    1.403   .     S
C449   O497    1.297   .     A
C450   H483    1.085   .     S
C450   C452    1.397   .     A
C450   C461    1.383   .     A
C451   C472    1.397   .     A
C451   C471    1.434   .     S
C451   C453    1.397   .     A
C452   C470    1.434   .     S
C452   C454    1.397   .     A
C453   C455    1.383   .     A
C453   H484    1.085   .     S
C454   H485    1.085   .     S
C454   C456    1.383   .     A
C455   C457    1.411   .     A
C455   C462    1.400   .     A
C456   C458    1.411   .     A
C456   C463    1.400   .     A
C457   C459    1.412   .     A
C457   C962    1.391   1_554 S
C458   C461    1.412   .     A
C458   C961    1.391   .     S
C459   C467    1.400   .     A
C459   C472    1.383   .     A
C460   O498    1.297   .     A
C460   O496    1.294   .     A
C460   C469    1.403   .     S
C461   C466    1.400   .     A
C462   H486    1.084   .     S
C462   C970    1.389   1_554 S
C463   H487    1.084   .     S
C463   C971    1.389   .     S
C464   H478    1.109   .     S
C464   H477    1.101   .     S
C464   H364    1.111   1_655 S
C464   N381    1.442   1_655 S
C465   H481    1.109   .     S
C465   H482    1.101   .     S
C466   H488    1.084   .     S
C466   C966    1.389   .     S
C467   H489    1.084   .     S
C467   C967    1.389   1_554 S
C468   C133    1.329   1_565 S
C468   H154    1.085   1_565 S
C470   O501    1.304   .     A
C470   O499    1.303   .     A
C471   O500    1.303   .     A
C471   O502    1.304   .     A
C472   H473    1.085   .     S
H474   C133    1.085   1_565 S
H475   N493    1.012   .     S
H479   N494    1.012   .     S
H480   C353    1.111   1_655 S
N491   Zn504   2.051   .     S
N491   N380    1.282   1_655 S
N491   N381    1.382   1_655 S
N492   Zn503   2.051   .     S
N494   C353    1.442   1_655 S
N494   N380    1.382   1_655 S
O495   Zn503   1.973   .     S
O496   Zn504   1.973   .     S
O497   Zn504   1.977   .     S
O498   Zn503   1.977   .     S
O499   Zn503   2.012   .     S
O500   Zn504   2.012   .     S
O501   Zn504   2.014   .     S
O502   Zn503   2.014   .     S
C505   O551    1.294   .     A
C505   C524    1.403   .     S
C505   O553    1.297   .     A
C506   H539    1.085   .     S
C506   C508    1.397   .     A
C506   C517    1.383   .     A
C507   C528    1.397   .     A
C507   C527    1.434   .     S
C507   C509    1.397   .     A
C508   C526    1.434   .     S
C508   C510    1.397   .     A
C509   C511    1.383   .     A
C509   H540    1.085   .     S
C510   H541    1.085   .     S
C510   C512    1.383   .     A
C511   C513    1.411   .     A
C511   C518    1.400   .     A
C512   C514    1.411   .     A
C512   C519    1.400   .     A
C513   C515    1.412   .     A
C514   C517    1.412   .     A
C514   C9      1.391   1_556 S
C515   C523    1.400   .     A
C515   C528    1.383   .     A
C516   O554    1.297   .     A
C516   O552    1.294   .     A
C516   C525    1.403   .     S
C517   C522    1.400   .     A
C518   H542    1.084   .     S
C519   H543    1.084   .     S
C519   C19     1.389   1_556 S
C520   H534    1.109   .     S
C520   H533    1.101   .     S
C520   H588    1.111   .     S
C520   N605    1.442   .     S
C521   H537    1.109   .     S
C521   H538    1.101   .     S
C521   H648    1.111   1_455 S
C521   N662    1.442   1_455 S
C522   H544    1.084   .     S
C522   C14     1.389   1_556 S
C523   H545    1.084   .     S
C524   C693    1.329   .     S
C524   H714    1.085   .     S
C525   C860    1.329   1_545 S
C525   H866    1.085   1_545 S
C526   O557    1.304   .     A
C526   O555    1.303   .     A
C527   O556    1.303   .     A
C527   O558    1.304   .     A
C528   H529    1.085   .     S
H530   C693    1.085   .     S
H531   N549    1.012   .     S
H532   C632    1.111   1_455 S
H535   N550    1.012   .     S
H536   C577    1.111   .     S
H546   C860    1.085   1_545 S
N547   Zn560   2.051   .     S
N547   N604    1.282   .     S
N547   N605    1.382   .     S
N548   Zn559   2.051   .     S
N548   N659    1.282   1_455 S
N548   N662    1.382   1_455 S
N549   N659    1.382   1_455 S
N549   C632    1.442   1_455 S
N550   C577    1.442   .     S
N550   N604    1.382   .     S
O551   Zn559   1.973   .     S
O552   Zn560   1.973   .     S
O553   Zn560   1.977   .     S
O554   Zn559   1.977   .     S
O555   Zn559   2.012   .     S
O556   Zn560   2.012   .     S
O557   Zn560   2.014   .     S
O558   Zn559   2.014   .     S
C561   O607    1.294   .     A
C561   C580    1.403   .     S
C561   O609    1.297   .     A
C562   H595    1.085   .     S
C562   C564    1.397   .     A
C562   C573    1.383   .     A
C563   C584    1.397   .     A
C563   C583    1.434   .     S
C563   C565    1.397   .     A
C564   C582    1.434   .     S
C564   C566    1.397   .     A
C565   C567    1.383   .     A
C565   H596    1.085   .     S
C566   H597    1.085   .     S
C566   C568    1.383   .     A
C567   C569    1.411   .     A
C567   C574    1.400   .     A
C568   C570    1.411   .     A
C568   C575    1.400   .     A
C569   C571    1.412   .     A
C570   C573    1.412   .     A
C570   C65     1.391   1_556 S
C571   C579    1.400   .     A
C571   C584    1.383   .     A
C572   O610    1.297   .     A
C572   O608    1.294   .     A
C572   C581    1.403   .     S
C573   C578    1.400   .     A
C574   H598    1.084   .     S
C575   H599    1.084   .     S
C575   C75     1.389   1_556 S
C576   H590    1.109   .     S
C576   H589    1.101   .     S
C576   H644    1.111   .     S
C576   N661    1.442   .     S
C577   H593    1.109   .     S
C577   H594    1.101   .     S
C578   H600    1.084   .     S
C578   C70     1.389   1_556 S
C579   H601    1.084   .     S
C580   C749    1.329   .     S
C580   H770    1.085   .     S
C581   C916    1.329   1_545 S
C581   H922    1.085   1_545 S
C582   O613    1.304   .     A
C582   O611    1.303   .     A
C583   O612    1.303   .     A
C583   O614    1.304   .     A
C584   H585    1.085   .     S
H586   C749    1.085   .     S
H587   N605    1.012   .     S
H591   N606    1.012   .     S
H592   C633    1.111   .     S
H602   C916    1.085   1_545 S
N603   Zn616   2.051   .     S
N603   N660    1.282   .     S
N603   N661    1.382   .     S
N604   Zn615   2.051   .     S
N606   C633    1.442   .     S
N606   N660    1.382   .     S
O607   Zn615   1.973   .     S
O608   Zn616   1.973   .     S
O609   Zn616   1.977   .     S
O610   Zn615   1.977   .     S
O611   Zn615   2.012   .     S
O612   Zn616   2.012   .     S
O613   Zn616   2.014   .     S
O614   Zn615   2.014   .     S
C617   O663    1.294   .     A
C617   C636    1.403   .     S
C617   O665    1.297   .     A
C618   H651    1.085   .     S
C618   C620    1.397   .     A
C618   C629    1.383   .     A
C619   C640    1.397   .     A
C619   C639    1.434   .     S
C619   C621    1.397   .     A
C620   C638    1.434   .     S
C620   C622    1.397   .     A
C621   C623    1.383   .     A
C621   H652    1.085   .     S
C622   H653    1.085   .     S
C622   C624    1.383   .     A
C623   C625    1.411   .     A
C623   C630    1.400   .     A
C624   C626    1.411   .     A
C624   C631    1.400   .     A
C625   C627    1.412   .     A
C626   C629    1.412   .     A
C626   C121    1.391   1_556 S
C627   C635    1.400   .     A
C627   C640    1.383   .     A
C628   O666    1.297   .     A
C628   O664    1.294   .     A
C628   C637    1.403   .     S
C629   C634    1.400   .     A
C630   H654    1.084   .     S
C631   H655    1.084   .     S
C631   C131    1.389   1_556 S
C632   H646    1.109   .     S
C632   H645    1.101   .     S
C632   H532    1.111   1_655 S
C632   N549    1.442   1_655 S
C633   H649    1.109   .     S
C633   H650    1.101   .     S
C634   H656    1.084   .     S
C634   C126    1.389   1_556 S
C635   H657    1.084   .     S
C636   C805    1.329   .     S
C636   H826    1.085   .     S
C637   C972    1.329   1_545 S
C637   H978    1.085   1_545 S
C638   O669    1.304   .     A
C638   O667    1.303   .     A
C639   O668    1.303   .     A
C639   O670    1.304   .     A
C640   H641    1.085   .     S
H642   C805    1.085   .     S
H643   N661    1.012   .     S
H647   N662    1.012   .     S
H648   C521    1.111   1_655 S
H658   C972    1.085   1_545 S
N659   Zn672   2.051   .     S
N659   N548    1.282   1_655 S
N659   N549    1.382   1_655 S
N660   Zn671   2.051   .     S
N662   C521    1.442   1_655 S
N662   N548    1.382   1_655 S
O663   Zn671   1.973   .     S
O664   Zn672   1.973   .     S
O665   Zn672   1.977   .     S
O666   Zn671   1.977   .     S
O667   Zn671   2.012   .     S
O668   Zn672   2.012   .     S
O669   Zn672   2.014   .     S
O670   Zn671   2.014   .     S
C673   O719    1.294   .     A
C673   C692    1.403   .     S
C673   O721    1.297   .     A
C674   H707    1.085   .     S
C674   C676    1.397   .     A
C674   C685    1.383   .     A
C675   C696    1.397   .     A
C675   C695    1.434   .     S
C675   C677    1.397   .     A
C676   C694    1.434   .     S
C676   C678    1.397   .     A
C677   C679    1.383   .     A
C677   H708    1.085   .     S
C678   H709    1.085   .     S
C678   C680    1.383   .     A
C679   C681    1.411   .     A
C679   C686    1.400   .     A
C680   C682    1.411   .     A
C680   C687    1.400   .     A
C681   C683    1.412   .     A
C682   C685    1.412   .     A
C682   C177    1.391   1_556 S
C683   C691    1.400   .     A
C683   C696    1.383   .     A
C684   O722    1.297   .     A
C684   O720    1.294   .     A
C684   C693    1.403   .     S
C685   C690    1.400   .     A
C686   H710    1.084   .     S
C687   H711    1.084   .     S
C687   C187    1.389   1_556 S
C688   H702    1.109   .     S
C688   H701    1.101   .     S
C688   H756    1.111   .     S
C688   N773    1.442   .     S
C689   H705    1.109   .     S
C689   H706    1.101   .     S
C689   H816    1.111   1_455 S
C689   N830    1.442   1_455 S
C690   H712    1.084   .     S
C690   C182    1.389   1_556 S
C691   H713    1.084   .     S
C692   C861    1.329   .     S
C692   H882    1.085   .     S
C694   O725    1.304   .     A
C694   O723    1.303   .     A
C695   O724    1.303   .     A
C695   O726    1.304   .     A
C696   H697    1.085   .     S
H698   C861    1.085   .     S
H699   N717    1.012   .     S
H700   C800    1.111   1_455 S
H703   N718    1.012   .     S
H704   C745    1.111   .     S
N715   Zn728   2.051   .     S
N715   N772    1.282   .     S
N715   N773    1.382   .     S
N716   Zn727   2.051   .     S
N716   N827    1.282   1_455 S
N716   N830    1.382   1_455 S
N717   N827    1.382   1_455 S
N717   C800    1.442   1_455 S
N718   C745    1.442   .     S
N718   N772    1.382   .     S
O719   Zn727   1.973   .     S
O720   Zn728   1.973   .     S
O721   Zn728   1.977   .     S
O722   Zn727   1.977   .     S
O723   Zn727   2.012   .     S
O724   Zn728   2.012   .     S
O725   Zn728   2.014   .     S
O726   Zn727   2.014   .     S
C729   O775    1.294   .     A
C729   C748    1.403   .     S
C729   O777    1.297   .     A
C730   H763    1.085   .     S
C730   C732    1.397   .     A
C730   C741    1.383   .     A
C731   C752    1.397   .     A
C731   C751    1.434   .     S
C731   C733    1.397   .     A
C732   C750    1.434   .     S
C732   C734    1.397   .     A
C733   C735    1.383   .     A
C733   H764    1.085   .     S
C734   H765    1.085   .     S
C734   C736    1.383   .     A
C735   C737    1.411   .     A
C735   C742    1.400   .     A
C736   C738    1.411   .     A
C736   C743    1.400   .     A
C737   C739    1.412   .     A
C738   C741    1.412   .     A
C738   C233    1.391   1_556 S
C739   C747    1.400   .     A
C739   C752    1.383   .     A
C740   O778    1.297   .     A
C740   O776    1.294   .     A
C740   C749    1.403   .     S
C741   C746    1.400   .     A
C742   H766    1.084   .     S
C743   H767    1.084   .     S
C743   C243    1.389   1_556 S
C744   H758    1.109   .     S
C744   H757    1.101   .     S
C744   H812    1.111   .     S
C744   N829    1.442   .     S
C745   H761    1.109   .     S
C745   H762    1.101   .     S
C746   H768    1.084   .     S
C746   C238    1.389   1_556 S
C747   H769    1.084   .     S
C748   C917    1.329   .     S
C748   H938    1.085   .     S
C750   O781    1.304   .     A
C750   O779    1.303   .     A
C751   O780    1.303   .     A
C751   O782    1.304   .     A
C752   H753    1.085   .     S
H754   C917    1.085   .     S
H755   N773    1.012   .     S
H759   N774    1.012   .     S
H760   C801    1.111   .     S
N771   Zn784   2.051   .     S
N771   N828    1.282   .     S
N771   N829    1.382   .     S
N772   Zn783   2.051   .     S
N774   C801    1.442   .     S
N774   N828    1.382   .     S
O775   Zn783   1.973   .     S
O776   Zn784   1.973   .     S
O777   Zn784   1.977   .     S
O778   Zn783   1.977   .     S
O779   Zn783   2.012   .     S
O780   Zn784   2.012   .     S
O781   Zn784   2.014   .     S
O782   Zn783   2.014   .     S
C785   O831    1.294   .     A
C785   C804    1.403   .     S
C785   O833    1.297   .     A
C786   H819    1.085   .     S
C786   C788    1.397   .     A
C786   C797    1.383   .     A
C787   C808    1.397   .     A
C787   C807    1.434   .     S
C787   C789    1.397   .     A
C788   C806    1.434   .     S
C788   C790    1.397   .     A
C789   C791    1.383   .     A
C789   H820    1.085   .     S
C790   H821    1.085   .     S
C790   C792    1.383   .     A
C791   C793    1.411   .     A
C791   C798    1.400   .     A
C792   C794    1.411   .     A
C792   C799    1.400   .     A
C793   C795    1.412   .     A
C794   C797    1.412   .     A
C794   C289    1.391   1_556 S
C795   C803    1.400   .     A
C795   C808    1.383   .     A
C796   O834    1.297   .     A
C796   O832    1.294   .     A
C796   C805    1.403   .     S
C797   C802    1.400   .     A
C798   H822    1.084   .     S
C799   H823    1.084   .     S
C799   C299    1.389   1_556 S
C800   H814    1.109   .     S
C800   H813    1.101   .     S
C800   H700    1.111   1_655 S
C800   N717    1.442   1_655 S
C801   H817    1.109   .     S
C801   H818    1.101   .     S
C802   H824    1.084   .     S
C802   C294    1.389   1_556 S
C803   H825    1.084   .     S
C804   C973    1.329   .     S
C804   H994    1.085   .     S
C806   O837    1.304   .     A
C806   O835    1.303   .     A
C807   O836    1.303   .     A
C807   O838    1.304   .     A
C808   H809    1.085   .     S
H810   C973    1.085   .     S
H811   N829    1.012   .     S
H815   N830    1.012   .     S
H816   C689    1.111   1_655 S
N827   Zn840   2.051   .     S
N827   N716    1.282   1_655 S
N827   N717    1.382   1_655 S
N828   Zn839   2.051   .     S
N830   C689    1.442   1_655 S
N830   N716    1.382   1_655 S
O831   Zn839   1.973   .     S
O832   Zn840   1.973   .     S
O833   Zn840   1.977   .     S
O834   Zn839   1.977   .     S
O835   Zn839   2.012   .     S
O836   Zn840   2.012   .     S
O837   Zn840   2.014   .     S
O838   Zn839   2.014   .     S
C841   O887    1.294   .     A
C841   C860    1.403   .     S
C841   O889    1.297   .     A
C842   H875    1.085   .     S
C842   C844    1.397   .     A
C842   C853    1.383   .     A
C843   C864    1.397   .     A
C843   C863    1.434   .     S
C843   C845    1.397   .     A
C844   C862    1.434   .     S
C844   C846    1.397   .     A
C845   C847    1.383   .     A
C845   H876    1.085   .     S
C846   H877    1.085   .     S
C846   C848    1.383   .     A
C847   C849    1.411   .     A
C847   C854    1.400   .     A
C848   C850    1.411   .     A
C848   C855    1.400   .     A
C849   C851    1.412   .     A
C850   C853    1.412   .     A
C850   C345    1.391   1_556 S
C851   C859    1.400   .     A
C851   C864    1.383   .     A
C852   O890    1.297   .     A
C852   O888    1.294   .     A
C852   C861    1.403   .     S
C853   C858    1.400   .     A
C854   H878    1.084   .     S
C855   H879    1.084   .     S
C855   C355    1.389   1_556 S
C856   H870    1.109   .     S
C856   H869    1.101   .     S
C856   H924    1.111   .     S
C856   N941    1.442   .     S
C857   H873    1.109   .     S
C857   H874    1.101   .     S
C857   H984    1.111   1_455 S
C857   N998    1.442   1_455 S
C858   H880    1.084   .     S
C858   C350    1.389   1_556 S
C859   H881    1.084   .     S
C860   C525    1.329   1_565 S
C860   H546    1.085   1_565 S
C862   O893    1.304   .     A
C862   O891    1.303   .     A
C863   O892    1.303   .     A
C863   O894    1.304   .     A
C864   H865    1.085   .     S
H866   C525    1.085   1_565 S
H867   N885    1.012   .     S
H868   C968    1.111   1_455 S
H871   N886    1.012   .     S
H872   C913    1.111   .     S
N883   Zn896   2.051   .     S
N883   N940    1.282   .     S
N883   N941    1.382   .     S
N884   Zn895   2.051   .     S
N884   N995    1.282   1_455 S
N884   N998    1.382   1_455 S
N885   N995    1.382   1_455 S
N885   C968    1.442   1_455 S
N886   C913    1.442   .     S
N886   N940    1.382   .     S
O887   Zn895   1.973   .     S
O888   Zn896   1.973   .     S
O889   Zn896   1.977   .     S
O890   Zn895   1.977   .     S
O891   Zn895   2.012   .     S
O892   Zn896   2.012   .     S
O893   Zn896   2.014   .     S
O894   Zn895   2.014   .     S
C897   O943    1.294   .     A
C897   C916    1.403   .     S
C897   O945    1.297   .     A
C898   H931    1.085   .     S
C898   C900    1.397   .     A
C898   C909    1.383   .     A
C899   C920    1.397   .     A
C899   C919    1.434   .     S
C899   C901    1.397   .     A
C900   C918    1.434   .     S
C900   C902    1.397   .     A
C901   C903    1.383   .     A
C901   H932    1.085   .     S
C902   H933    1.085   .     S
C902   C904    1.383   .     A
C903   C905    1.411   .     A
C903   C910    1.400   .     A
C904   C906    1.411   .     A
C904   C911    1.400   .     A
C905   C907    1.412   .     A
C906   C909    1.412   .     A
C906   C401    1.391   1_556 S
C907   C915    1.400   .     A
C907   C920    1.383   .     A
C908   O946    1.297   .     A
C908   O944    1.294   .     A
C908   C917    1.403   .     S
C909   C914    1.400   .     A
C910   H934    1.084   .     S
C911   H935    1.084   .     S
C911   C411    1.389   1_556 S
C912   H926    1.109   .     S
C912   H925    1.101   .     S
C912   H980    1.111   .     S
C912   N997    1.442   .     S
C913   H929    1.109   .     S
C913   H930    1.101   .     S
C914   H936    1.084   .     S
C914   C406    1.389   1_556 S
C915   H937    1.084   .     S
C916   C581    1.329   1_565 S
C916   H602    1.085   1_565 S
C918   O949    1.304   .     A
C918   O947    1.303   .     A
C919   O948    1.303   .     A
C919   O950    1.304   .     A
C920   H921    1.085   .     S
H922   C581    1.085   1_565 S
H923   N941    1.012   .     S
H927   N942    1.012   .     S
H928   C969    1.111   .     S
N939   Zn952   2.051   .     S
N939   N996    1.282   .     S
N939   N997    1.382   .     S
N940   Zn951   2.051   .     S
N942   C969    1.442   .     S
N942   N996    1.382   .     S
O943   Zn951   1.973   .     S
O944   Zn952   1.973   .     S
O945   Zn952   1.977   .     S
O946   Zn951   1.977   .     S
O947   Zn951   2.012   .     S
O948   Zn952   2.012   .     S
O949   Zn952   2.014   .     S
O950   Zn951   2.014   .     S
C953   O999    1.294   .     A
C953   C972    1.403   .     S
C953   O1001   1.297   .     A
C954   H987    1.085   .     S
C954   C956    1.397   .     A
C954   C965    1.383   .     A
C955   C976    1.397   .     A
C955   C975    1.434   .     S
C955   C957    1.397   .     A
C956   C974    1.434   .     S
C956   C958    1.397   .     A
C957   C959    1.383   .     A
C957   H988    1.085   .     S
C958   H989    1.085   .     S
C958   C960    1.383   .     A
C959   C961    1.411   .     A
C959   C966    1.400   .     A
C960   C962    1.411   .     A
C960   C967    1.400   .     A
C961   C963    1.412   .     A
C962   C965    1.412   .     A
C962   C457    1.391   1_556 S
C963   C971    1.400   .     A
C963   C976    1.383   .     A
C964   O1002   1.297   .     A
C964   O1000   1.294   .     A
C964   C973    1.403   .     S
C965   C970    1.400   .     A
C966   H990    1.084   .     S
C967   H991    1.084   .     S
C967   C467    1.389   1_556 S
C968   H982    1.109   .     S
C968   H981    1.101   .     S
C968   H868    1.111   1_655 S
C968   N885    1.442   1_655 S
C969   H985    1.109   .     S
C969   H986    1.101   .     S
C970   H992    1.084   .     S
C970   C462    1.389   1_556 S
C971   H993    1.084   .     S
C972   C637    1.329   1_565 S
C972   H658    1.085   1_565 S
C974   O1005   1.304   .     A
C974   O1003   1.303   .     A
C975   O1004   1.303   .     A
C975   O1006   1.304   .     A
C976   H977    1.085   .     S
H978   C637    1.085   1_565 S
H979   N997    1.012   .     S
H983   N998    1.012   .     S
H984   C857    1.111   1_655 S
N995   Zn1008  2.051   .     S
N995   N884    1.282   1_655 S
N995   N885    1.382   1_655 S
N996   Zn1007  2.051   .     S
N998   C857    1.442   1_655 S
N998   N884    1.382   1_655 S
O999   Zn1007  1.973   .     S
O1000  Zn1008  1.973   .     S
O1001  Zn1008  1.977   .     S
O1002  Zn1007  1.977   .     S
O1003  Zn1007  2.012   .     S
O1004  Zn1008  2.012   .     S
O1005  Zn1008  2.014   .     S
O1006  Zn1007  2.014   .     S
