data_str_m2_o1_o18_pcu_sym.15
_audit_creation_date              2020-01-03
_audit_creation_method            'Materials Studio'
_symmetry_space_group_name_H-M    'P1'
_symmetry_Int_Tables_number       1
_symmetry_cell_setting            triclinic
loop_
_symmetry_equiv_pos_as_xyz
  x,y,z
_cell_length_a                    28.5741
_cell_length_b                    32.3973
_cell_length_c                    30.8653
_cell_angle_alpha                 89.7369
_cell_angle_beta                  74.4501
_cell_angle_gamma                 90.2098
loop_
_atom_site_label
_atom_site_type_symbol
_atom_site_fract_x
_atom_site_fract_y
_atom_site_fract_z
_atom_site_U_iso_or_equiv
_atom_site_adp_type
_atom_site_occupancy
Br1    Br    0.19126   0.14671   0.10659   0.00000  Uiso   1.00
Br2    Br    0.14208   0.18665   0.39338   0.00000  Uiso   1.00
Br3    Br    0.27378   0.04635   0.18441   0.00000  Uiso   1.00
Br4    Br    0.05956   0.28698   0.31559   0.00000  Uiso   1.00
C5     C     0.00016   0.08743   0.24897   0.00000  Uiso   1.00
C6     C     0.02608   0.02217   0.27456   0.00000  Uiso   1.00
C7     C     0.33331   0.29050   0.25132   0.00000  Uiso   1.00
C8     C     0.00003   0.04283   0.24868   0.00000  Uiso   1.00
C9     C     0.18316   0.14114   0.27820   0.00000  Uiso   1.00
C10    C     0.15017   0.19219   0.22180   0.00000  Uiso   1.00
C11    C     0.13356   0.14120   0.27824   0.00000  Uiso   1.00
C12    C     0.19977   0.19214   0.22176   0.00000  Uiso   1.00
C13    C     0.30610   0.16726   0.33612   0.00000  Uiso   1.00
C14    C     0.02723   0.16608   0.16388   0.00000  Uiso   1.00
C15    C     0.29103   0.17113   0.38518   0.00000  Uiso   1.00
C16    C     0.33318   0.24590   0.25103   0.00000  Uiso   1.00
C17    C     0.04231   0.16222   0.11482   0.00000  Uiso   1.00
C18    C     0.30619   0.19123   0.45548   0.00000  Uiso   1.00
C19    C     0.02713   0.14216   0.04450   0.00000  Uiso   1.00
C20    C     0.32269   0.18625   0.40905   0.00000  Uiso   1.00
C21    C     0.01064   0.14711   0.09094   0.00000  Uiso   1.00
C22    C     0.24283   0.16218   0.40794   0.00000  Uiso   1.00
C23    C     0.09049   0.17117   0.09206   0.00000  Uiso   1.00
C24    C     0.22401   0.17174   0.45348   0.00000  Uiso   1.00
C25    C     0.10931   0.16163   0.04651   0.00000  Uiso   1.00
C26    C     0.25744   0.18290   0.47797   0.00000  Uiso   1.00
C27    C     0.19634   0.16907   0.04739   0.00000  Uiso   1.00
C28    C     0.07588   0.15049   0.02202   0.00000  Uiso   1.00
C29    C     0.17376   0.16733   0.47596   0.00000  Uiso   1.00
C30    C     0.15956   0.16605   0.02403   0.00000  Uiso   1.00
C31    C     0.13698   0.16431   0.45259   0.00000  Uiso   1.00
C32    C     0.24304   0.18173   0.02467   0.00000  Uiso   1.00
C33    C     0.09027   0.15167   0.47532   0.00000  Uiso   1.00
C34    C     0.30726   0.02057   0.22369   0.00000  Uiso   1.00
C35    C     0.02607   0.31276   0.27631   0.00000  Uiso   1.00
C36    C     0.30725   0.31116   0.22544   0.00000  Uiso   1.00
Cu37   Cu    0.04689   0.16667   0.25000   0.00000  Uiso   1.00
Cu38   Cu    0.28645   0.16666   0.25000   0.00000  Uiso   1.00
H39    H     0.26969   0.18637   0.04343   0.00000  Uiso   1.00
H40    H     0.04563   0.03936   0.29428   0.00000  Uiso   1.00
H41    H     0.19518   0.12069   0.30082   0.00000  Uiso   1.00
H42    H     0.13816   0.21265   0.19918   0.00000  Uiso   1.00
H43    H     0.10822   0.12081   0.30089   0.00000  Uiso   1.00
H44    H     0.22512   0.21252   0.19911   0.00000  Uiso   1.00
H45    H     0.06363   0.14702   0.45655   0.00000  Uiso   1.00
H46    H     0.11239   0.18743   0.10999   0.00000  Uiso   1.00
H47    H     0.22094   0.14591   0.39001   0.00000  Uiso   1.00
H48    H     0.30655   0.13972   0.10797   0.00000  Uiso   1.00
H49    H     0.02678   0.19364   0.39201   0.00000  Uiso   1.00
H50    H     0.33159   0.20107   0.47392   0.00000  Uiso   1.00
H51    H     0.00172   0.13233   0.02606   0.00000  Uiso   1.00
H52    H     0.28771   0.29397   0.20572   0.00000  Uiso   1.00
N53    N     0.11736   0.16668   0.24999   0.00000  Uiso   1.00
N54    N     0.21597   0.16666   0.25001   0.00000  Uiso   1.00
O55    O     0.03958   0.10655   0.25000   0.00000  Uiso   1.00
O56    O     0.29375   0.22678   0.25000   0.00000  Uiso   1.00
O57    O     0.29372   0.10654   0.25001   0.00000  Uiso   1.00
O58    O     0.03961   0.22679   0.25000   0.00000  Uiso   1.00
O59    O     0.01852   0.16668   0.31492   0.00000  Uiso   1.00
O60    O     0.31481   0.16666   0.18509   0.00000  Uiso   1.00
O61    O     0.27267   0.16667   0.31492   0.00000  Uiso   1.00
O62    O     0.06067   0.16667   0.18508   0.00000  Uiso   1.00
Br63   Br    0.52459   0.14671   0.10659   0.00000  Uiso   1.00
Br64   Br    0.47541   0.18665   0.39338   0.00000  Uiso   1.00
Br65   Br    0.60711   0.04635   0.18441   0.00000  Uiso   1.00
Br66   Br    0.39289   0.28698   0.31559   0.00000  Uiso   1.00
C67    C     0.33349   0.08743   0.24897   0.00000  Uiso   1.00
C68    C     0.35942   0.02217   0.27456   0.00000  Uiso   1.00
C69    C     0.66664   0.29050   0.25132   0.00000  Uiso   1.00
C70    C     0.33336   0.04283   0.24868   0.00000  Uiso   1.00
C71    C     0.51650   0.14114   0.27820   0.00000  Uiso   1.00
C72    C     0.48350   0.19219   0.22180   0.00000  Uiso   1.00
C73    C     0.46689   0.14120   0.27824   0.00000  Uiso   1.00
C74    C     0.53311   0.19214   0.22176   0.00000  Uiso   1.00
C75    C     0.63943   0.16726   0.33612   0.00000  Uiso   1.00
C76    C     0.36057   0.16608   0.16388   0.00000  Uiso   1.00
C77    C     0.62436   0.17113   0.38518   0.00000  Uiso   1.00
C78    C     0.66651   0.24590   0.25103   0.00000  Uiso   1.00
C79    C     0.37564   0.16222   0.11482   0.00000  Uiso   1.00
C80    C     0.63953   0.19123   0.45548   0.00000  Uiso   1.00
C81    C     0.36046   0.14216   0.04450   0.00000  Uiso   1.00
C82    C     0.65602   0.18625   0.40905   0.00000  Uiso   1.00
C83    C     0.34397   0.14711   0.09094   0.00000  Uiso   1.00
C84    C     0.57617   0.16218   0.40794   0.00000  Uiso   1.00
C85    C     0.42383   0.17117   0.09206   0.00000  Uiso   1.00
C86    C     0.55734   0.17174   0.45348   0.00000  Uiso   1.00
C87    C     0.44264   0.16163   0.04651   0.00000  Uiso   1.00
C88    C     0.59077   0.18290   0.47797   0.00000  Uiso   1.00
C89    C     0.52968   0.16907   0.04739   0.00000  Uiso   1.00
C90    C     0.40921   0.15049   0.02202   0.00000  Uiso   1.00
C91    C     0.50709   0.16733   0.47596   0.00000  Uiso   1.00
C92    C     0.49289   0.16605   0.02403   0.00000  Uiso   1.00
C93    C     0.47031   0.16431   0.45259   0.00000  Uiso   1.00
C94    C     0.57638   0.18173   0.02467   0.00000  Uiso   1.00
C95    C     0.42361   0.15167   0.47532   0.00000  Uiso   1.00
C96    C     0.64059   0.02057   0.22369   0.00000  Uiso   1.00
C97    C     0.35941   0.31276   0.27631   0.00000  Uiso   1.00
C98    C     0.64058   0.31116   0.22544   0.00000  Uiso   1.00
Cu99   Cu    0.38022   0.16667   0.25000   0.00000  Uiso   1.00
Cu100  Cu    0.61978   0.16666   0.25000   0.00000  Uiso   1.00
H101   H     0.60302   0.18637   0.04343   0.00000  Uiso   1.00
H102   H     0.37896   0.03936   0.29428   0.00000  Uiso   1.00
H103   H     0.52851   0.12069   0.30082   0.00000  Uiso   1.00
H104   H     0.47149   0.21265   0.19918   0.00000  Uiso   1.00
H105   H     0.44155   0.12081   0.30089   0.00000  Uiso   1.00
H106   H     0.55845   0.21252   0.19911   0.00000  Uiso   1.00
H107   H     0.39696   0.14702   0.45655   0.00000  Uiso   1.00
H108   H     0.44572   0.18743   0.10999   0.00000  Uiso   1.00
H109   H     0.55427   0.14591   0.39001   0.00000  Uiso   1.00
H110   H     0.63988   0.13972   0.10797   0.00000  Uiso   1.00
H111   H     0.36011   0.19364   0.39201   0.00000  Uiso   1.00
H112   H     0.66493   0.20107   0.47392   0.00000  Uiso   1.00
H113   H     0.33505   0.13233   0.02606   0.00000  Uiso   1.00
H114   H     0.62104   0.29397   0.20572   0.00000  Uiso   1.00
N115   N     0.45069   0.16668   0.24999   0.00000  Uiso   1.00
N116   N     0.54931   0.16666   0.25001   0.00000  Uiso   1.00
O117   O     0.37291   0.10655   0.25000   0.00000  Uiso   1.00
O118   O     0.62709   0.22678   0.25000   0.00000  Uiso   1.00
O119   O     0.62706   0.10654   0.25001   0.00000  Uiso   1.00
O120   O     0.37294   0.22679   0.25000   0.00000  Uiso   1.00
O121   O     0.35186   0.16668   0.31492   0.00000  Uiso   1.00
O122   O     0.64814   0.16666   0.18509   0.00000  Uiso   1.00
O123   O     0.60600   0.16667   0.31492   0.00000  Uiso   1.00
O124   O     0.39400   0.16667   0.18508   0.00000  Uiso   1.00
Br125  Br    0.85792   0.14671   0.10659   0.00000  Uiso   1.00
Br126  Br    0.80874   0.18665   0.39338   0.00000  Uiso   1.00
Br127  Br    0.94044   0.04635   0.18441   0.00000  Uiso   1.00
Br128  Br    0.72622   0.28698   0.31559   0.00000  Uiso   1.00
C129   C     0.66682   0.08743   0.24897   0.00000  Uiso   1.00
C130   C     0.69275   0.02217   0.27456   0.00000  Uiso   1.00
C131   C     0.99997   0.29050   0.25132   0.00000  Uiso   1.00
C132   C     0.66669   0.04283   0.24868   0.00000  Uiso   1.00
C133   C     0.84983   0.14114   0.27820   0.00000  Uiso   1.00
C134   C     0.81684   0.19219   0.22180   0.00000  Uiso   1.00
C135   C     0.80023   0.14120   0.27824   0.00000  Uiso   1.00
C136   C     0.86644   0.19214   0.22176   0.00000  Uiso   1.00
C137   C     0.97277   0.16726   0.33612   0.00000  Uiso   1.00
C138   C     0.69390   0.16608   0.16388   0.00000  Uiso   1.00
C139   C     0.95769   0.17113   0.38518   0.00000  Uiso   1.00
C140   C     0.99984   0.24590   0.25103   0.00000  Uiso   1.00
C141   C     0.70897   0.16222   0.11482   0.00000  Uiso   1.00
C142   C     0.97286   0.19123   0.45548   0.00000  Uiso   1.00
C143   C     0.69379   0.14216   0.04450   0.00000  Uiso   1.00
C144   C     0.98935   0.18625   0.40905   0.00000  Uiso   1.00
C145   C     0.67730   0.14711   0.09094   0.00000  Uiso   1.00
C146   C     0.90950   0.16218   0.40794   0.00000  Uiso   1.00
C147   C     0.75716   0.17117   0.09206   0.00000  Uiso   1.00
C148   C     0.89068   0.17174   0.45348   0.00000  Uiso   1.00
C149   C     0.77598   0.16163   0.04651   0.00000  Uiso   1.00
C150   C     0.92410   0.18290   0.47797   0.00000  Uiso   1.00
C151   C     0.86301   0.16907   0.04739   0.00000  Uiso   1.00
C152   C     0.74255   0.15049   0.02202   0.00000  Uiso   1.00
C153   C     0.84043   0.16733   0.47596   0.00000  Uiso   1.00
C154   C     0.82623   0.16605   0.02403   0.00000  Uiso   1.00
C155   C     0.80365   0.16431   0.45259   0.00000  Uiso   1.00
C156   C     0.90971   0.18173   0.02467   0.00000  Uiso   1.00
C157   C     0.75694   0.15167   0.47532   0.00000  Uiso   1.00
C158   C     0.97393   0.02057   0.22369   0.00000  Uiso   1.00
C159   C     0.69274   0.31276   0.27631   0.00000  Uiso   1.00
C160   C     0.97392   0.31116   0.22544   0.00000  Uiso   1.00
Cu161  Cu    0.71355   0.16667   0.25000   0.00000  Uiso   1.00
Cu162  Cu    0.95311   0.16666   0.25000   0.00000  Uiso   1.00
H163   H     0.93635   0.18637   0.04343   0.00000  Uiso   1.00
H164   H     0.71229   0.03936   0.29428   0.00000  Uiso   1.00
H165   H     0.86184   0.12069   0.30082   0.00000  Uiso   1.00
H166   H     0.80483   0.21265   0.19918   0.00000  Uiso   1.00
H167   H     0.77488   0.12081   0.30089   0.00000  Uiso   1.00
H168   H     0.89179   0.21252   0.19911   0.00000  Uiso   1.00
H169   H     0.73030   0.14702   0.45655   0.00000  Uiso   1.00
H170   H     0.77905   0.18743   0.10999   0.00000  Uiso   1.00
H171   H     0.88760   0.14591   0.39001   0.00000  Uiso   1.00
H172   H     0.97321   0.13972   0.10797   0.00000  Uiso   1.00
H173   H     0.69344   0.19364   0.39201   0.00000  Uiso   1.00
H174   H     0.99826   0.20107   0.47392   0.00000  Uiso   1.00
H175   H     0.66839   0.13233   0.02606   0.00000  Uiso   1.00
H176   H     0.95437   0.29397   0.20572   0.00000  Uiso   1.00
N177   N     0.78403   0.16668   0.24999   0.00000  Uiso   1.00
N178   N     0.88264   0.16666   0.25001   0.00000  Uiso   1.00
O179   O     0.70625   0.10655   0.25000   0.00000  Uiso   1.00
O180   O     0.96042   0.22678   0.25000   0.00000  Uiso   1.00
O181   O     0.96039   0.10654   0.25001   0.00000  Uiso   1.00
O182   O     0.70628   0.22679   0.25000   0.00000  Uiso   1.00
O183   O     0.68519   0.16668   0.31492   0.00000  Uiso   1.00
O184   O     0.98148   0.16666   0.18509   0.00000  Uiso   1.00
O185   O     0.93933   0.16667   0.31492   0.00000  Uiso   1.00
O186   O     0.72733   0.16667   0.18508   0.00000  Uiso   1.00
Br187  Br    0.19126   0.48004   0.10659   0.00000  Uiso   1.00
Br188  Br    0.14208   0.51999   0.39338   0.00000  Uiso   1.00
Br189  Br    0.27378   0.37969   0.18441   0.00000  Uiso   1.00
Br190  Br    0.05956   0.62031   0.31559   0.00000  Uiso   1.00
C191   C     0.00016   0.42076   0.24897   0.00000  Uiso   1.00
C192   C     0.02608   0.35551   0.27456   0.00000  Uiso   1.00
C193   C     0.33331   0.62384   0.25132   0.00000  Uiso   1.00
C194   C     0.00003   0.37616   0.24868   0.00000  Uiso   1.00
C195   C     0.18316   0.47448   0.27820   0.00000  Uiso   1.00
C196   C     0.15017   0.52552   0.22180   0.00000  Uiso   1.00
C197   C     0.13356   0.47453   0.27824   0.00000  Uiso   1.00
C198   C     0.19977   0.52547   0.22176   0.00000  Uiso   1.00
C199   C     0.30610   0.50059   0.33612   0.00000  Uiso   1.00
C200   C     0.02723   0.49941   0.16388   0.00000  Uiso   1.00
C201   C     0.29103   0.50446   0.38518   0.00000  Uiso   1.00
C202   C     0.33318   0.57924   0.25103   0.00000  Uiso   1.00
C203   C     0.04231   0.49555   0.11482   0.00000  Uiso   1.00
C204   C     0.30619   0.52456   0.45548   0.00000  Uiso   1.00
C205   C     0.02713   0.47549   0.04450   0.00000  Uiso   1.00
C206   C     0.32269   0.51959   0.40905   0.00000  Uiso   1.00
C207   C     0.01064   0.48044   0.09094   0.00000  Uiso   1.00
C208   C     0.24283   0.49551   0.40794   0.00000  Uiso   1.00
C209   C     0.09049   0.50451   0.09206   0.00000  Uiso   1.00
C210   C     0.22401   0.50508   0.45348   0.00000  Uiso   1.00
C211   C     0.10931   0.49496   0.04651   0.00000  Uiso   1.00
C212   C     0.25744   0.51623   0.47797   0.00000  Uiso   1.00
C213   C     0.19634   0.50241   0.04739   0.00000  Uiso   1.00
C214   C     0.07588   0.48382   0.02202   0.00000  Uiso   1.00
C215   C     0.17376   0.50067   0.47596   0.00000  Uiso   1.00
C216   C     0.15956   0.49938   0.02403   0.00000  Uiso   1.00
C217   C     0.13698   0.49764   0.45259   0.00000  Uiso   1.00
C218   C     0.24304   0.51506   0.02467   0.00000  Uiso   1.00
C219   C     0.09027   0.48500   0.47532   0.00000  Uiso   1.00
C220   C     0.30726   0.35391   0.22369   0.00000  Uiso   1.00
C221   C     0.02607   0.64609   0.27631   0.00000  Uiso   1.00
C222   C     0.30725   0.64449   0.22544   0.00000  Uiso   1.00
Cu223  Cu    0.04689   0.50001   0.25000   0.00000  Uiso   1.00
Cu224  Cu    0.28645   0.49999   0.25000   0.00000  Uiso   1.00
H225   H     0.26969   0.51971   0.04343   0.00000  Uiso   1.00
H226   H     0.04563   0.37270   0.29428   0.00000  Uiso   1.00
H227   H     0.19518   0.45402   0.30082   0.00000  Uiso   1.00
H228   H     0.13816   0.54598   0.19918   0.00000  Uiso   1.00
H229   H     0.10822   0.45415   0.30089   0.00000  Uiso   1.00
H230   H     0.22512   0.54585   0.19911   0.00000  Uiso   1.00
H231   H     0.06363   0.48036   0.45655   0.00000  Uiso   1.00
H232   H     0.11239   0.52077   0.10999   0.00000  Uiso   1.00
H233   H     0.22094   0.47924   0.39001   0.00000  Uiso   1.00
H234   H     0.30655   0.47305   0.10797   0.00000  Uiso   1.00
H235   H     0.02678   0.52698   0.39201   0.00000  Uiso   1.00
H236   H     0.33159   0.53441   0.47392   0.00000  Uiso   1.00
H237   H     0.00172   0.46567   0.02606   0.00000  Uiso   1.00
H238   H     0.28771   0.62730   0.20572   0.00000  Uiso   1.00
N239   N     0.11736   0.50001   0.24999   0.00000  Uiso   1.00
N240   N     0.21597   0.49999   0.25001   0.00000  Uiso   1.00
O241   O     0.03958   0.43989   0.25000   0.00000  Uiso   1.00
O242   O     0.29375   0.56011   0.25000   0.00000  Uiso   1.00
O243   O     0.29372   0.43988   0.25001   0.00000  Uiso   1.00
O244   O     0.03961   0.56012   0.25000   0.00000  Uiso   1.00
O245   O     0.01852   0.50001   0.31492   0.00000  Uiso   1.00
O246   O     0.31481   0.49999   0.18509   0.00000  Uiso   1.00
O247   O     0.27267   0.50000   0.31492   0.00000  Uiso   1.00
O248   O     0.06067   0.50000   0.18508   0.00000  Uiso   1.00
Br249  Br    0.52459   0.48004   0.10659   0.00000  Uiso   1.00
Br250  Br    0.47541   0.51999   0.39338   0.00000  Uiso   1.00
Br251  Br    0.60711   0.37969   0.18441   0.00000  Uiso   1.00
Br252  Br    0.39289   0.62031   0.31559   0.00000  Uiso   1.00
C253   C     0.33349   0.42076   0.24897   0.00000  Uiso   1.00
C254   C     0.35942   0.35551   0.27456   0.00000  Uiso   1.00
C255   C     0.66664   0.62384   0.25132   0.00000  Uiso   1.00
C256   C     0.33336   0.37616   0.24868   0.00000  Uiso   1.00
C257   C     0.51650   0.47448   0.27820   0.00000  Uiso   1.00
C258   C     0.48350   0.52552   0.22180   0.00000  Uiso   1.00
C259   C     0.46689   0.47453   0.27824   0.00000  Uiso   1.00
C260   C     0.53311   0.52547   0.22176   0.00000  Uiso   1.00
C261   C     0.63943   0.50059   0.33612   0.00000  Uiso   1.00
C262   C     0.36057   0.49941   0.16388   0.00000  Uiso   1.00
C263   C     0.62436   0.50446   0.38518   0.00000  Uiso   1.00
C264   C     0.66651   0.57924   0.25103   0.00000  Uiso   1.00
C265   C     0.37564   0.49555   0.11482   0.00000  Uiso   1.00
C266   C     0.63953   0.52456   0.45548   0.00000  Uiso   1.00
C267   C     0.36046   0.47549   0.04450   0.00000  Uiso   1.00
C268   C     0.65602   0.51959   0.40905   0.00000  Uiso   1.00
C269   C     0.34397   0.48044   0.09094   0.00000  Uiso   1.00
C270   C     0.57617   0.49551   0.40794   0.00000  Uiso   1.00
C271   C     0.42383   0.50451   0.09206   0.00000  Uiso   1.00
C272   C     0.55734   0.50508   0.45348   0.00000  Uiso   1.00
C273   C     0.44264   0.49496   0.04651   0.00000  Uiso   1.00
C274   C     0.59077   0.51623   0.47797   0.00000  Uiso   1.00
C275   C     0.52968   0.50241   0.04739   0.00000  Uiso   1.00
C276   C     0.40921   0.48382   0.02202   0.00000  Uiso   1.00
C277   C     0.50709   0.50067   0.47596   0.00000  Uiso   1.00
C278   C     0.49289   0.49938   0.02403   0.00000  Uiso   1.00
C279   C     0.47031   0.49764   0.45259   0.00000  Uiso   1.00
C280   C     0.57638   0.51506   0.02467   0.00000  Uiso   1.00
C281   C     0.42361   0.48500   0.47532   0.00000  Uiso   1.00
C282   C     0.64059   0.35391   0.22369   0.00000  Uiso   1.00
C283   C     0.35941   0.64609   0.27631   0.00000  Uiso   1.00
C284   C     0.64058   0.64449   0.22544   0.00000  Uiso   1.00
Cu285  Cu    0.38022   0.50001   0.25000   0.00000  Uiso   1.00
Cu286  Cu    0.61978   0.49999   0.25000   0.00000  Uiso   1.00
H287   H     0.60302   0.51971   0.04343   0.00000  Uiso   1.00
H288   H     0.37896   0.37270   0.29428   0.00000  Uiso   1.00
H289   H     0.52851   0.45402   0.30082   0.00000  Uiso   1.00
H290   H     0.47149   0.54598   0.19918   0.00000  Uiso   1.00
H291   H     0.44155   0.45415   0.30089   0.00000  Uiso   1.00
H292   H     0.55845   0.54585   0.19911   0.00000  Uiso   1.00
H293   H     0.39696   0.48036   0.45655   0.00000  Uiso   1.00
H294   H     0.44572   0.52077   0.10999   0.00000  Uiso   1.00
H295   H     0.55427   0.47924   0.39001   0.00000  Uiso   1.00
H296   H     0.63988   0.47305   0.10797   0.00000  Uiso   1.00
H297   H     0.36011   0.52698   0.39201   0.00000  Uiso   1.00
H298   H     0.66493   0.53441   0.47392   0.00000  Uiso   1.00
H299   H     0.33505   0.46567   0.02606   0.00000  Uiso   1.00
H300   H     0.62104   0.62730   0.20572   0.00000  Uiso   1.00
N301   N     0.45069   0.50001   0.24999   0.00000  Uiso   1.00
N302   N     0.54931   0.49999   0.25001   0.00000  Uiso   1.00
O303   O     0.37291   0.43989   0.25000   0.00000  Uiso   1.00
O304   O     0.62709   0.56011   0.25000   0.00000  Uiso   1.00
O305   O     0.62706   0.43988   0.25001   0.00000  Uiso   1.00
O306   O     0.37294   0.56012   0.25000   0.00000  Uiso   1.00
O307   O     0.35186   0.50001   0.31492   0.00000  Uiso   1.00
O308   O     0.64814   0.49999   0.18509   0.00000  Uiso   1.00
O309   O     0.60600   0.50000   0.31492   0.00000  Uiso   1.00
O310   O     0.39400   0.50000   0.18508   0.00000  Uiso   1.00
Br311  Br    0.85792   0.48004   0.10659   0.00000  Uiso   1.00
Br312  Br    0.80874   0.51999   0.39338   0.00000  Uiso   1.00
Br313  Br    0.94044   0.37969   0.18441   0.00000  Uiso   1.00
Br314  Br    0.72622   0.62031   0.31559   0.00000  Uiso   1.00
C315   C     0.66682   0.42076   0.24897   0.00000  Uiso   1.00
C316   C     0.69275   0.35551   0.27456   0.00000  Uiso   1.00
C317   C     0.99997   0.62384   0.25132   0.00000  Uiso   1.00
C318   C     0.66669   0.37616   0.24868   0.00000  Uiso   1.00
C319   C     0.84983   0.47448   0.27820   0.00000  Uiso   1.00
C320   C     0.81684   0.52552   0.22180   0.00000  Uiso   1.00
C321   C     0.80023   0.47453   0.27824   0.00000  Uiso   1.00
C322   C     0.86644   0.52547   0.22176   0.00000  Uiso   1.00
C323   C     0.97277   0.50059   0.33612   0.00000  Uiso   1.00
C324   C     0.69390   0.49941   0.16388   0.00000  Uiso   1.00
C325   C     0.95769   0.50446   0.38518   0.00000  Uiso   1.00
C326   C     0.99984   0.57924   0.25103   0.00000  Uiso   1.00
C327   C     0.70897   0.49555   0.11482   0.00000  Uiso   1.00
C328   C     0.97286   0.52456   0.45548   0.00000  Uiso   1.00
C329   C     0.69379   0.47549   0.04450   0.00000  Uiso   1.00
C330   C     0.98935   0.51959   0.40905   0.00000  Uiso   1.00
C331   C     0.67730   0.48044   0.09094   0.00000  Uiso   1.00
C332   C     0.90950   0.49551   0.40794   0.00000  Uiso   1.00
C333   C     0.75716   0.50451   0.09206   0.00000  Uiso   1.00
C334   C     0.89068   0.50508   0.45348   0.00000  Uiso   1.00
C335   C     0.77598   0.49496   0.04651   0.00000  Uiso   1.00
C336   C     0.92410   0.51623   0.47797   0.00000  Uiso   1.00
C337   C     0.86301   0.50241   0.04739   0.00000  Uiso   1.00
C338   C     0.74255   0.48382   0.02202   0.00000  Uiso   1.00
C339   C     0.84043   0.50067   0.47596   0.00000  Uiso   1.00
C340   C     0.82623   0.49938   0.02403   0.00000  Uiso   1.00
C341   C     0.80365   0.49764   0.45259   0.00000  Uiso   1.00
C342   C     0.90971   0.51506   0.02467   0.00000  Uiso   1.00
C343   C     0.75694   0.48500   0.47532   0.00000  Uiso   1.00
C344   C     0.97393   0.35391   0.22369   0.00000  Uiso   1.00
C345   C     0.69274   0.64609   0.27631   0.00000  Uiso   1.00
C346   C     0.97392   0.64449   0.22544   0.00000  Uiso   1.00
Cu347  Cu    0.71355   0.50001   0.25000   0.00000  Uiso   1.00
Cu348  Cu    0.95311   0.49999   0.25000   0.00000  Uiso   1.00
H349   H     0.93635   0.51971   0.04343   0.00000  Uiso   1.00
H350   H     0.71229   0.37270   0.29428   0.00000  Uiso   1.00
H351   H     0.86184   0.45402   0.30082   0.00000  Uiso   1.00
H352   H     0.80483   0.54598   0.19918   0.00000  Uiso   1.00
H353   H     0.77488   0.45415   0.30089   0.00000  Uiso   1.00
H354   H     0.89179   0.54585   0.19911   0.00000  Uiso   1.00
H355   H     0.73030   0.48036   0.45655   0.00000  Uiso   1.00
H356   H     0.77905   0.52077   0.10999   0.00000  Uiso   1.00
H357   H     0.88760   0.47924   0.39001   0.00000  Uiso   1.00
H358   H     0.97321   0.47305   0.10797   0.00000  Uiso   1.00
H359   H     0.69344   0.52698   0.39201   0.00000  Uiso   1.00
H360   H     0.99826   0.53441   0.47392   0.00000  Uiso   1.00
H361   H     0.66839   0.46567   0.02606   0.00000  Uiso   1.00
H362   H     0.95437   0.62730   0.20572   0.00000  Uiso   1.00
N363   N     0.78403   0.50001   0.24999   0.00000  Uiso   1.00
N364   N     0.88264   0.49999   0.25001   0.00000  Uiso   1.00
O365   O     0.70625   0.43989   0.25000   0.00000  Uiso   1.00
O366   O     0.96042   0.56011   0.25000   0.00000  Uiso   1.00
O367   O     0.96039   0.43988   0.25001   0.00000  Uiso   1.00
O368   O     0.70628   0.56012   0.25000   0.00000  Uiso   1.00
O369   O     0.68519   0.50001   0.31492   0.00000  Uiso   1.00
O370   O     0.98148   0.49999   0.18509   0.00000  Uiso   1.00
O371   O     0.93933   0.50000   0.31492   0.00000  Uiso   1.00
O372   O     0.72733   0.50000   0.18508   0.00000  Uiso   1.00
Br373  Br    0.19126   0.81337   0.10659   0.00000  Uiso   1.00
Br374  Br    0.14208   0.85332   0.39338   0.00000  Uiso   1.00
Br375  Br    0.27378   0.71302   0.18441   0.00000  Uiso   1.00
Br376  Br    0.05956   0.95365   0.31559   0.00000  Uiso   1.00
C377   C     0.00016   0.75410   0.24897   0.00000  Uiso   1.00
C378   C     0.02608   0.68884   0.27456   0.00000  Uiso   1.00
C379   C     0.33331   0.95717   0.25132   0.00000  Uiso   1.00
C380   C     0.00003   0.70950   0.24868   0.00000  Uiso   1.00
C381   C     0.18316   0.80781   0.27820   0.00000  Uiso   1.00
C382   C     0.15017   0.85886   0.22180   0.00000  Uiso   1.00
C383   C     0.13356   0.80786   0.27824   0.00000  Uiso   1.00
C384   C     0.19977   0.85880   0.22176   0.00000  Uiso   1.00
C385   C     0.30610   0.83392   0.33612   0.00000  Uiso   1.00
C386   C     0.02723   0.83274   0.16388   0.00000  Uiso   1.00
C387   C     0.29103   0.83779   0.38518   0.00000  Uiso   1.00
C388   C     0.33318   0.91257   0.25103   0.00000  Uiso   1.00
C389   C     0.04231   0.82888   0.11482   0.00000  Uiso   1.00
C390   C     0.30619   0.85789   0.45548   0.00000  Uiso   1.00
C391   C     0.02713   0.80883   0.04450   0.00000  Uiso   1.00
C392   C     0.32269   0.85292   0.40905   0.00000  Uiso   1.00
C393   C     0.01064   0.81378   0.09094   0.00000  Uiso   1.00
C394   C     0.24283   0.82884   0.40794   0.00000  Uiso   1.00
C395   C     0.09049   0.83784   0.09206   0.00000  Uiso   1.00
C396   C     0.22401   0.83841   0.45348   0.00000  Uiso   1.00
C397   C     0.10931   0.82829   0.04651   0.00000  Uiso   1.00
C398   C     0.25744   0.84957   0.47797   0.00000  Uiso   1.00
C399   C     0.19634   0.83574   0.04739   0.00000  Uiso   1.00
C400   C     0.07588   0.81715   0.02202   0.00000  Uiso   1.00
C401   C     0.17376   0.83400   0.47596   0.00000  Uiso   1.00
C402   C     0.15956   0.83271   0.02403   0.00000  Uiso   1.00
C403   C     0.13698   0.83097   0.45259   0.00000  Uiso   1.00
C404   C     0.24304   0.84839   0.02467   0.00000  Uiso   1.00
C405   C     0.09027   0.81833   0.47532   0.00000  Uiso   1.00
C406   C     0.30726   0.68724   0.22369   0.00000  Uiso   1.00
C407   C     0.02607   0.97943   0.27631   0.00000  Uiso   1.00
C408   C     0.30725   0.97783   0.22544   0.00000  Uiso   1.00
Cu409  Cu    0.04689   0.83334   0.25000   0.00000  Uiso   1.00
Cu410  Cu    0.28645   0.83333   0.25000   0.00000  Uiso   1.00
H411   H     0.26969   0.85304   0.04343   0.00000  Uiso   1.00
H412   H     0.04563   0.70603   0.29428   0.00000  Uiso   1.00
H413   H     0.19518   0.78735   0.30082   0.00000  Uiso   1.00
H414   H     0.13816   0.87931   0.19918   0.00000  Uiso   1.00
H415   H     0.10822   0.78748   0.30089   0.00000  Uiso   1.00
H416   H     0.22512   0.87918   0.19911   0.00000  Uiso   1.00
H417   H     0.06363   0.81369   0.45655   0.00000  Uiso   1.00
H418   H     0.11239   0.85410   0.10999   0.00000  Uiso   1.00
H419   H     0.22094   0.81257   0.39001   0.00000  Uiso   1.00
H420   H     0.30655   0.80639   0.10797   0.00000  Uiso   1.00
H421   H     0.02678   0.86031   0.39201   0.00000  Uiso   1.00
H422   H     0.33159   0.86774   0.47392   0.00000  Uiso   1.00
H423   H     0.00172   0.79900   0.02606   0.00000  Uiso   1.00
H424   H     0.28771   0.96064   0.20572   0.00000  Uiso   1.00
N425   N     0.11736   0.83334   0.24999   0.00000  Uiso   1.00
N426   N     0.21597   0.83332   0.25001   0.00000  Uiso   1.00
O427   O     0.03958   0.77322   0.25000   0.00000  Uiso   1.00
O428   O     0.29375   0.89345   0.25000   0.00000  Uiso   1.00
O429   O     0.29372   0.77321   0.25001   0.00000  Uiso   1.00
O430   O     0.03961   0.89346   0.25000   0.00000  Uiso   1.00
O431   O     0.01852   0.83334   0.31492   0.00000  Uiso   1.00
O432   O     0.31481   0.83332   0.18509   0.00000  Uiso   1.00
O433   O     0.27267   0.83333   0.31492   0.00000  Uiso   1.00
O434   O     0.06067   0.83333   0.18508   0.00000  Uiso   1.00
Br435  Br    0.52459   0.81337   0.10659   0.00000  Uiso   1.00
Br436  Br    0.47541   0.85332   0.39338   0.00000  Uiso   1.00
Br437  Br    0.60711   0.71302   0.18441   0.00000  Uiso   1.00
Br438  Br    0.39289   0.95365   0.31559   0.00000  Uiso   1.00
C439   C     0.33349   0.75410   0.24897   0.00000  Uiso   1.00
C440   C     0.35942   0.68884   0.27456   0.00000  Uiso   1.00
C441   C     0.66664   0.95717   0.25132   0.00000  Uiso   1.00
C442   C     0.33336   0.70950   0.24868   0.00000  Uiso   1.00
C443   C     0.51650   0.80781   0.27820   0.00000  Uiso   1.00
C444   C     0.48350   0.85886   0.22180   0.00000  Uiso   1.00
C445   C     0.46689   0.80786   0.27824   0.00000  Uiso   1.00
C446   C     0.53311   0.85880   0.22176   0.00000  Uiso   1.00
C447   C     0.63943   0.83392   0.33612   0.00000  Uiso   1.00
C448   C     0.36057   0.83274   0.16388   0.00000  Uiso   1.00
C449   C     0.62436   0.83779   0.38518   0.00000  Uiso   1.00
C450   C     0.66651   0.91257   0.25103   0.00000  Uiso   1.00
C451   C     0.37564   0.82888   0.11482   0.00000  Uiso   1.00
C452   C     0.63953   0.85789   0.45548   0.00000  Uiso   1.00
C453   C     0.36046   0.80883   0.04450   0.00000  Uiso   1.00
C454   C     0.65602   0.85292   0.40905   0.00000  Uiso   1.00
C455   C     0.34397   0.81378   0.09094   0.00000  Uiso   1.00
C456   C     0.57617   0.82884   0.40794   0.00000  Uiso   1.00
C457   C     0.42383   0.83784   0.09206   0.00000  Uiso   1.00
C458   C     0.55734   0.83841   0.45348   0.00000  Uiso   1.00
C459   C     0.44264   0.82829   0.04651   0.00000  Uiso   1.00
C460   C     0.59077   0.84957   0.47797   0.00000  Uiso   1.00
C461   C     0.52968   0.83574   0.04739   0.00000  Uiso   1.00
C462   C     0.40921   0.81715   0.02202   0.00000  Uiso   1.00
C463   C     0.50709   0.83400   0.47596   0.00000  Uiso   1.00
C464   C     0.49289   0.83271   0.02403   0.00000  Uiso   1.00
C465   C     0.47031   0.83097   0.45259   0.00000  Uiso   1.00
C466   C     0.57638   0.84839   0.02467   0.00000  Uiso   1.00
C467   C     0.42361   0.81833   0.47532   0.00000  Uiso   1.00
C468   C     0.64059   0.68724   0.22369   0.00000  Uiso   1.00
C469   C     0.35941   0.97943   0.27631   0.00000  Uiso   1.00
C470   C     0.64058   0.97783   0.22544   0.00000  Uiso   1.00
Cu471  Cu    0.38022   0.83334   0.25000   0.00000  Uiso   1.00
Cu472  Cu    0.61978   0.83333   0.25000   0.00000  Uiso   1.00
H473   H     0.60302   0.85304   0.04343   0.00000  Uiso   1.00
H474   H     0.37896   0.70603   0.29428   0.00000  Uiso   1.00
H475   H     0.52851   0.78735   0.30082   0.00000  Uiso   1.00
H476   H     0.47149   0.87931   0.19918   0.00000  Uiso   1.00
H477   H     0.44155   0.78748   0.30089   0.00000  Uiso   1.00
H478   H     0.55845   0.87918   0.19911   0.00000  Uiso   1.00
H479   H     0.39696   0.81369   0.45655   0.00000  Uiso   1.00
H480   H     0.44572   0.85410   0.10999   0.00000  Uiso   1.00
H481   H     0.55427   0.81257   0.39001   0.00000  Uiso   1.00
H482   H     0.63988   0.80639   0.10797   0.00000  Uiso   1.00
H483   H     0.36011   0.86031   0.39201   0.00000  Uiso   1.00
H484   H     0.66493   0.86774   0.47392   0.00000  Uiso   1.00
H485   H     0.33505   0.79900   0.02606   0.00000  Uiso   1.00
H486   H     0.62104   0.96064   0.20572   0.00000  Uiso   1.00
N487   N     0.45069   0.83334   0.24999   0.00000  Uiso   1.00
N488   N     0.54931   0.83332   0.25001   0.00000  Uiso   1.00
O489   O     0.37291   0.77322   0.25000   0.00000  Uiso   1.00
O490   O     0.62709   0.89345   0.25000   0.00000  Uiso   1.00
O491   O     0.62706   0.77321   0.25001   0.00000  Uiso   1.00
O492   O     0.37294   0.89346   0.25000   0.00000  Uiso   1.00
O493   O     0.35186   0.83334   0.31492   0.00000  Uiso   1.00
O494   O     0.64814   0.83332   0.18509   0.00000  Uiso   1.00
O495   O     0.60600   0.83333   0.31492   0.00000  Uiso   1.00
O496   O     0.39400   0.83333   0.18508   0.00000  Uiso   1.00
Br497  Br    0.85792   0.81337   0.10659   0.00000  Uiso   1.00
Br498  Br    0.80874   0.85332   0.39338   0.00000  Uiso   1.00
Br499  Br    0.94044   0.71302   0.18441   0.00000  Uiso   1.00
Br500  Br    0.72622   0.95365   0.31559   0.00000  Uiso   1.00
C501   C     0.66682   0.75410   0.24897   0.00000  Uiso   1.00
C502   C     0.69275   0.68884   0.27456   0.00000  Uiso   1.00
C503   C     0.99997   0.95717   0.25132   0.00000  Uiso   1.00
C504   C     0.66669   0.70950   0.24868   0.00000  Uiso   1.00
C505   C     0.84983   0.80781   0.27820   0.00000  Uiso   1.00
C506   C     0.81684   0.85886   0.22180   0.00000  Uiso   1.00
C507   C     0.80023   0.80786   0.27824   0.00000  Uiso   1.00
C508   C     0.86644   0.85880   0.22176   0.00000  Uiso   1.00
C509   C     0.97277   0.83392   0.33612   0.00000  Uiso   1.00
C510   C     0.69390   0.83274   0.16388   0.00000  Uiso   1.00
C511   C     0.95769   0.83779   0.38518   0.00000  Uiso   1.00
C512   C     0.99984   0.91257   0.25103   0.00000  Uiso   1.00
C513   C     0.70897   0.82888   0.11482   0.00000  Uiso   1.00
C514   C     0.97286   0.85789   0.45548   0.00000  Uiso   1.00
C515   C     0.69379   0.80883   0.04450   0.00000  Uiso   1.00
C516   C     0.98935   0.85292   0.40905   0.00000  Uiso   1.00
C517   C     0.67730   0.81378   0.09094   0.00000  Uiso   1.00
C518   C     0.90950   0.82884   0.40794   0.00000  Uiso   1.00
C519   C     0.75716   0.83784   0.09206   0.00000  Uiso   1.00
C520   C     0.89068   0.83841   0.45348   0.00000  Uiso   1.00
C521   C     0.77598   0.82829   0.04651   0.00000  Uiso   1.00
C522   C     0.92410   0.84957   0.47797   0.00000  Uiso   1.00
C523   C     0.86301   0.83574   0.04739   0.00000  Uiso   1.00
C524   C     0.74255   0.81715   0.02202   0.00000  Uiso   1.00
C525   C     0.84043   0.83400   0.47596   0.00000  Uiso   1.00
C526   C     0.82623   0.83271   0.02403   0.00000  Uiso   1.00
C527   C     0.80365   0.83097   0.45259   0.00000  Uiso   1.00
C528   C     0.90971   0.84839   0.02467   0.00000  Uiso   1.00
C529   C     0.75694   0.81833   0.47532   0.00000  Uiso   1.00
C530   C     0.97393   0.68724   0.22369   0.00000  Uiso   1.00
C531   C     0.69274   0.97943   0.27631   0.00000  Uiso   1.00
C532   C     0.97392   0.97783   0.22544   0.00000  Uiso   1.00
Cu533  Cu    0.71355   0.83334   0.25000   0.00000  Uiso   1.00
Cu534  Cu    0.95311   0.83333   0.25000   0.00000  Uiso   1.00
H535   H     0.93635   0.85304   0.04343   0.00000  Uiso   1.00
H536   H     0.71229   0.70603   0.29428   0.00000  Uiso   1.00
H537   H     0.86184   0.78735   0.30082   0.00000  Uiso   1.00
H538   H     0.80483   0.87931   0.19918   0.00000  Uiso   1.00
H539   H     0.77488   0.78748   0.30089   0.00000  Uiso   1.00
H540   H     0.89179   0.87918   0.19911   0.00000  Uiso   1.00
H541   H     0.73030   0.81369   0.45655   0.00000  Uiso   1.00
H542   H     0.77905   0.85410   0.10999   0.00000  Uiso   1.00
H543   H     0.88760   0.81257   0.39001   0.00000  Uiso   1.00
H544   H     0.97321   0.80639   0.10797   0.00000  Uiso   1.00
H545   H     0.69344   0.86031   0.39201   0.00000  Uiso   1.00
H546   H     0.99826   0.86774   0.47392   0.00000  Uiso   1.00
H547   H     0.66839   0.79900   0.02606   0.00000  Uiso   1.00
H548   H     0.95437   0.96064   0.20572   0.00000  Uiso   1.00
N549   N     0.78403   0.83334   0.24999   0.00000  Uiso   1.00
N550   N     0.88264   0.83332   0.25001   0.00000  Uiso   1.00
O551   O     0.70625   0.77322   0.25000   0.00000  Uiso   1.00
O552   O     0.96042   0.89345   0.25000   0.00000  Uiso   1.00
O553   O     0.96039   0.77321   0.25001   0.00000  Uiso   1.00
O554   O     0.70628   0.89346   0.25000   0.00000  Uiso   1.00
O555   O     0.68519   0.83334   0.31492   0.00000  Uiso   1.00
O556   O     0.98148   0.83332   0.18509   0.00000  Uiso   1.00
O557   O     0.93933   0.83333   0.31492   0.00000  Uiso   1.00
O558   O     0.72733   0.83333   0.18508   0.00000  Uiso   1.00
Br559  Br    0.19126   0.14671   0.60659   0.00000  Uiso   1.00
Br560  Br    0.14208   0.18665   0.89338   0.00000  Uiso   1.00
Br561  Br    0.27378   0.04635   0.68441   0.00000  Uiso   1.00
Br562  Br    0.05956   0.28698   0.81559   0.00000  Uiso   1.00
C563   C     0.00016   0.08743   0.74897   0.00000  Uiso   1.00
C564   C     0.02608   0.02217   0.77456   0.00000  Uiso   1.00
C565   C     0.33331   0.29050   0.75132   0.00000  Uiso   1.00
C566   C     0.00003   0.04283   0.74868   0.00000  Uiso   1.00
C567   C     0.18316   0.14114   0.77820   0.00000  Uiso   1.00
C568   C     0.15017   0.19219   0.72180   0.00000  Uiso   1.00
C569   C     0.13356   0.14120   0.77824   0.00000  Uiso   1.00
C570   C     0.19977   0.19214   0.72176   0.00000  Uiso   1.00
C571   C     0.30610   0.16726   0.83612   0.00000  Uiso   1.00
C572   C     0.02723   0.16608   0.66388   0.00000  Uiso   1.00
C573   C     0.29103   0.17113   0.88518   0.00000  Uiso   1.00
C574   C     0.33318   0.24590   0.75103   0.00000  Uiso   1.00
C575   C     0.04231   0.16222   0.61482   0.00000  Uiso   1.00
C576   C     0.30619   0.19123   0.95548   0.00000  Uiso   1.00
C577   C     0.02713   0.14216   0.54450   0.00000  Uiso   1.00
C578   C     0.32269   0.18625   0.90905   0.00000  Uiso   1.00
C579   C     0.01064   0.14711   0.59094   0.00000  Uiso   1.00
C580   C     0.24283   0.16218   0.90794   0.00000  Uiso   1.00
C581   C     0.09049   0.17117   0.59206   0.00000  Uiso   1.00
C582   C     0.22401   0.17174   0.95348   0.00000  Uiso   1.00
C583   C     0.10931   0.16163   0.54651   0.00000  Uiso   1.00
C584   C     0.25744   0.18290   0.97797   0.00000  Uiso   1.00
C585   C     0.19634   0.16907   0.54739   0.00000  Uiso   1.00
C586   C     0.07588   0.15049   0.52202   0.00000  Uiso   1.00
C587   C     0.17376   0.16733   0.97596   0.00000  Uiso   1.00
C588   C     0.15956   0.16605   0.52403   0.00000  Uiso   1.00
C589   C     0.13698   0.16431   0.95259   0.00000  Uiso   1.00
C590   C     0.24304   0.18173   0.52467   0.00000  Uiso   1.00
C591   C     0.09027   0.15167   0.97532   0.00000  Uiso   1.00
C592   C     0.30726   0.02057   0.72369   0.00000  Uiso   1.00
C593   C     0.02607   0.31276   0.77631   0.00000  Uiso   1.00
C594   C     0.30725   0.31116   0.72544   0.00000  Uiso   1.00
Cu595  Cu    0.04689   0.16667   0.75000   0.00000  Uiso   1.00
Cu596  Cu    0.28645   0.16666   0.75000   0.00000  Uiso   1.00
H597   H     0.26969   0.18637   0.54343   0.00000  Uiso   1.00
H598   H     0.04563   0.03936   0.79428   0.00000  Uiso   1.00
H599   H     0.19518   0.12069   0.80082   0.00000  Uiso   1.00
H600   H     0.13816   0.21265   0.69918   0.00000  Uiso   1.00
H601   H     0.10822   0.12081   0.80089   0.00000  Uiso   1.00
H602   H     0.22512   0.21252   0.69911   0.00000  Uiso   1.00
H603   H     0.06363   0.14702   0.95655   0.00000  Uiso   1.00
H604   H     0.11239   0.18743   0.60999   0.00000  Uiso   1.00
H605   H     0.22094   0.14591   0.89001   0.00000  Uiso   1.00
H606   H     0.30655   0.13972   0.60797   0.00000  Uiso   1.00
H607   H     0.02678   0.19364   0.89201   0.00000  Uiso   1.00
H608   H     0.33159   0.20107   0.97392   0.00000  Uiso   1.00
H609   H     0.00172   0.13233   0.52606   0.00000  Uiso   1.00
H610   H     0.28771   0.29397   0.70572   0.00000  Uiso   1.00
N611   N     0.11736   0.16668   0.74999   0.00000  Uiso   1.00
N612   N     0.21597   0.16666   0.75001   0.00000  Uiso   1.00
O613   O     0.03958   0.10655   0.75000   0.00000  Uiso   1.00
O614   O     0.29375   0.22678   0.75000   0.00000  Uiso   1.00
O615   O     0.29372   0.10654   0.75001   0.00000  Uiso   1.00
O616   O     0.03961   0.22679   0.75000   0.00000  Uiso   1.00
O617   O     0.01852   0.16668   0.81492   0.00000  Uiso   1.00
O618   O     0.31481   0.16666   0.68509   0.00000  Uiso   1.00
O619   O     0.27267   0.16667   0.81492   0.00000  Uiso   1.00
O620   O     0.06067   0.16667   0.68508   0.00000  Uiso   1.00
Br621  Br    0.52459   0.14671   0.60659   0.00000  Uiso   1.00
Br622  Br    0.47541   0.18665   0.89338   0.00000  Uiso   1.00
Br623  Br    0.60711   0.04635   0.68441   0.00000  Uiso   1.00
Br624  Br    0.39289   0.28698   0.81559   0.00000  Uiso   1.00
C625   C     0.33349   0.08743   0.74897   0.00000  Uiso   1.00
C626   C     0.35942   0.02217   0.77456   0.00000  Uiso   1.00
C627   C     0.66664   0.29050   0.75132   0.00000  Uiso   1.00
C628   C     0.33336   0.04283   0.74868   0.00000  Uiso   1.00
C629   C     0.51650   0.14114   0.77820   0.00000  Uiso   1.00
C630   C     0.48350   0.19219   0.72180   0.00000  Uiso   1.00
C631   C     0.46689   0.14120   0.77824   0.00000  Uiso   1.00
C632   C     0.53311   0.19214   0.72176   0.00000  Uiso   1.00
C633   C     0.63943   0.16726   0.83612   0.00000  Uiso   1.00
C634   C     0.36057   0.16608   0.66388   0.00000  Uiso   1.00
C635   C     0.62436   0.17113   0.88518   0.00000  Uiso   1.00
C636   C     0.66651   0.24590   0.75103   0.00000  Uiso   1.00
C637   C     0.37564   0.16222   0.61482   0.00000  Uiso   1.00
C638   C     0.63953   0.19123   0.95548   0.00000  Uiso   1.00
C639   C     0.36046   0.14216   0.54450   0.00000  Uiso   1.00
C640   C     0.65602   0.18625   0.90905   0.00000  Uiso   1.00
C641   C     0.34397   0.14711   0.59094   0.00000  Uiso   1.00
C642   C     0.57617   0.16218   0.90794   0.00000  Uiso   1.00
C643   C     0.42383   0.17117   0.59206   0.00000  Uiso   1.00
C644   C     0.55734   0.17174   0.95348   0.00000  Uiso   1.00
C645   C     0.44264   0.16163   0.54651   0.00000  Uiso   1.00
C646   C     0.59077   0.18290   0.97797   0.00000  Uiso   1.00
C647   C     0.52968   0.16907   0.54739   0.00000  Uiso   1.00
C648   C     0.40921   0.15049   0.52202   0.00000  Uiso   1.00
C649   C     0.50709   0.16733   0.97596   0.00000  Uiso   1.00
C650   C     0.49289   0.16605   0.52403   0.00000  Uiso   1.00
C651   C     0.47031   0.16431   0.95259   0.00000  Uiso   1.00
C652   C     0.57638   0.18173   0.52467   0.00000  Uiso   1.00
C653   C     0.42361   0.15167   0.97532   0.00000  Uiso   1.00
C654   C     0.64059   0.02057   0.72369   0.00000  Uiso   1.00
C655   C     0.35941   0.31276   0.77631   0.00000  Uiso   1.00
C656   C     0.64058   0.31116   0.72544   0.00000  Uiso   1.00
Cu657  Cu    0.38022   0.16667   0.75000   0.00000  Uiso   1.00
Cu658  Cu    0.61978   0.16666   0.75000   0.00000  Uiso   1.00
H659   H     0.60302   0.18637   0.54343   0.00000  Uiso   1.00
H660   H     0.37896   0.03936   0.79428   0.00000  Uiso   1.00
H661   H     0.52851   0.12069   0.80082   0.00000  Uiso   1.00
H662   H     0.47149   0.21265   0.69918   0.00000  Uiso   1.00
H663   H     0.44155   0.12081   0.80089   0.00000  Uiso   1.00
H664   H     0.55845   0.21252   0.69911   0.00000  Uiso   1.00
H665   H     0.39696   0.14702   0.95655   0.00000  Uiso   1.00
H666   H     0.44572   0.18743   0.60999   0.00000  Uiso   1.00
H667   H     0.55427   0.14591   0.89001   0.00000  Uiso   1.00
H668   H     0.63988   0.13972   0.60797   0.00000  Uiso   1.00
H669   H     0.36011   0.19364   0.89201   0.00000  Uiso   1.00
H670   H     0.66493   0.20107   0.97392   0.00000  Uiso   1.00
H671   H     0.33505   0.13233   0.52606   0.00000  Uiso   1.00
H672   H     0.62104   0.29397   0.70572   0.00000  Uiso   1.00
N673   N     0.45069   0.16668   0.74999   0.00000  Uiso   1.00
N674   N     0.54931   0.16666   0.75001   0.00000  Uiso   1.00
O675   O     0.37291   0.10655   0.75000   0.00000  Uiso   1.00
O676   O     0.62709   0.22678   0.75000   0.00000  Uiso   1.00
O677   O     0.62706   0.10654   0.75001   0.00000  Uiso   1.00
O678   O     0.37294   0.22679   0.75000   0.00000  Uiso   1.00
O679   O     0.35186   0.16668   0.81492   0.00000  Uiso   1.00
O680   O     0.64814   0.16666   0.68509   0.00000  Uiso   1.00
O681   O     0.60600   0.16667   0.81492   0.00000  Uiso   1.00
O682   O     0.39400   0.16667   0.68508   0.00000  Uiso   1.00
Br683  Br    0.85792   0.14671   0.60659   0.00000  Uiso   1.00
Br684  Br    0.80874   0.18665   0.89338   0.00000  Uiso   1.00
Br685  Br    0.94044   0.04635   0.68441   0.00000  Uiso   1.00
Br686  Br    0.72622   0.28698   0.81559   0.00000  Uiso   1.00
C687   C     0.66682   0.08743   0.74897   0.00000  Uiso   1.00
C688   C     0.69275   0.02217   0.77456   0.00000  Uiso   1.00
C689   C     0.99997   0.29050   0.75132   0.00000  Uiso   1.00
C690   C     0.66669   0.04283   0.74868   0.00000  Uiso   1.00
C691   C     0.84983   0.14114   0.77820   0.00000  Uiso   1.00
C692   C     0.81684   0.19219   0.72180   0.00000  Uiso   1.00
C693   C     0.80023   0.14120   0.77824   0.00000  Uiso   1.00
C694   C     0.86644   0.19214   0.72176   0.00000  Uiso   1.00
C695   C     0.97277   0.16726   0.83612   0.00000  Uiso   1.00
C696   C     0.69390   0.16608   0.66388   0.00000  Uiso   1.00
C697   C     0.95769   0.17113   0.88518   0.00000  Uiso   1.00
C698   C     0.99984   0.24590   0.75103   0.00000  Uiso   1.00
C699   C     0.70897   0.16222   0.61482   0.00000  Uiso   1.00
C700   C     0.97286   0.19123   0.95548   0.00000  Uiso   1.00
C701   C     0.69379   0.14216   0.54450   0.00000  Uiso   1.00
C702   C     0.98935   0.18625   0.90905   0.00000  Uiso   1.00
C703   C     0.67730   0.14711   0.59094   0.00000  Uiso   1.00
C704   C     0.90950   0.16218   0.90794   0.00000  Uiso   1.00
C705   C     0.75716   0.17117   0.59206   0.00000  Uiso   1.00
C706   C     0.89068   0.17174   0.95348   0.00000  Uiso   1.00
C707   C     0.77598   0.16163   0.54651   0.00000  Uiso   1.00
C708   C     0.92410   0.18290   0.97797   0.00000  Uiso   1.00
C709   C     0.86301   0.16907   0.54739   0.00000  Uiso   1.00
C710   C     0.74255   0.15049   0.52202   0.00000  Uiso   1.00
C711   C     0.84043   0.16733   0.97596   0.00000  Uiso   1.00
C712   C     0.82623   0.16605   0.52403   0.00000  Uiso   1.00
C713   C     0.80365   0.16431   0.95259   0.00000  Uiso   1.00
C714   C     0.90971   0.18173   0.52467   0.00000  Uiso   1.00
C715   C     0.75694   0.15167   0.97532   0.00000  Uiso   1.00
C716   C     0.97393   0.02057   0.72369   0.00000  Uiso   1.00
C717   C     0.69274   0.31276   0.77631   0.00000  Uiso   1.00
C718   C     0.97392   0.31116   0.72544   0.00000  Uiso   1.00
Cu719  Cu    0.71355   0.16667   0.75000   0.00000  Uiso   1.00
Cu720  Cu    0.95311   0.16666   0.75000   0.00000  Uiso   1.00
H721   H     0.93635   0.18637   0.54343   0.00000  Uiso   1.00
H722   H     0.71229   0.03936   0.79428   0.00000  Uiso   1.00
H723   H     0.86184   0.12069   0.80082   0.00000  Uiso   1.00
H724   H     0.80483   0.21265   0.69918   0.00000  Uiso   1.00
H725   H     0.77488   0.12081   0.80089   0.00000  Uiso   1.00
H726   H     0.89179   0.21252   0.69911   0.00000  Uiso   1.00
H727   H     0.73030   0.14702   0.95655   0.00000  Uiso   1.00
H728   H     0.77905   0.18743   0.60999   0.00000  Uiso   1.00
H729   H     0.88760   0.14591   0.89001   0.00000  Uiso   1.00
H730   H     0.97321   0.13972   0.60797   0.00000  Uiso   1.00
H731   H     0.69344   0.19364   0.89201   0.00000  Uiso   1.00
H732   H     0.99826   0.20107   0.97392   0.00000  Uiso   1.00
H733   H     0.66839   0.13233   0.52606   0.00000  Uiso   1.00
H734   H     0.95437   0.29397   0.70572   0.00000  Uiso   1.00
N735   N     0.78403   0.16668   0.74999   0.00000  Uiso   1.00
N736   N     0.88264   0.16666   0.75001   0.00000  Uiso   1.00
O737   O     0.70625   0.10655   0.75000   0.00000  Uiso   1.00
O738   O     0.96042   0.22678   0.75000   0.00000  Uiso   1.00
O739   O     0.96039   0.10654   0.75001   0.00000  Uiso   1.00
O740   O     0.70628   0.22679   0.75000   0.00000  Uiso   1.00
O741   O     0.68519   0.16668   0.81492   0.00000  Uiso   1.00
O742   O     0.98148   0.16666   0.68509   0.00000  Uiso   1.00
O743   O     0.93933   0.16667   0.81492   0.00000  Uiso   1.00
O744   O     0.72733   0.16667   0.68508   0.00000  Uiso   1.00
Br745  Br    0.19126   0.48004   0.60659   0.00000  Uiso   1.00
Br746  Br    0.14208   0.51999   0.89338   0.00000  Uiso   1.00
Br747  Br    0.27378   0.37969   0.68441   0.00000  Uiso   1.00
Br748  Br    0.05956   0.62031   0.81559   0.00000  Uiso   1.00
C749   C     0.00016   0.42076   0.74897   0.00000  Uiso   1.00
C750   C     0.02608   0.35551   0.77456   0.00000  Uiso   1.00
C751   C     0.33331   0.62384   0.75132   0.00000  Uiso   1.00
C752   C     0.00003   0.37616   0.74868   0.00000  Uiso   1.00
C753   C     0.18316   0.47448   0.77820   0.00000  Uiso   1.00
C754   C     0.15017   0.52552   0.72180   0.00000  Uiso   1.00
C755   C     0.13356   0.47453   0.77824   0.00000  Uiso   1.00
C756   C     0.19977   0.52547   0.72176   0.00000  Uiso   1.00
C757   C     0.30610   0.50059   0.83612   0.00000  Uiso   1.00
C758   C     0.02723   0.49941   0.66388   0.00000  Uiso   1.00
C759   C     0.29103   0.50446   0.88518   0.00000  Uiso   1.00
C760   C     0.33318   0.57924   0.75103   0.00000  Uiso   1.00
C761   C     0.04231   0.49555   0.61482   0.00000  Uiso   1.00
C762   C     0.30619   0.52456   0.95548   0.00000  Uiso   1.00
C763   C     0.02713   0.47549   0.54450   0.00000  Uiso   1.00
C764   C     0.32269   0.51959   0.90905   0.00000  Uiso   1.00
C765   C     0.01064   0.48044   0.59094   0.00000  Uiso   1.00
C766   C     0.24283   0.49551   0.90794   0.00000  Uiso   1.00
C767   C     0.09049   0.50451   0.59206   0.00000  Uiso   1.00
C768   C     0.22401   0.50508   0.95348   0.00000  Uiso   1.00
C769   C     0.10931   0.49496   0.54651   0.00000  Uiso   1.00
C770   C     0.25744   0.51623   0.97797   0.00000  Uiso   1.00
C771   C     0.19634   0.50241   0.54739   0.00000  Uiso   1.00
C772   C     0.07588   0.48382   0.52202   0.00000  Uiso   1.00
C773   C     0.17376   0.50067   0.97596   0.00000  Uiso   1.00
C774   C     0.15956   0.49938   0.52403   0.00000  Uiso   1.00
C775   C     0.13698   0.49764   0.95259   0.00000  Uiso   1.00
C776   C     0.24304   0.51506   0.52467   0.00000  Uiso   1.00
C777   C     0.09027   0.48500   0.97532   0.00000  Uiso   1.00
C778   C     0.30726   0.35391   0.72369   0.00000  Uiso   1.00
C779   C     0.02607   0.64609   0.77631   0.00000  Uiso   1.00
C780   C     0.30725   0.64449   0.72544   0.00000  Uiso   1.00
Cu781  Cu    0.04689   0.50001   0.75000   0.00000  Uiso   1.00
Cu782  Cu    0.28645   0.49999   0.75000   0.00000  Uiso   1.00
H783   H     0.26969   0.51971   0.54343   0.00000  Uiso   1.00
H784   H     0.04563   0.37270   0.79428   0.00000  Uiso   1.00
H785   H     0.19518   0.45402   0.80082   0.00000  Uiso   1.00
H786   H     0.13816   0.54598   0.69918   0.00000  Uiso   1.00
H787   H     0.10822   0.45415   0.80089   0.00000  Uiso   1.00
H788   H     0.22512   0.54585   0.69911   0.00000  Uiso   1.00
H789   H     0.06363   0.48036   0.95655   0.00000  Uiso   1.00
H790   H     0.11239   0.52077   0.60999   0.00000  Uiso   1.00
H791   H     0.22094   0.47924   0.89001   0.00000  Uiso   1.00
H792   H     0.30655   0.47305   0.60797   0.00000  Uiso   1.00
H793   H     0.02678   0.52698   0.89201   0.00000  Uiso   1.00
H794   H     0.33159   0.53441   0.97392   0.00000  Uiso   1.00
H795   H     0.00172   0.46567   0.52606   0.00000  Uiso   1.00
H796   H     0.28771   0.62730   0.70572   0.00000  Uiso   1.00
N797   N     0.11736   0.50001   0.74999   0.00000  Uiso   1.00
N798   N     0.21597   0.49999   0.75001   0.00000  Uiso   1.00
O799   O     0.03958   0.43989   0.75000   0.00000  Uiso   1.00
O800   O     0.29375   0.56011   0.75000   0.00000  Uiso   1.00
O801   O     0.29372   0.43988   0.75001   0.00000  Uiso   1.00
O802   O     0.03961   0.56012   0.75000   0.00000  Uiso   1.00
O803   O     0.01852   0.50001   0.81492   0.00000  Uiso   1.00
O804   O     0.31481   0.49999   0.68509   0.00000  Uiso   1.00
O805   O     0.27267   0.50000   0.81492   0.00000  Uiso   1.00
O806   O     0.06067   0.50000   0.68508   0.00000  Uiso   1.00
Br807  Br    0.52459   0.48004   0.60659   0.00000  Uiso   1.00
Br808  Br    0.47541   0.51999   0.89338   0.00000  Uiso   1.00
Br809  Br    0.60711   0.37969   0.68441   0.00000  Uiso   1.00
Br810  Br    0.39289   0.62031   0.81559   0.00000  Uiso   1.00
C811   C     0.33349   0.42076   0.74897   0.00000  Uiso   1.00
C812   C     0.35942   0.35551   0.77456   0.00000  Uiso   1.00
C813   C     0.66664   0.62384   0.75132   0.00000  Uiso   1.00
C814   C     0.33336   0.37616   0.74868   0.00000  Uiso   1.00
C815   C     0.51650   0.47448   0.77820   0.00000  Uiso   1.00
C816   C     0.48350   0.52552   0.72180   0.00000  Uiso   1.00
C817   C     0.46689   0.47453   0.77824   0.00000  Uiso   1.00
C818   C     0.53311   0.52547   0.72176   0.00000  Uiso   1.00
C819   C     0.63943   0.50059   0.83612   0.00000  Uiso   1.00
C820   C     0.36057   0.49941   0.66388   0.00000  Uiso   1.00
C821   C     0.62436   0.50446   0.88518   0.00000  Uiso   1.00
C822   C     0.66651   0.57924   0.75103   0.00000  Uiso   1.00
C823   C     0.37564   0.49555   0.61482   0.00000  Uiso   1.00
C824   C     0.63953   0.52456   0.95548   0.00000  Uiso   1.00
C825   C     0.36046   0.47549   0.54450   0.00000  Uiso   1.00
C826   C     0.65602   0.51959   0.90905   0.00000  Uiso   1.00
C827   C     0.34397   0.48044   0.59094   0.00000  Uiso   1.00
C828   C     0.57617   0.49551   0.90794   0.00000  Uiso   1.00
C829   C     0.42383   0.50451   0.59206   0.00000  Uiso   1.00
C830   C     0.55734   0.50508   0.95348   0.00000  Uiso   1.00
C831   C     0.44264   0.49496   0.54651   0.00000  Uiso   1.00
C832   C     0.59077   0.51623   0.97797   0.00000  Uiso   1.00
C833   C     0.52968   0.50241   0.54739   0.00000  Uiso   1.00
C834   C     0.40921   0.48382   0.52202   0.00000  Uiso   1.00
C835   C     0.50709   0.50067   0.97596   0.00000  Uiso   1.00
C836   C     0.49289   0.49938   0.52403   0.00000  Uiso   1.00
C837   C     0.47031   0.49764   0.95259   0.00000  Uiso   1.00
C838   C     0.57638   0.51506   0.52467   0.00000  Uiso   1.00
C839   C     0.42361   0.48500   0.97532   0.00000  Uiso   1.00
C840   C     0.64059   0.35391   0.72369   0.00000  Uiso   1.00
C841   C     0.35941   0.64609   0.77631   0.00000  Uiso   1.00
C842   C     0.64058   0.64449   0.72544   0.00000  Uiso   1.00
Cu843  Cu    0.38022   0.50001   0.75000   0.00000  Uiso   1.00
Cu844  Cu    0.61978   0.49999   0.75000   0.00000  Uiso   1.00
H845   H     0.60302   0.51971   0.54343   0.00000  Uiso   1.00
H846   H     0.37896   0.37270   0.79428   0.00000  Uiso   1.00
H847   H     0.52851   0.45402   0.80082   0.00000  Uiso   1.00
H848   H     0.47149   0.54598   0.69918   0.00000  Uiso   1.00
H849   H     0.44155   0.45415   0.80089   0.00000  Uiso   1.00
H850   H     0.55845   0.54585   0.69911   0.00000  Uiso   1.00
H851   H     0.39696   0.48036   0.95655   0.00000  Uiso   1.00
H852   H     0.44572   0.52077   0.60999   0.00000  Uiso   1.00
H853   H     0.55427   0.47924   0.89001   0.00000  Uiso   1.00
H854   H     0.63988   0.47305   0.60797   0.00000  Uiso   1.00
H855   H     0.36011   0.52698   0.89201   0.00000  Uiso   1.00
H856   H     0.66493   0.53441   0.97392   0.00000  Uiso   1.00
H857   H     0.33505   0.46567   0.52606   0.00000  Uiso   1.00
H858   H     0.62104   0.62730   0.70572   0.00000  Uiso   1.00
N859   N     0.45069   0.50001   0.74999   0.00000  Uiso   1.00
N860   N     0.54931   0.49999   0.75001   0.00000  Uiso   1.00
O861   O     0.37291   0.43989   0.75000   0.00000  Uiso   1.00
O862   O     0.62709   0.56011   0.75000   0.00000  Uiso   1.00
O863   O     0.62706   0.43988   0.75001   0.00000  Uiso   1.00
O864   O     0.37294   0.56012   0.75000   0.00000  Uiso   1.00
O865   O     0.35186   0.50001   0.81492   0.00000  Uiso   1.00
O866   O     0.64814   0.49999   0.68509   0.00000  Uiso   1.00
O867   O     0.60600   0.50000   0.81492   0.00000  Uiso   1.00
O868   O     0.39400   0.50000   0.68508   0.00000  Uiso   1.00
Br869  Br    0.85792   0.48004   0.60659   0.00000  Uiso   1.00
Br870  Br    0.80874   0.51999   0.89338   0.00000  Uiso   1.00
Br871  Br    0.94044   0.37969   0.68441   0.00000  Uiso   1.00
Br872  Br    0.72622   0.62031   0.81559   0.00000  Uiso   1.00
C873   C     0.66682   0.42076   0.74897   0.00000  Uiso   1.00
C874   C     0.69275   0.35551   0.77456   0.00000  Uiso   1.00
C875   C     0.99997   0.62384   0.75132   0.00000  Uiso   1.00
C876   C     0.66669   0.37616   0.74868   0.00000  Uiso   1.00
C877   C     0.84983   0.47448   0.77820   0.00000  Uiso   1.00
C878   C     0.81684   0.52552   0.72180   0.00000  Uiso   1.00
C879   C     0.80023   0.47453   0.77824   0.00000  Uiso   1.00
C880   C     0.86644   0.52547   0.72176   0.00000  Uiso   1.00
C881   C     0.97277   0.50059   0.83612   0.00000  Uiso   1.00
C882   C     0.69390   0.49941   0.66388   0.00000  Uiso   1.00
C883   C     0.95769   0.50446   0.88518   0.00000  Uiso   1.00
C884   C     0.99984   0.57924   0.75103   0.00000  Uiso   1.00
C885   C     0.70897   0.49555   0.61482   0.00000  Uiso   1.00
C886   C     0.97286   0.52456   0.95548   0.00000  Uiso   1.00
C887   C     0.69379   0.47549   0.54450   0.00000  Uiso   1.00
C888   C     0.98935   0.51959   0.90905   0.00000  Uiso   1.00
C889   C     0.67730   0.48044   0.59094   0.00000  Uiso   1.00
C890   C     0.90950   0.49551   0.90794   0.00000  Uiso   1.00
C891   C     0.75716   0.50451   0.59206   0.00000  Uiso   1.00
C892   C     0.89068   0.50508   0.95348   0.00000  Uiso   1.00
C893   C     0.77598   0.49496   0.54651   0.00000  Uiso   1.00
C894   C     0.92410   0.51623   0.97797   0.00000  Uiso   1.00
C895   C     0.86301   0.50241   0.54739   0.00000  Uiso   1.00
C896   C     0.74255   0.48382   0.52202   0.00000  Uiso   1.00
C897   C     0.84043   0.50067   0.97596   0.00000  Uiso   1.00
C898   C     0.82623   0.49938   0.52403   0.00000  Uiso   1.00
C899   C     0.80365   0.49764   0.95259   0.00000  Uiso   1.00
C900   C     0.90971   0.51506   0.52467   0.00000  Uiso   1.00
C901   C     0.75694   0.48500   0.97532   0.00000  Uiso   1.00
C902   C     0.97393   0.35391   0.72369   0.00000  Uiso   1.00
C903   C     0.69274   0.64609   0.77631   0.00000  Uiso   1.00
C904   C     0.97392   0.64449   0.72544   0.00000  Uiso   1.00
Cu905  Cu    0.71355   0.50001   0.75000   0.00000  Uiso   1.00
Cu906  Cu    0.95311   0.49999   0.75000   0.00000  Uiso   1.00
H907   H     0.93635   0.51971   0.54343   0.00000  Uiso   1.00
H908   H     0.71229   0.37270   0.79428   0.00000  Uiso   1.00
H909   H     0.86184   0.45402   0.80082   0.00000  Uiso   1.00
H910   H     0.80483   0.54598   0.69918   0.00000  Uiso   1.00
H911   H     0.77488   0.45415   0.80089   0.00000  Uiso   1.00
H912   H     0.89179   0.54585   0.69911   0.00000  Uiso   1.00
H913   H     0.73030   0.48036   0.95655   0.00000  Uiso   1.00
H914   H     0.77905   0.52077   0.60999   0.00000  Uiso   1.00
H915   H     0.88760   0.47924   0.89001   0.00000  Uiso   1.00
H916   H     0.97321   0.47305   0.60797   0.00000  Uiso   1.00
H917   H     0.69344   0.52698   0.89201   0.00000  Uiso   1.00
H918   H     0.99826   0.53441   0.97392   0.00000  Uiso   1.00
H919   H     0.66839   0.46567   0.52606   0.00000  Uiso   1.00
H920   H     0.95437   0.62730   0.70572   0.00000  Uiso   1.00
N921   N     0.78403   0.50001   0.74999   0.00000  Uiso   1.00
N922   N     0.88264   0.49999   0.75001   0.00000  Uiso   1.00
O923   O     0.70625   0.43989   0.75000   0.00000  Uiso   1.00
O924   O     0.96042   0.56011   0.75000   0.00000  Uiso   1.00
O925   O     0.96039   0.43988   0.75001   0.00000  Uiso   1.00
O926   O     0.70628   0.56012   0.75000   0.00000  Uiso   1.00
O927   O     0.68519   0.50001   0.81492   0.00000  Uiso   1.00
O928   O     0.98148   0.49999   0.68509   0.00000  Uiso   1.00
O929   O     0.93933   0.50000   0.81492   0.00000  Uiso   1.00
O930   O     0.72733   0.50000   0.68508   0.00000  Uiso   1.00
Br931  Br    0.19126   0.81337   0.60659   0.00000  Uiso   1.00
Br932  Br    0.14208   0.85332   0.89338   0.00000  Uiso   1.00
Br933  Br    0.27378   0.71302   0.68441   0.00000  Uiso   1.00
Br934  Br    0.05956   0.95365   0.81559   0.00000  Uiso   1.00
C935   C     0.00016   0.75410   0.74897   0.00000  Uiso   1.00
C936   C     0.02608   0.68884   0.77456   0.00000  Uiso   1.00
C937   C     0.33331   0.95717   0.75132   0.00000  Uiso   1.00
C938   C     0.00003   0.70950   0.74868   0.00000  Uiso   1.00
C939   C     0.18316   0.80781   0.77820   0.00000  Uiso   1.00
C940   C     0.15017   0.85886   0.72180   0.00000  Uiso   1.00
C941   C     0.13356   0.80786   0.77824   0.00000  Uiso   1.00
C942   C     0.19977   0.85880   0.72176   0.00000  Uiso   1.00
C943   C     0.30610   0.83392   0.83612   0.00000  Uiso   1.00
C944   C     0.02723   0.83274   0.66388   0.00000  Uiso   1.00
C945   C     0.29103   0.83779   0.88518   0.00000  Uiso   1.00
C946   C     0.33318   0.91257   0.75103   0.00000  Uiso   1.00
C947   C     0.04231   0.82888   0.61482   0.00000  Uiso   1.00
C948   C     0.30619   0.85789   0.95548   0.00000  Uiso   1.00
C949   C     0.02713   0.80883   0.54450   0.00000  Uiso   1.00
C950   C     0.32269   0.85292   0.90905   0.00000  Uiso   1.00
C951   C     0.01064   0.81378   0.59094   0.00000  Uiso   1.00
C952   C     0.24283   0.82884   0.90794   0.00000  Uiso   1.00
C953   C     0.09049   0.83784   0.59206   0.00000  Uiso   1.00
C954   C     0.22401   0.83841   0.95348   0.00000  Uiso   1.00
C955   C     0.10931   0.82829   0.54651   0.00000  Uiso   1.00
C956   C     0.25744   0.84957   0.97797   0.00000  Uiso   1.00
C957   C     0.19634   0.83574   0.54739   0.00000  Uiso   1.00
C958   C     0.07588   0.81715   0.52202   0.00000  Uiso   1.00
C959   C     0.17376   0.83400   0.97596   0.00000  Uiso   1.00
C960   C     0.15956   0.83271   0.52403   0.00000  Uiso   1.00
C961   C     0.13698   0.83097   0.95259   0.00000  Uiso   1.00
C962   C     0.24304   0.84839   0.52467   0.00000  Uiso   1.00
C963   C     0.09027   0.81833   0.97532   0.00000  Uiso   1.00
C964   C     0.30726   0.68724   0.72369   0.00000  Uiso   1.00
C965   C     0.02607   0.97943   0.77631   0.00000  Uiso   1.00
C966   C     0.30725   0.97783   0.72544   0.00000  Uiso   1.00
Cu967  Cu    0.04689   0.83334   0.75000   0.00000  Uiso   1.00
Cu968  Cu    0.28645   0.83333   0.75000   0.00000  Uiso   1.00
H969   H     0.26969   0.85304   0.54343   0.00000  Uiso   1.00
H970   H     0.04563   0.70603   0.79428   0.00000  Uiso   1.00
H971   H     0.19518   0.78735   0.80082   0.00000  Uiso   1.00
H972   H     0.13816   0.87931   0.69918   0.00000  Uiso   1.00
H973   H     0.10822   0.78748   0.80089   0.00000  Uiso   1.00
H974   H     0.22512   0.87918   0.69911   0.00000  Uiso   1.00
H975   H     0.06363   0.81369   0.95655   0.00000  Uiso   1.00
H976   H     0.11239   0.85410   0.60999   0.00000  Uiso   1.00
H977   H     0.22094   0.81257   0.89001   0.00000  Uiso   1.00
H978   H     0.30655   0.80639   0.60797   0.00000  Uiso   1.00
H979   H     0.02678   0.86031   0.89201   0.00000  Uiso   1.00
H980   H     0.33159   0.86774   0.97392   0.00000  Uiso   1.00
H981   H     0.00172   0.79900   0.52606   0.00000  Uiso   1.00
H982   H     0.28771   0.96064   0.70572   0.00000  Uiso   1.00
N983   N     0.11736   0.83334   0.74999   0.00000  Uiso   1.00
N984   N     0.21597   0.83332   0.75001   0.00000  Uiso   1.00
O985   O     0.03958   0.77322   0.75000   0.00000  Uiso   1.00
O986   O     0.29375   0.89345   0.75000   0.00000  Uiso   1.00
O987   O     0.29372   0.77321   0.75001   0.00000  Uiso   1.00
O988   O     0.03961   0.89346   0.75000   0.00000  Uiso   1.00
O989   O     0.01852   0.83334   0.81492   0.00000  Uiso   1.00
O990   O     0.31481   0.83332   0.68509   0.00000  Uiso   1.00
O991   O     0.27267   0.83333   0.81492   0.00000  Uiso   1.00
O992   O     0.06067   0.83333   0.68508   0.00000  Uiso   1.00
Br993  Br    0.52459   0.81337   0.60659   0.00000  Uiso   1.00
Br994  Br    0.47541   0.85332   0.89338   0.00000  Uiso   1.00
Br995  Br    0.60711   0.71302   0.68441   0.00000  Uiso   1.00
Br996  Br    0.39289   0.95365   0.81559   0.00000  Uiso   1.00
C997   C     0.33349   0.75410   0.74897   0.00000  Uiso   1.00
C998   C     0.35942   0.68884   0.77456   0.00000  Uiso   1.00
C999   C     0.66664   0.95717   0.75132   0.00000  Uiso   1.00
C1000  C     0.33336   0.70950   0.74868   0.00000  Uiso   1.00
C1001  C     0.51650   0.80781   0.77820   0.00000  Uiso   1.00
C1002  C     0.48350   0.85886   0.72180   0.00000  Uiso   1.00
C1003  C     0.46689   0.80786   0.77824   0.00000  Uiso   1.00
C1004  C     0.53311   0.85880   0.72176   0.00000  Uiso   1.00
C1005  C     0.63943   0.83392   0.83612   0.00000  Uiso   1.00
C1006  C     0.36057   0.83274   0.66388   0.00000  Uiso   1.00
C1007  C     0.62436   0.83779   0.88518   0.00000  Uiso   1.00
C1008  C     0.66651   0.91257   0.75103   0.00000  Uiso   1.00
C1009  C     0.37564   0.82888   0.61482   0.00000  Uiso   1.00
C1010  C     0.63953   0.85789   0.95548   0.00000  Uiso   1.00
C1011  C     0.36046   0.80883   0.54450   0.00000  Uiso   1.00
C1012  C     0.65602   0.85292   0.90905   0.00000  Uiso   1.00
C1013  C     0.34397   0.81378   0.59094   0.00000  Uiso   1.00
C1014  C     0.57617   0.82884   0.90794   0.00000  Uiso   1.00
C1015  C     0.42383   0.83784   0.59206   0.00000  Uiso   1.00
C1016  C     0.55734   0.83841   0.95348   0.00000  Uiso   1.00
C1017  C     0.44264   0.82829   0.54651   0.00000  Uiso   1.00
C1018  C     0.59077   0.84957   0.97797   0.00000  Uiso   1.00
C1019  C     0.52968   0.83574   0.54739   0.00000  Uiso   1.00
C1020  C     0.40921   0.81715   0.52202   0.00000  Uiso   1.00
C1021  C     0.50709   0.83400   0.97596   0.00000  Uiso   1.00
C1022  C     0.49289   0.83271   0.52403   0.00000  Uiso   1.00
C1023  C     0.47031   0.83097   0.95259   0.00000  Uiso   1.00
C1024  C     0.57638   0.84839   0.52467   0.00000  Uiso   1.00
C1025  C     0.42361   0.81833   0.97532   0.00000  Uiso   1.00
C1026  C     0.64059   0.68724   0.72369   0.00000  Uiso   1.00
C1027  C     0.35941   0.97943   0.77631   0.00000  Uiso   1.00
C1028  C     0.64058   0.97783   0.72544   0.00000  Uiso   1.00
Cu1029 Cu    0.38022   0.83334   0.75000   0.00000  Uiso   1.00
Cu1030 Cu    0.61978   0.83333   0.75000   0.00000  Uiso   1.00
H1031  H     0.60302   0.85304   0.54343   0.00000  Uiso   1.00
H1032  H     0.37896   0.70603   0.79428   0.00000  Uiso   1.00
H1033  H     0.52851   0.78735   0.80082   0.00000  Uiso   1.00
H1034  H     0.47149   0.87931   0.69918   0.00000  Uiso   1.00
H1035  H     0.44155   0.78748   0.80089   0.00000  Uiso   1.00
H1036  H     0.55845   0.87918   0.69911   0.00000  Uiso   1.00
H1037  H     0.39696   0.81369   0.95655   0.00000  Uiso   1.00
H1038  H     0.44572   0.85410   0.60999   0.00000  Uiso   1.00
H1039  H     0.55427   0.81257   0.89001   0.00000  Uiso   1.00
H1040  H     0.63988   0.80639   0.60797   0.00000  Uiso   1.00
H1041  H     0.36011   0.86031   0.89201   0.00000  Uiso   1.00
H1042  H     0.66493   0.86774   0.97392   0.00000  Uiso   1.00
H1043  H     0.33505   0.79900   0.52606   0.00000  Uiso   1.00
H1044  H     0.62104   0.96064   0.70572   0.00000  Uiso   1.00
N1045  N     0.45069   0.83334   0.74999   0.00000  Uiso   1.00
N1046  N     0.54931   0.83332   0.75001   0.00000  Uiso   1.00
O1047  O     0.37291   0.77322   0.75000   0.00000  Uiso   1.00
O1048  O     0.62709   0.89345   0.75000   0.00000  Uiso   1.00
O1049  O     0.62706   0.77321   0.75001   0.00000  Uiso   1.00
O1050  O     0.37294   0.89346   0.75000   0.00000  Uiso   1.00
O1051  O     0.35186   0.83334   0.81492   0.00000  Uiso   1.00
O1052  O     0.64814   0.83332   0.68509   0.00000  Uiso   1.00
O1053  O     0.60600   0.83333   0.81492   0.00000  Uiso   1.00
O1054  O     0.39400   0.83333   0.68508   0.00000  Uiso   1.00
Br1055 Br    0.85792   0.81337   0.60659   0.00000  Uiso   1.00
Br1056 Br    0.80874   0.85332   0.89338   0.00000  Uiso   1.00
Br1057 Br    0.94044   0.71302   0.68441   0.00000  Uiso   1.00
Br1058 Br    0.72622   0.95365   0.81559   0.00000  Uiso   1.00
C1059  C     0.66682   0.75410   0.74897   0.00000  Uiso   1.00
C1060  C     0.69275   0.68884   0.77456   0.00000  Uiso   1.00
C1061  C     0.99997   0.95717   0.75132   0.00000  Uiso   1.00
C1062  C     0.66669   0.70950   0.74868   0.00000  Uiso   1.00
C1063  C     0.84983   0.80781   0.77820   0.00000  Uiso   1.00
C1064  C     0.81684   0.85886   0.72180   0.00000  Uiso   1.00
C1065  C     0.80023   0.80786   0.77824   0.00000  Uiso   1.00
C1066  C     0.86644   0.85880   0.72176   0.00000  Uiso   1.00
C1067  C     0.97277   0.83392   0.83612   0.00000  Uiso   1.00
C1068  C     0.69390   0.83274   0.66388   0.00000  Uiso   1.00
C1069  C     0.95769   0.83779   0.88518   0.00000  Uiso   1.00
C1070  C     0.99984   0.91257   0.75103   0.00000  Uiso   1.00
C1071  C     0.70897   0.82888   0.61482   0.00000  Uiso   1.00
C1072  C     0.97286   0.85789   0.95548   0.00000  Uiso   1.00
C1073  C     0.69379   0.80883   0.54450   0.00000  Uiso   1.00
C1074  C     0.98935   0.85292   0.90905   0.00000  Uiso   1.00
C1075  C     0.67730   0.81378   0.59094   0.00000  Uiso   1.00
C1076  C     0.90950   0.82884   0.90794   0.00000  Uiso   1.00
C1077  C     0.75716   0.83784   0.59206   0.00000  Uiso   1.00
C1078  C     0.89068   0.83841   0.95348   0.00000  Uiso   1.00
C1079  C     0.77598   0.82829   0.54651   0.00000  Uiso   1.00
C1080  C     0.92410   0.84957   0.97797   0.00000  Uiso   1.00
C1081  C     0.86301   0.83574   0.54739   0.00000  Uiso   1.00
C1082  C     0.74255   0.81715   0.52202   0.00000  Uiso   1.00
C1083  C     0.84043   0.83400   0.97596   0.00000  Uiso   1.00
C1084  C     0.82623   0.83271   0.52403   0.00000  Uiso   1.00
C1085  C     0.80365   0.83097   0.95259   0.00000  Uiso   1.00
C1086  C     0.90971   0.84839   0.52467   0.00000  Uiso   1.00
C1087  C     0.75694   0.81833   0.97532   0.00000  Uiso   1.00
C1088  C     0.97393   0.68724   0.72369   0.00000  Uiso   1.00
C1089  C     0.69274   0.97943   0.77631   0.00000  Uiso   1.00
C1090  C     0.97392   0.97783   0.72544   0.00000  Uiso   1.00
Cu1091 Cu    0.71355   0.83334   0.75000   0.00000  Uiso   1.00
Cu1092 Cu    0.95311   0.83333   0.75000   0.00000  Uiso   1.00
H1093  H     0.93635   0.85304   0.54343   0.00000  Uiso   1.00
H1094  H     0.71229   0.70603   0.79428   0.00000  Uiso   1.00
H1095  H     0.86184   0.78735   0.80082   0.00000  Uiso   1.00
H1096  H     0.80483   0.87931   0.69918   0.00000  Uiso   1.00
H1097  H     0.77488   0.78748   0.80089   0.00000  Uiso   1.00
H1098  H     0.89179   0.87918   0.69911   0.00000  Uiso   1.00
H1099  H     0.73030   0.81369   0.95655   0.00000  Uiso   1.00
H1100  H     0.77905   0.85410   0.60999   0.00000  Uiso   1.00
H1101  H     0.88760   0.81257   0.89001   0.00000  Uiso   1.00
H1102  H     0.97321   0.80639   0.60797   0.00000  Uiso   1.00
H1103  H     0.69344   0.86031   0.89201   0.00000  Uiso   1.00
H1104  H     0.99826   0.86774   0.97392   0.00000  Uiso   1.00
H1105  H     0.66839   0.79900   0.52606   0.00000  Uiso   1.00
H1106  H     0.95437   0.96064   0.70572   0.00000  Uiso   1.00
N1107  N     0.78403   0.83334   0.74999   0.00000  Uiso   1.00
N1108  N     0.88264   0.83332   0.75001   0.00000  Uiso   1.00
O1109  O     0.70625   0.77322   0.75000   0.00000  Uiso   1.00
O1110  O     0.96042   0.89345   0.75000   0.00000  Uiso   1.00
O1111  O     0.96039   0.77321   0.75001   0.00000  Uiso   1.00
O1112  O     0.70628   0.89346   0.75000   0.00000  Uiso   1.00
O1113  O     0.68519   0.83334   0.81492   0.00000  Uiso   1.00
O1114  O     0.98148   0.83332   0.68509   0.00000  Uiso   1.00
O1115  O     0.93933   0.83333   0.81492   0.00000  Uiso   1.00
O1116  O     0.72733   0.83333   0.68508   0.00000  Uiso   1.00
loop_
_geom_bond_atom_site_label_1
_geom_bond_atom_site_label_2
_geom_bond_distance
_geom_bond_site_symmetry_2
_ccdc_geom_bond_type
Br1    C27     1.931   .     S
Br2    C31     1.931   .     S
Br3    C34     1.924   .     S
Br4    C35     1.924   .     S
C5     C8      1.445   .     S
C5     O55     1.292   .     A
C5     O181    1.289   1_455 S
C6     C8      1.399   .     A
C6     H40     1.084   .     S
C6     C407    1.386   1_545 S
C7     C36     1.399   .     A
C7     C16     1.445   .     S
C7     C97     1.407   .     S
C8     C158    1.407   1_455 S
C9     H41     1.082   .     S
C9     C11     1.417   .     A
C9     N54     1.367   .     A
C10    H42     1.082   .     S
C10    C12     1.417   .     A
C10    N53     1.367   .     A
C11    H43     1.082   .     S
C11    N53     1.367   .     A
C12    H44     1.082   .     S
C12    N54     1.367   .     A
C13    C15     1.465   .     S
C13    O61     1.295   .     A
C13    O121    1.296   .     S
C14    C17     1.465   .     S
C14    O62     1.295   .     A
C14    O184    1.296   1_455 S
C15    C20     1.400   .     A
C15    C22     1.397   .     A
C16    O56     1.292   .     A
C16    O120    1.289   .     S
C17    C21     1.400   .     A
C17    C23     1.396   .     A
C18    H50     1.083   .     S
C18    C20     1.394   .     A
C18    C26     1.404   .     A
C19    C28     1.404   .     A
C19    C21     1.394   .     A
C19    H51     1.083   .     S
C20    H111    1.083   .     S
C21    H172    1.083   1_455 S
C22    H47     1.078   .     S
C22    C24     1.400   .     A
C23    H46     1.078   .     S
C23    C25     1.400   .     A
C24    C26     1.415   .     A
C24    C29     1.424   .     A
C25    C28     1.415   .     A
C25    C30     1.424   .     A
C26    C590    1.389   .     S
C27    C32     1.390   .     A
C27    C30     1.428   .     A
C28    C591    1.389   1_554 S
C29    C31     1.428   .     A
C29    C588    1.430   .     S
C30    C587    1.430   1_554 S
C31    C33     1.390   .     A
C32    H39     1.084   .     S
C32    C584    1.389   1_554 S
C33    H45     1.084   .     S
C33    C586    1.389   .     S
C34    C70     1.407   .     S
C34    C408    1.386   1_545 S
C35    C192    1.386   .     S
C35    C131    1.407   1_455 S
C36    H52     1.084   .     S
C36    C220    1.386   .     S
Cu37   O55     1.958   .     S
Cu37   O58     1.959   .     S
Cu37   N53     2.014   .     S
Cu37   O62     1.936   .     S
Cu37   O59     1.950   .     S
Cu37   Cu162   2.679   1_455 S
Cu38   O57     1.959   .     S
Cu38   O61     1.936   .     S
Cu38   O56     1.958   .     S
Cu38   N54     2.014   .     S
Cu38   O60     1.950   .     S
Cu38   Cu99    2.679   .     S
H48    C83     1.083   .     S
H49    C144    1.083   1_455 S
O57    C67     1.289   .     S
O58    C140    1.289   1_455 S
O59    C137    1.296   1_455 S
O60    C76     1.296   .     S
Br63   C89     1.931   .     S
Br64   C93     1.931   .     S
Br65   C96     1.924   .     S
Br66   C97     1.924   .     S
C67    C70     1.445   .     S
C67    O117    1.292   .     A
C68    C70     1.399   .     A
C68    H102    1.084   .     S
C68    C469    1.386   1_545 S
C69    C98     1.399   .     A
C69    C78     1.445   .     S
C69    C159    1.407   .     S
C71    H103    1.082   .     S
C71    C73     1.417   .     A
C71    N116    1.367   .     A
C72    H104    1.082   .     S
C72    C74     1.417   .     A
C72    N115    1.367   .     A
C73    H105    1.082   .     S
C73    N115    1.367   .     A
C74    H106    1.082   .     S
C74    N116    1.367   .     A
C75    C77     1.465   .     S
C75    O123    1.295   .     A
C75    O183    1.296   .     S
C76    C79     1.465   .     S
C76    O124    1.295   .     A
C77    C82     1.400   .     A
C77    C84     1.397   .     A
C78    O118    1.292   .     A
C78    O182    1.289   .     S
C79    C83     1.400   .     A
C79    C85     1.396   .     A
C80    H112    1.083   .     S
C80    C82     1.394   .     A
C80    C88     1.404   .     A
C81    C90     1.404   .     A
C81    C83     1.394   .     A
C81    H113    1.083   .     S
C82    H173    1.083   .     S
C84    H109    1.078   .     S
C84    C86     1.400   .     A
C85    H108    1.078   .     S
C85    C87     1.400   .     A
C86    C88     1.415   .     A
C86    C91     1.424   .     A
C87    C90     1.415   .     A
C87    C92     1.424   .     A
C88    C652    1.389   .     S
C89    C94     1.390   .     A
C89    C92     1.428   .     A
C90    C653    1.389   1_554 S
C91    C93     1.428   .     A
C91    C650    1.430   .     S
C92    C649    1.430   1_554 S
C93    C95     1.390   .     A
C94    H101    1.084   .     S
C94    C646    1.389   1_554 S
C95    H107    1.084   .     S
C95    C648    1.389   .     S
C96    C132    1.407   .     S
C96    C470    1.386   1_545 S
C97    C254    1.386   .     S
C98    H114    1.084   .     S
C98    C282    1.386   .     S
Cu99   O117    1.958   .     S
Cu99   O120    1.959   .     S
Cu99   N115    2.014   .     S
Cu99   O124    1.936   .     S
Cu99   O121    1.950   .     S
Cu100  O119    1.959   .     S
Cu100  O123    1.936   .     S
Cu100  O118    1.958   .     S
Cu100  N116    2.014   .     S
Cu100  O122    1.950   .     S
Cu100  Cu161   2.679   .     S
H110   C145    1.083   .     S
O119   C129    1.289   .     S
O122   C138    1.296   .     S
Br125  C151    1.931   .     S
Br126  C155    1.931   .     S
Br127  C158    1.924   .     S
Br128  C159    1.924   .     S
C129   C132    1.445   .     S
C129   O179    1.292   .     A
C130   C132    1.399   .     A
C130   H164    1.084   .     S
C130   C531    1.386   1_545 S
C131   C160    1.399   .     A
C131   C140    1.445   .     S
C131   C35     1.407   1_655 S
C133   H165    1.082   .     S
C133   C135    1.417   .     A
C133   N178    1.367   .     A
C134   H166    1.082   .     S
C134   C136    1.417   .     A
C134   N177    1.367   .     A
C135   H167    1.082   .     S
C135   N177    1.367   .     A
C136   H168    1.082   .     S
C136   N178    1.367   .     A
C137   C139    1.465   .     S
C137   O185    1.295   .     A
C137   O59     1.296   1_655 S
C138   C141    1.465   .     S
C138   O186    1.295   .     A
C139   C144    1.400   .     A
C139   C146    1.397   .     A
C140   O180    1.292   .     A
C140   O58     1.289   1_655 S
C141   C145    1.400   .     A
C141   C147    1.396   .     A
C142   H174    1.083   .     S
C142   C144    1.394   .     A
C142   C150    1.404   .     A
C143   C152    1.404   .     A
C143   C145    1.394   .     A
C143   H175    1.083   .     S
C144   H49     1.083   1_655 S
C146   H171    1.078   .     S
C146   C148    1.400   .     A
C147   H170    1.078   .     S
C147   C149    1.400   .     A
C148   C150    1.415   .     A
C148   C153    1.424   .     A
C149   C152    1.415   .     A
C149   C154    1.424   .     A
C150   C714    1.389   .     S
C151   C156    1.390   .     A
C151   C154    1.428   .     A
C152   C715    1.389   1_554 S
C153   C155    1.428   .     A
C153   C712    1.430   .     S
C154   C711    1.430   1_554 S
C155   C157    1.390   .     A
C156   H163    1.084   .     S
C156   C708    1.389   1_554 S
C157   H169    1.084   .     S
C157   C710    1.389   .     S
C158   C8      1.407   1_655 S
C158   C532    1.386   1_545 S
C159   C316    1.386   .     S
C160   H176    1.084   .     S
C160   C344    1.386   .     S
Cu161  O179    1.958   .     S
Cu161  O182    1.959   .     S
Cu161  N177    2.014   .     S
Cu161  O186    1.936   .     S
Cu161  O183    1.950   .     S
Cu162  O181    1.959   .     S
Cu162  O185    1.936   .     S
Cu162  O180    1.958   .     S
Cu162  N178    2.014   .     S
Cu162  O184    1.950   .     S
Cu162  Cu37    2.679   1_655 S
H172   C21     1.083   1_655 S
O181   C5      1.289   1_655 S
O184   C14     1.296   1_655 S
Br187  C213    1.931   .     S
Br188  C217    1.931   .     S
Br189  C220    1.924   .     S
Br190  C221    1.924   .     S
C191   C194    1.445   .     S
C191   O241    1.292   .     A
C191   O367    1.289   1_455 S
C192   C194    1.399   .     A
C192   H226    1.084   .     S
C193   C222    1.399   .     A
C193   C202    1.445   .     S
C193   C283    1.407   .     S
C194   C344    1.407   1_455 S
C195   H227    1.082   .     S
C195   C197    1.417   .     A
C195   N240    1.367   .     A
C196   H228    1.082   .     S
C196   C198    1.417   .     A
C196   N239    1.367   .     A
C197   H229    1.082   .     S
C197   N239    1.367   .     A
C198   H230    1.082   .     S
C198   N240    1.367   .     A
C199   C201    1.465   .     S
C199   O247    1.295   .     A
C199   O307    1.296   .     S
C200   C203    1.465   .     S
C200   O248    1.295   .     A
C200   O370    1.296   1_455 S
C201   C206    1.400   .     A
C201   C208    1.397   .     A
C202   O242    1.292   .     A
C202   O306    1.289   .     S
C203   C207    1.400   .     A
C203   C209    1.396   .     A
C204   H236    1.083   .     S
C204   C206    1.394   .     A
C204   C212    1.404   .     A
C205   C214    1.404   .     A
C205   C207    1.394   .     A
C205   H237    1.083   .     S
C206   H297    1.083   .     S
C207   H358    1.083   1_455 S
C208   H233    1.078   .     S
C208   C210    1.400   .     A
C209   H232    1.078   .     S
C209   C211    1.400   .     A
C210   C212    1.415   .     A
C210   C215    1.424   .     A
C211   C214    1.415   .     A
C211   C216    1.424   .     A
C212   C776    1.389   .     S
C213   C218    1.390   .     A
C213   C216    1.428   .     A
C214   C777    1.389   1_554 S
C215   C217    1.428   .     A
C215   C774    1.430   .     S
C216   C773    1.430   1_554 S
C217   C219    1.390   .     A
C218   H225    1.084   .     S
C218   C770    1.389   1_554 S
C219   H231    1.084   .     S
C219   C772    1.389   .     S
C220   C256    1.407   .     S
C221   C378    1.386   .     S
C221   C317    1.407   1_455 S
C222   H238    1.084   .     S
C222   C406    1.386   .     S
Cu223  O241    1.958   .     S
Cu223  O244    1.959   .     S
Cu223  N239    2.014   .     S
Cu223  O248    1.936   .     S
Cu223  O245    1.950   .     S
Cu223  Cu348   2.679   1_455 S
Cu224  O243    1.959   .     S
Cu224  O247    1.936   .     S
Cu224  O242    1.958   .     S
Cu224  N240    2.014   .     S
Cu224  O246    1.950   .     S
Cu224  Cu285   2.679   .     S
H234   C269    1.083   .     S
H235   C330    1.083   1_455 S
O243   C253    1.289   .     S
O244   C326    1.289   1_455 S
O245   C323    1.296   1_455 S
O246   C262    1.296   .     S
Br249  C275    1.931   .     S
Br250  C279    1.931   .     S
Br251  C282    1.924   .     S
Br252  C283    1.924   .     S
C253   C256    1.445   .     S
C253   O303    1.292   .     A
C254   C256    1.399   .     A
C254   H288    1.084   .     S
C255   C284    1.399   .     A
C255   C264    1.445   .     S
C255   C345    1.407   .     S
C257   H289    1.082   .     S
C257   C259    1.417   .     A
C257   N302    1.367   .     A
C258   H290    1.082   .     S
C258   C260    1.417   .     A
C258   N301    1.367   .     A
C259   H291    1.082   .     S
C259   N301    1.367   .     A
C260   H292    1.082   .     S
C260   N302    1.367   .     A
C261   C263    1.465   .     S
C261   O309    1.295   .     A
C261   O369    1.296   .     S
C262   C265    1.465   .     S
C262   O310    1.295   .     A
C263   C268    1.400   .     A
C263   C270    1.397   .     A
C264   O304    1.292   .     A
C264   O368    1.289   .     S
C265   C269    1.400   .     A
C265   C271    1.396   .     A
C266   H298    1.083   .     S
C266   C268    1.394   .     A
C266   C274    1.404   .     A
C267   C276    1.404   .     A
C267   C269    1.394   .     A
C267   H299    1.083   .     S
C268   H359    1.083   .     S
C270   H295    1.078   .     S
C270   C272    1.400   .     A
C271   H294    1.078   .     S
C271   C273    1.400   .     A
C272   C274    1.415   .     A
C272   C277    1.424   .     A
C273   C276    1.415   .     A
C273   C278    1.424   .     A
C274   C838    1.389   .     S
C275   C280    1.390   .     A
C275   C278    1.428   .     A
C276   C839    1.389   1_554 S
C277   C279    1.428   .     A
C277   C836    1.430   .     S
C278   C835    1.430   1_554 S
C279   C281    1.390   .     A
C280   H287    1.084   .     S
C280   C832    1.389   1_554 S
C281   H293    1.084   .     S
C281   C834    1.389   .     S
C282   C318    1.407   .     S
C283   C440    1.386   .     S
C284   H300    1.084   .     S
C284   C468    1.386   .     S
Cu285  O303    1.958   .     S
Cu285  O306    1.959   .     S
Cu285  N301    2.014   .     S
Cu285  O310    1.936   .     S
Cu285  O307    1.950   .     S
Cu286  O305    1.959   .     S
Cu286  O309    1.936   .     S
Cu286  O304    1.958   .     S
Cu286  N302    2.014   .     S
Cu286  O308    1.950   .     S
Cu286  Cu347   2.679   .     S
H296   C331    1.083   .     S
O305   C315    1.289   .     S
O308   C324    1.296   .     S
Br311  C337    1.931   .     S
Br312  C341    1.931   .     S
Br313  C344    1.924   .     S
Br314  C345    1.924   .     S
C315   C318    1.445   .     S
C315   O365    1.292   .     A
C316   C318    1.399   .     A
C316   H350    1.084   .     S
C317   C346    1.399   .     A
C317   C326    1.445   .     S
C317   C221    1.407   1_655 S
C319   H351    1.082   .     S
C319   C321    1.417   .     A
C319   N364    1.367   .     A
C320   H352    1.082   .     S
C320   C322    1.417   .     A
C320   N363    1.367   .     A
C321   H353    1.082   .     S
C321   N363    1.367   .     A
C322   H354    1.082   .     S
C322   N364    1.367   .     A
C323   C325    1.465   .     S
C323   O371    1.295   .     A
C323   O245    1.296   1_655 S
C324   C327    1.465   .     S
C324   O372    1.295   .     A
C325   C330    1.400   .     A
C325   C332    1.397   .     A
C326   O366    1.292   .     A
C326   O244    1.289   1_655 S
C327   C331    1.400   .     A
C327   C333    1.396   .     A
C328   H360    1.083   .     S
C328   C330    1.394   .     A
C328   C336    1.404   .     A
C329   C338    1.404   .     A
C329   C331    1.394   .     A
C329   H361    1.083   .     S
C330   H235    1.083   1_655 S
C332   H357    1.078   .     S
C332   C334    1.400   .     A
C333   H356    1.078   .     S
C333   C335    1.400   .     A
C334   C336    1.415   .     A
C334   C339    1.424   .     A
C335   C338    1.415   .     A
C335   C340    1.424   .     A
C336   C900    1.389   .     S
C337   C342    1.390   .     A
C337   C340    1.428   .     A
C338   C901    1.389   1_554 S
C339   C341    1.428   .     A
C339   C898    1.430   .     S
C340   C897    1.430   1_554 S
C341   C343    1.390   .     A
C342   H349    1.084   .     S
C342   C894    1.389   1_554 S
C343   H355    1.084   .     S
C343   C896    1.389   .     S
C344   C194    1.407   1_655 S
C345   C502    1.386   .     S
C346   H362    1.084   .     S
C346   C530    1.386   .     S
Cu347  O365    1.958   .     S
Cu347  O368    1.959   .     S
Cu347  N363    2.014   .     S
Cu347  O372    1.936   .     S
Cu347  O369    1.950   .     S
Cu348  O367    1.959   .     S
Cu348  O371    1.936   .     S
Cu348  O366    1.958   .     S
Cu348  N364    2.014   .     S
Cu348  O370    1.950   .     S
Cu348  Cu223   2.679   1_655 S
H358   C207    1.083   1_655 S
O367   C191    1.289   1_655 S
O370   C200    1.296   1_655 S
Br373  C399    1.931   .     S
Br374  C403    1.931   .     S
Br375  C406    1.924   .     S
Br376  C407    1.924   .     S
C377   C380    1.445   .     S
C377   O427    1.292   .     A
C377   O553    1.289   1_455 S
C378   C380    1.399   .     A
C378   H412    1.084   .     S
C379   C408    1.399   .     A
C379   C388    1.445   .     S
C379   C469    1.407   .     S
C380   C530    1.407   1_455 S
C381   H413    1.082   .     S
C381   C383    1.417   .     A
C381   N426    1.367   .     A
C382   H414    1.082   .     S
C382   C384    1.417   .     A
C382   N425    1.367   .     A
C383   H415    1.082   .     S
C383   N425    1.367   .     A
C384   H416    1.082   .     S
C384   N426    1.367   .     A
C385   C387    1.465   .     S
C385   O433    1.295   .     A
C385   O493    1.296   .     S
C386   C389    1.465   .     S
C386   O434    1.295   .     A
C386   O556    1.296   1_455 S
C387   C392    1.400   .     A
C387   C394    1.397   .     A
C388   O428    1.292   .     A
C388   O492    1.289   .     S
C389   C393    1.400   .     A
C389   C395    1.396   .     A
C390   H422    1.083   .     S
C390   C392    1.394   .     A
C390   C398    1.404   .     A
C391   C400    1.404   .     A
C391   C393    1.394   .     A
C391   H423    1.083   .     S
C392   H483    1.083   .     S
C393   H544    1.083   1_455 S
C394   H419    1.078   .     S
C394   C396    1.400   .     A
C395   H418    1.078   .     S
C395   C397    1.400   .     A
C396   C398    1.415   .     A
C396   C401    1.424   .     A
C397   C400    1.415   .     A
C397   C402    1.424   .     A
C398   C962    1.389   .     S
C399   C404    1.390   .     A
C399   C402    1.428   .     A
C400   C963    1.389   1_554 S
C401   C403    1.428   .     A
C401   C960    1.430   .     S
C402   C959    1.430   1_554 S
C403   C405    1.390   .     A
C404   H411    1.084   .     S
C404   C956    1.389   1_554 S
C405   H417    1.084   .     S
C405   C958    1.389   .     S
C406   C442    1.407   .     S
C407   C6      1.386   1_565 S
C407   C503    1.407   1_455 S
C408   H424    1.084   .     S
C408   C34     1.386   1_565 S
Cu409  O427    1.958   .     S
Cu409  O430    1.959   .     S
Cu409  N425    2.014   .     S
Cu409  O434    1.936   .     S
Cu409  O431    1.950   .     S
Cu409  Cu534   2.679   1_455 S
Cu410  O429    1.959   .     S
Cu410  O433    1.936   .     S
Cu410  O428    1.958   .     S
Cu410  N426    2.014   .     S
Cu410  O432    1.950   .     S
Cu410  Cu471   2.679   .     S
H420   C455    1.083   .     S
H421   C516    1.083   1_455 S
O429   C439    1.289   .     S
O430   C512    1.289   1_455 S
O431   C509    1.296   1_455 S
O432   C448    1.296   .     S
Br435  C461    1.931   .     S
Br436  C465    1.931   .     S
Br437  C468    1.924   .     S
Br438  C469    1.924   .     S
C439   C442    1.445   .     S
C439   O489    1.292   .     A
C440   C442    1.399   .     A
C440   H474    1.084   .     S
C441   C470    1.399   .     A
C441   C450    1.445   .     S
C441   C531    1.407   .     S
C443   H475    1.082   .     S
C443   C445    1.417   .     A
C443   N488    1.367   .     A
C444   H476    1.082   .     S
C444   C446    1.417   .     A
C444   N487    1.367   .     A
C445   H477    1.082   .     S
C445   N487    1.367   .     A
C446   H478    1.082   .     S
C446   N488    1.367   .     A
C447   C449    1.465   .     S
C447   O495    1.295   .     A
C447   O555    1.296   .     S
C448   C451    1.465   .     S
C448   O496    1.295   .     A
C449   C454    1.400   .     A
C449   C456    1.397   .     A
C450   O490    1.292   .     A
C450   O554    1.289   .     S
C451   C455    1.400   .     A
C451   C457    1.396   .     A
C452   H484    1.083   .     S
C452   C454    1.394   .     A
C452   C460    1.404   .     A
C453   C462    1.404   .     A
C453   C455    1.394   .     A
C453   H485    1.083   .     S
C454   H545    1.083   .     S
C456   H481    1.078   .     S
C456   C458    1.400   .     A
C457   H480    1.078   .     S
C457   C459    1.400   .     A
C458   C460    1.415   .     A
C458   C463    1.424   .     A
C459   C462    1.415   .     A
C459   C464    1.424   .     A
C460   C1024   1.389   .     S
C461   C466    1.390   .     A
C461   C464    1.428   .     A
C462   C1025   1.389   1_554 S
C463   C465    1.428   .     A
C463   C1022   1.430   .     S
C464   C1021   1.430   1_554 S
C465   C467    1.390   .     A
C466   H473    1.084   .     S
C466   C1018   1.389   1_554 S
C467   H479    1.084   .     S
C467   C1020   1.389   .     S
C468   C504    1.407   .     S
C469   C68     1.386   1_565 S
C470   H486    1.084   .     S
C470   C96     1.386   1_565 S
Cu471  O489    1.958   .     S
Cu471  O492    1.959   .     S
Cu471  N487    2.014   .     S
Cu471  O496    1.936   .     S
Cu471  O493    1.950   .     S
Cu472  O491    1.959   .     S
Cu472  O495    1.936   .     S
Cu472  O490    1.958   .     S
Cu472  N488    2.014   .     S
Cu472  O494    1.950   .     S
Cu472  Cu533   2.679   .     S
H482   C517    1.083   .     S
O491   C501    1.289   .     S
O494   C510    1.296   .     S
Br497  C523    1.931   .     S
Br498  C527    1.931   .     S
Br499  C530    1.924   .     S
Br500  C531    1.924   .     S
C501   C504    1.445   .     S
C501   O551    1.292   .     A
C502   C504    1.399   .     A
C502   H536    1.084   .     S
C503   C532    1.399   .     A
C503   C512    1.445   .     S
C503   C407    1.407   1_655 S
C505   H537    1.082   .     S
C505   C507    1.417   .     A
C505   N550    1.367   .     A
C506   H538    1.082   .     S
C506   C508    1.417   .     A
C506   N549    1.367   .     A
C507   H539    1.082   .     S
C507   N549    1.367   .     A
C508   H540    1.082   .     S
C508   N550    1.367   .     A
C509   C511    1.465   .     S
C509   O557    1.295   .     A
C509   O431    1.296   1_655 S
C510   C513    1.465   .     S
C510   O558    1.295   .     A
C511   C516    1.400   .     A
C511   C518    1.397   .     A
C512   O552    1.292   .     A
C512   O430    1.289   1_655 S
C513   C517    1.400   .     A
C513   C519    1.396   .     A
C514   H546    1.083   .     S
C514   C516    1.394   .     A
C514   C522    1.404   .     A
C515   C524    1.404   .     A
C515   C517    1.394   .     A
C515   H547    1.083   .     S
C516   H421    1.083   1_655 S
C518   H543    1.078   .     S
C518   C520    1.400   .     A
C519   H542    1.078   .     S
C519   C521    1.400   .     A
C520   C522    1.415   .     A
C520   C525    1.424   .     A
C521   C524    1.415   .     A
C521   C526    1.424   .     A
C522   C1086   1.389   .     S
C523   C528    1.390   .     A
C523   C526    1.428   .     A
C524   C1087   1.389   1_554 S
C525   C527    1.428   .     A
C525   C1084   1.430   .     S
C526   C1083   1.430   1_554 S
C527   C529    1.390   .     A
C528   H535    1.084   .     S
C528   C1080   1.389   1_554 S
C529   H541    1.084   .     S
C529   C1082   1.389   .     S
C530   C380    1.407   1_655 S
C531   C130    1.386   1_565 S
C532   H548    1.084   .     S
C532   C158    1.386   1_565 S
Cu533  O551    1.958   .     S
Cu533  O554    1.959   .     S
Cu533  N549    2.014   .     S
Cu533  O558    1.936   .     S
Cu533  O555    1.950   .     S
Cu534  O553    1.959   .     S
Cu534  O557    1.936   .     S
Cu534  O552    1.958   .     S
Cu534  N550    2.014   .     S
Cu534  O556    1.950   .     S
Cu534  Cu409   2.679   1_655 S
H544   C393    1.083   1_655 S
O553   C377    1.289   1_655 S
O556   C386    1.296   1_655 S
Br559  C585    1.931   .     S
Br560  C589    1.931   .     S
Br561  C592    1.924   .     S
Br562  C593    1.924   .     S
C563   C566    1.445   .     S
C563   O613    1.292   .     A
C563   O739    1.289   1_455 S
C564   C566    1.399   .     A
C564   H598    1.084   .     S
C564   C965    1.386   1_545 S
C565   C594    1.399   .     A
C565   C574    1.445   .     S
C565   C655    1.407   .     S
C566   C716    1.407   1_455 S
C567   H599    1.082   .     S
C567   C569    1.417   .     A
C567   N612    1.367   .     A
C568   H600    1.082   .     S
C568   C570    1.417   .     A
C568   N611    1.367   .     A
C569   H601    1.082   .     S
C569   N611    1.367   .     A
C570   H602    1.082   .     S
C570   N612    1.367   .     A
C571   C573    1.465   .     S
C571   O619    1.295   .     A
C571   O679    1.296   .     S
C572   C575    1.465   .     S
C572   O620    1.295   .     A
C572   O742    1.296   1_455 S
C573   C578    1.400   .     A
C573   C580    1.397   .     A
C574   O614    1.292   .     A
C574   O678    1.289   .     S
C575   C579    1.400   .     A
C575   C581    1.396   .     A
C576   H608    1.083   .     S
C576   C578    1.394   .     A
C576   C584    1.404   .     A
C577   C586    1.404   .     A
C577   C579    1.394   .     A
C577   H609    1.083   .     S
C578   H669    1.083   .     S
C579   H730    1.083   1_455 S
C580   H605    1.078   .     S
C580   C582    1.400   .     A
C581   H604    1.078   .     S
C581   C583    1.400   .     A
C582   C584    1.415   .     A
C582   C587    1.424   .     A
C583   C586    1.415   .     A
C583   C588    1.424   .     A
C584   C32     1.389   1_556 S
C585   C590    1.390   .     A
C585   C588    1.428   .     A
C587   C589    1.428   .     A
C587   C30     1.430   1_556 S
C589   C591    1.390   .     A
C590   H597    1.084   .     S
C591   H603    1.084   .     S
C591   C28     1.389   1_556 S
C592   C628    1.407   .     S
C592   C966    1.386   1_545 S
C593   C750    1.386   .     S
C593   C689    1.407   1_455 S
C594   H610    1.084   .     S
C594   C778    1.386   .     S
Cu595  O613    1.958   .     S
Cu595  O616    1.959   .     S
Cu595  N611    2.014   .     S
Cu595  O620    1.936   .     S
Cu595  O617    1.950   .     S
Cu595  Cu720   2.679   1_455 S
Cu596  O615    1.959   .     S
Cu596  O619    1.936   .     S
Cu596  O614    1.958   .     S
Cu596  N612    2.014   .     S
Cu596  O618    1.950   .     S
Cu596  Cu657   2.679   .     S
H606   C641    1.083   .     S
H607   C702    1.083   1_455 S
O615   C625    1.289   .     S
O616   C698    1.289   1_455 S
O617   C695    1.296   1_455 S
O618   C634    1.296   .     S
Br621  C647    1.931   .     S
Br622  C651    1.931   .     S
Br623  C654    1.924   .     S
Br624  C655    1.924   .     S
C625   C628    1.445   .     S
C625   O675    1.292   .     A
C626   C628    1.399   .     A
C626   H660    1.084   .     S
C626   C1027   1.386   1_545 S
C627   C656    1.399   .     A
C627   C636    1.445   .     S
C627   C717    1.407   .     S
C629   H661    1.082   .     S
C629   C631    1.417   .     A
C629   N674    1.367   .     A
C630   H662    1.082   .     S
C630   C632    1.417   .     A
C630   N673    1.367   .     A
C631   H663    1.082   .     S
C631   N673    1.367   .     A
C632   H664    1.082   .     S
C632   N674    1.367   .     A
C633   C635    1.465   .     S
C633   O681    1.295   .     A
C633   O741    1.296   .     S
C634   C637    1.465   .     S
C634   O682    1.295   .     A
C635   C640    1.400   .     A
C635   C642    1.397   .     A
C636   O676    1.292   .     A
C636   O740    1.289   .     S
C637   C641    1.400   .     A
C637   C643    1.396   .     A
C638   H670    1.083   .     S
C638   C640    1.394   .     A
C638   C646    1.404   .     A
C639   C648    1.404   .     A
C639   C641    1.394   .     A
C639   H671    1.083   .     S
C640   H731    1.083   .     S
C642   H667    1.078   .     S
C642   C644    1.400   .     A
C643   H666    1.078   .     S
C643   C645    1.400   .     A
C644   C646    1.415   .     A
C644   C649    1.424   .     A
C645   C648    1.415   .     A
C645   C650    1.424   .     A
C646   C94     1.389   1_556 S
C647   C652    1.390   .     A
C647   C650    1.428   .     A
C649   C651    1.428   .     A
C649   C92     1.430   1_556 S
C651   C653    1.390   .     A
C652   H659    1.084   .     S
C653   H665    1.084   .     S
C653   C90     1.389   1_556 S
C654   C690    1.407   .     S
C654   C1028   1.386   1_545 S
C655   C812    1.386   .     S
C656   H672    1.084   .     S
C656   C840    1.386   .     S
Cu657  O675    1.958   .     S
Cu657  O678    1.959   .     S
Cu657  N673    2.014   .     S
Cu657  O682    1.936   .     S
Cu657  O679    1.950   .     S
Cu658  O677    1.959   .     S
Cu658  O681    1.936   .     S
Cu658  O676    1.958   .     S
Cu658  N674    2.014   .     S
Cu658  O680    1.950   .     S
Cu658  Cu719   2.679   .     S
H668   C703    1.083   .     S
O677   C687    1.289   .     S
O680   C696    1.296   .     S
Br683  C709    1.931   .     S
Br684  C713    1.931   .     S
Br685  C716    1.924   .     S
Br686  C717    1.924   .     S
C687   C690    1.445   .     S
C687   O737    1.292   .     A
C688   C690    1.399   .     A
C688   H722    1.084   .     S
C688   C1089   1.386   1_545 S
C689   C718    1.399   .     A
C689   C698    1.445   .     S
C689   C593    1.407   1_655 S
C691   H723    1.082   .     S
C691   C693    1.417   .     A
C691   N736    1.367   .     A
C692   H724    1.082   .     S
C692   C694    1.417   .     A
C692   N735    1.367   .     A
C693   H725    1.082   .     S
C693   N735    1.367   .     A
C694   H726    1.082   .     S
C694   N736    1.367   .     A
C695   C697    1.465   .     S
C695   O743    1.295   .     A
C695   O617    1.296   1_655 S
C696   C699    1.465   .     S
C696   O744    1.295   .     A
C697   C702    1.400   .     A
C697   C704    1.397   .     A
C698   O738    1.292   .     A
C698   O616    1.289   1_655 S
C699   C703    1.400   .     A
C699   C705    1.396   .     A
C700   H732    1.083   .     S
C700   C702    1.394   .     A
C700   C708    1.404   .     A
C701   C710    1.404   .     A
C701   C703    1.394   .     A
C701   H733    1.083   .     S
C702   H607    1.083   1_655 S
C704   H729    1.078   .     S
C704   C706    1.400   .     A
C705   H728    1.078   .     S
C705   C707    1.400   .     A
C706   C708    1.415   .     A
C706   C711    1.424   .     A
C707   C710    1.415   .     A
C707   C712    1.424   .     A
C708   C156    1.389   1_556 S
C709   C714    1.390   .     A
C709   C712    1.428   .     A
C711   C713    1.428   .     A
C711   C154    1.430   1_556 S
C713   C715    1.390   .     A
C714   H721    1.084   .     S
C715   H727    1.084   .     S
C715   C152    1.389   1_556 S
C716   C566    1.407   1_655 S
C716   C1090   1.386   1_545 S
C717   C874    1.386   .     S
C718   H734    1.084   .     S
C718   C902    1.386   .     S
Cu719  O737    1.958   .     S
Cu719  O740    1.959   .     S
Cu719  N735    2.014   .     S
Cu719  O744    1.936   .     S
Cu719  O741    1.950   .     S
Cu720  O739    1.959   .     S
Cu720  O743    1.936   .     S
Cu720  O738    1.958   .     S
Cu720  N736    2.014   .     S
Cu720  O742    1.950   .     S
Cu720  Cu595   2.679   1_655 S
H730   C579    1.083   1_655 S
O739   C563    1.289   1_655 S
O742   C572    1.296   1_655 S
Br745  C771    1.931   .     S
Br746  C775    1.931   .     S
Br747  C778    1.924   .     S
Br748  C779    1.924   .     S
C749   C752    1.445   .     S
C749   O799    1.292   .     A
C749   O925    1.289   1_455 S
C750   C752    1.399   .     A
C750   H784    1.084   .     S
C751   C780    1.399   .     A
C751   C760    1.445   .     S
C751   C841    1.407   .     S
C752   C902    1.407   1_455 S
C753   H785    1.082   .     S
C753   C755    1.417   .     A
C753   N798    1.367   .     A
C754   H786    1.082   .     S
C754   C756    1.417   .     A
C754   N797    1.367   .     A
C755   H787    1.082   .     S
C755   N797    1.367   .     A
C756   H788    1.082   .     S
C756   N798    1.367   .     A
C757   C759    1.465   .     S
C757   O805    1.295   .     A
C757   O865    1.296   .     S
C758   C761    1.465   .     S
C758   O806    1.295   .     A
C758   O928    1.296   1_455 S
C759   C764    1.400   .     A
C759   C766    1.397   .     A
C760   O800    1.292   .     A
C760   O864    1.289   .     S
C761   C765    1.400   .     A
C761   C767    1.396   .     A
C762   H794    1.083   .     S
C762   C764    1.394   .     A
C762   C770    1.404   .     A
C763   C772    1.404   .     A
C763   C765    1.394   .     A
C763   H795    1.083   .     S
C764   H855    1.083   .     S
C765   H916    1.083   1_455 S
C766   H791    1.078   .     S
C766   C768    1.400   .     A
C767   H790    1.078   .     S
C767   C769    1.400   .     A
C768   C770    1.415   .     A
C768   C773    1.424   .     A
C769   C772    1.415   .     A
C769   C774    1.424   .     A
C770   C218    1.389   1_556 S
C771   C776    1.390   .     A
C771   C774    1.428   .     A
C773   C775    1.428   .     A
C773   C216    1.430   1_556 S
C775   C777    1.390   .     A
C776   H783    1.084   .     S
C777   H789    1.084   .     S
C777   C214    1.389   1_556 S
C778   C814    1.407   .     S
C779   C936    1.386   .     S
C779   C875    1.407   1_455 S
C780   H796    1.084   .     S
C780   C964    1.386   .     S
Cu781  O799    1.958   .     S
Cu781  O802    1.959   .     S
Cu781  N797    2.014   .     S
Cu781  O806    1.936   .     S
Cu781  O803    1.950   .     S
Cu781  Cu906   2.679   1_455 S
Cu782  O801    1.959   .     S
Cu782  O805    1.936   .     S
Cu782  O800    1.958   .     S
Cu782  N798    2.014   .     S
Cu782  O804    1.950   .     S
Cu782  Cu843   2.679   .     S
H792   C827    1.083   .     S
H793   C888    1.083   1_455 S
O801   C811    1.289   .     S
O802   C884    1.289   1_455 S
O803   C881    1.296   1_455 S
O804   C820    1.296   .     S
Br807  C833    1.931   .     S
Br808  C837    1.931   .     S
Br809  C840    1.924   .     S
Br810  C841    1.924   .     S
C811   C814    1.445   .     S
C811   O861    1.292   .     A
C812   C814    1.399   .     A
C812   H846    1.084   .     S
C813   C842    1.399   .     A
C813   C822    1.445   .     S
C813   C903    1.407   .     S
C815   H847    1.082   .     S
C815   C817    1.417   .     A
C815   N860    1.367   .     A
C816   H848    1.082   .     S
C816   C818    1.417   .     A
C816   N859    1.367   .     A
C817   H849    1.082   .     S
C817   N859    1.367   .     A
C818   H850    1.082   .     S
C818   N860    1.367   .     A
C819   C821    1.465   .     S
C819   O867    1.295   .     A
C819   O927    1.296   .     S
C820   C823    1.465   .     S
C820   O868    1.295   .     A
C821   C826    1.400   .     A
C821   C828    1.397   .     A
C822   O862    1.292   .     A
C822   O926    1.289   .     S
C823   C827    1.400   .     A
C823   C829    1.396   .     A
C824   H856    1.083   .     S
C824   C826    1.394   .     A
C824   C832    1.404   .     A
C825   C834    1.404   .     A
C825   C827    1.394   .     A
C825   H857    1.083   .     S
C826   H917    1.083   .     S
C828   H853    1.078   .     S
C828   C830    1.400   .     A
C829   H852    1.078   .     S
C829   C831    1.400   .     A
C830   C832    1.415   .     A
C830   C835    1.424   .     A
C831   C834    1.415   .     A
C831   C836    1.424   .     A
C832   C280    1.389   1_556 S
C833   C838    1.390   .     A
C833   C836    1.428   .     A
C835   C837    1.428   .     A
C835   C278    1.430   1_556 S
C837   C839    1.390   .     A
C838   H845    1.084   .     S
C839   H851    1.084   .     S
C839   C276    1.389   1_556 S
C840   C876    1.407   .     S
C841   C998    1.386   .     S
C842   H858    1.084   .     S
C842   C1026   1.386   .     S
Cu843  O861    1.958   .     S
Cu843  O864    1.959   .     S
Cu843  N859    2.014   .     S
Cu843  O868    1.936   .     S
Cu843  O865    1.950   .     S
Cu844  O863    1.959   .     S
Cu844  O867    1.936   .     S
Cu844  O862    1.958   .     S
Cu844  N860    2.014   .     S
Cu844  O866    1.950   .     S
Cu844  Cu905   2.679   .     S
H854   C889    1.083   .     S
O863   C873    1.289   .     S
O866   C882    1.296   .     S
Br869  C895    1.931   .     S
Br870  C899    1.931   .     S
Br871  C902    1.924   .     S
Br872  C903    1.924   .     S
C873   C876    1.445   .     S
C873   O923    1.292   .     A
C874   C876    1.399   .     A
C874   H908    1.084   .     S
C875   C904    1.399   .     A
C875   C884    1.445   .     S
C875   C779    1.407   1_655 S
C877   H909    1.082   .     S
C877   C879    1.417   .     A
C877   N922    1.367   .     A
C878   H910    1.082   .     S
C878   C880    1.417   .     A
C878   N921    1.367   .     A
C879   H911    1.082   .     S
C879   N921    1.367   .     A
C880   H912    1.082   .     S
C880   N922    1.367   .     A
C881   C883    1.465   .     S
C881   O929    1.295   .     A
C881   O803    1.296   1_655 S
C882   C885    1.465   .     S
C882   O930    1.295   .     A
C883   C888    1.400   .     A
C883   C890    1.397   .     A
C884   O924    1.292   .     A
C884   O802    1.289   1_655 S
C885   C889    1.400   .     A
C885   C891    1.396   .     A
C886   H918    1.083   .     S
C886   C888    1.394   .     A
C886   C894    1.404   .     A
C887   C896    1.404   .     A
C887   C889    1.394   .     A
C887   H919    1.083   .     S
C888   H793    1.083   1_655 S
C890   H915    1.078   .     S
C890   C892    1.400   .     A
C891   H914    1.078   .     S
C891   C893    1.400   .     A
C892   C894    1.415   .     A
C892   C897    1.424   .     A
C893   C896    1.415   .     A
C893   C898    1.424   .     A
C894   C342    1.389   1_556 S
C895   C900    1.390   .     A
C895   C898    1.428   .     A
C897   C899    1.428   .     A
C897   C340    1.430   1_556 S
C899   C901    1.390   .     A
C900   H907    1.084   .     S
C901   H913    1.084   .     S
C901   C338    1.389   1_556 S
C902   C752    1.407   1_655 S
C903   C1060   1.386   .     S
C904   H920    1.084   .     S
C904   C1088   1.386   .     S
Cu905  O923    1.958   .     S
Cu905  O926    1.959   .     S
Cu905  N921    2.014   .     S
Cu905  O930    1.936   .     S
Cu905  O927    1.950   .     S
Cu906  O925    1.959   .     S
Cu906  O929    1.936   .     S
Cu906  O924    1.958   .     S
Cu906  N922    2.014   .     S
Cu906  O928    1.950   .     S
Cu906  Cu781   2.679   1_655 S
H916   C765    1.083   1_655 S
O925   C749    1.289   1_655 S
O928   C758    1.296   1_655 S
Br931  C957    1.931   .     S
Br932  C961    1.931   .     S
Br933  C964    1.924   .     S
Br934  C965    1.924   .     S
C935   C938    1.445   .     S
C935   O985    1.292   .     A
C935   O1111   1.289   1_455 S
C936   C938    1.399   .     A
C936   H970    1.084   .     S
C937   C966    1.399   .     A
C937   C946    1.445   .     S
C937   C1027   1.407   .     S
C938   C1088   1.407   1_455 S
C939   H971    1.082   .     S
C939   C941    1.417   .     A
C939   N984    1.367   .     A
C940   H972    1.082   .     S
C940   C942    1.417   .     A
C940   N983    1.367   .     A
C941   H973    1.082   .     S
C941   N983    1.367   .     A
C942   H974    1.082   .     S
C942   N984    1.367   .     A
C943   C945    1.465   .     S
C943   O991    1.295   .     A
C943   O1051   1.296   .     S
C944   C947    1.465   .     S
C944   O992    1.295   .     A
C944   O1114   1.296   1_455 S
C945   C950    1.400   .     A
C945   C952    1.397   .     A
C946   O986    1.292   .     A
C946   O1050   1.289   .     S
C947   C951    1.400   .     A
C947   C953    1.396   .     A
C948   H980    1.083   .     S
C948   C950    1.394   .     A
C948   C956    1.404   .     A
C949   C958    1.404   .     A
C949   C951    1.394   .     A
C949   H981    1.083   .     S
C950   H1041   1.083   .     S
C951   H1102   1.083   1_455 S
C952   H977    1.078   .     S
C952   C954    1.400   .     A
C953   H976    1.078   .     S
C953   C955    1.400   .     A
C954   C956    1.415   .     A
C954   C959    1.424   .     A
C955   C958    1.415   .     A
C955   C960    1.424   .     A
C956   C404    1.389   1_556 S
C957   C962    1.390   .     A
C957   C960    1.428   .     A
C959   C961    1.428   .     A
C959   C402    1.430   1_556 S
C961   C963    1.390   .     A
C962   H969    1.084   .     S
C963   H975    1.084   .     S
C963   C400    1.389   1_556 S
C964   C1000   1.407   .     S
C965   C564    1.386   1_565 S
C965   C1061   1.407   1_455 S
C966   H982    1.084   .     S
C966   C592    1.386   1_565 S
Cu967  O985    1.958   .     S
Cu967  O988    1.959   .     S
Cu967  N983    2.014   .     S
Cu967  O992    1.936   .     S
Cu967  O989    1.950   .     S
Cu967  Cu1092  2.679   1_455 S
Cu968  O987    1.959   .     S
Cu968  O991    1.936   .     S
Cu968  O986    1.958   .     S
Cu968  N984    2.014   .     S
Cu968  O990    1.950   .     S
Cu968  Cu1029  2.679   .     S
H978   C1013   1.083   .     S
H979   C1074   1.083   1_455 S
O987   C997    1.289   .     S
O988   C1070   1.289   1_455 S
O989   C1067   1.296   1_455 S
O990   C1006   1.296   .     S
Br993  C1019   1.931   .     S
Br994  C1023   1.931   .     S
Br995  C1026   1.924   .     S
Br996  C1027   1.924   .     S
C997   C1000   1.445   .     S
C997   O1047   1.292   .     A
C998   C1000   1.399   .     A
C998   H1032   1.084   .     S
C999   C1028   1.399   .     A
C999   C1008   1.445   .     S
C999   C1089   1.407   .     S
C1001  H1033   1.082   .     S
C1001  C1003   1.417   .     A
C1001  N1046   1.367   .     A
C1002  H1034   1.082   .     S
C1002  C1004   1.417   .     A
C1002  N1045   1.367   .     A
C1003  H1035   1.082   .     S
C1003  N1045   1.367   .     A
C1004  H1036   1.082   .     S
C1004  N1046   1.367   .     A
C1005  C1007   1.465   .     S
C1005  O1053   1.295   .     A
C1005  O1113   1.296   .     S
C1006  C1009   1.465   .     S
C1006  O1054   1.295   .     A
C1007  C1012   1.400   .     A
C1007  C1014   1.397   .     A
C1008  O1048   1.292   .     A
C1008  O1112   1.289   .     S
C1009  C1013   1.400   .     A
C1009  C1015   1.396   .     A
C1010  H1042   1.083   .     S
C1010  C1012   1.394   .     A
C1010  C1018   1.404   .     A
C1011  C1020   1.404   .     A
C1011  C1013   1.394   .     A
C1011  H1043   1.083   .     S
C1012  H1103   1.083   .     S
C1014  H1039   1.078   .     S
C1014  C1016   1.400   .     A
C1015  H1038   1.078   .     S
C1015  C1017   1.400   .     A
C1016  C1018   1.415   .     A
C1016  C1021   1.424   .     A
C1017  C1020   1.415   .     A
C1017  C1022   1.424   .     A
C1018  C466    1.389   1_556 S
C1019  C1024   1.390   .     A
C1019  C1022   1.428   .     A
C1021  C1023   1.428   .     A
C1021  C464    1.430   1_556 S
C1023  C1025   1.390   .     A
C1024  H1031   1.084   .     S
C1025  H1037   1.084   .     S
C1025  C462    1.389   1_556 S
C1026  C1062   1.407   .     S
C1027  C626    1.386   1_565 S
C1028  H1044   1.084   .     S
C1028  C654    1.386   1_565 S
Cu1029 O1047   1.958   .     S
Cu1029 O1050   1.959   .     S
Cu1029 N1045   2.014   .     S
Cu1029 O1054   1.936   .     S
Cu1029 O1051   1.950   .     S
Cu1030 O1049   1.959   .     S
Cu1030 O1053   1.936   .     S
Cu1030 O1048   1.958   .     S
Cu1030 N1046   2.014   .     S
Cu1030 O1052   1.950   .     S
Cu1030 Cu1091  2.679   .     S
H1040  C1075   1.083   .     S
O1049  C1059   1.289   .     S
O1052  C1068   1.296   .     S
Br1055 C1081   1.931   .     S
Br1056 C1085   1.931   .     S
Br1057 C1088   1.924   .     S
Br1058 C1089   1.924   .     S
C1059  C1062   1.445   .     S
C1059  O1109   1.292   .     A
C1060  C1062   1.399   .     A
C1060  H1094   1.084   .     S
C1061  C1090   1.399   .     A
C1061  C1070   1.445   .     S
C1061  C965    1.407   1_655 S
C1063  H1095   1.082   .     S
C1063  C1065   1.417   .     A
C1063  N1108   1.367   .     A
C1064  H1096   1.082   .     S
C1064  C1066   1.417   .     A
C1064  N1107   1.367   .     A
C1065  H1097   1.082   .     S
C1065  N1107   1.367   .     A
C1066  H1098   1.082   .     S
C1066  N1108   1.367   .     A
C1067  C1069   1.465   .     S
C1067  O1115   1.295   .     A
C1067  O989    1.296   1_655 S
C1068  C1071   1.465   .     S
C1068  O1116   1.295   .     A
C1069  C1074   1.400   .     A
C1069  C1076   1.397   .     A
C1070  O1110   1.292   .     A
C1070  O988    1.289   1_655 S
C1071  C1075   1.400   .     A
C1071  C1077   1.396   .     A
C1072  H1104   1.083   .     S
C1072  C1074   1.394   .     A
C1072  C1080   1.404   .     A
C1073  C1082   1.404   .     A
C1073  C1075   1.394   .     A
C1073  H1105   1.083   .     S
C1074  H979    1.083   1_655 S
C1076  H1101   1.078   .     S
C1076  C1078   1.400   .     A
C1077  H1100   1.078   .     S
C1077  C1079   1.400   .     A
C1078  C1080   1.415   .     A
C1078  C1083   1.424   .     A
C1079  C1082   1.415   .     A
C1079  C1084   1.424   .     A
C1080  C528    1.389   1_556 S
C1081  C1086   1.390   .     A
C1081  C1084   1.428   .     A
C1083  C1085   1.428   .     A
C1083  C526    1.430   1_556 S
C1085  C1087   1.390   .     A
C1086  H1093   1.084   .     S
C1087  H1099   1.084   .     S
C1087  C524    1.389   1_556 S
C1088  C938    1.407   1_655 S
C1089  C688    1.386   1_565 S
C1090  H1106   1.084   .     S
C1090  C716    1.386   1_565 S
Cu1091 O1109   1.958   .     S
Cu1091 O1112   1.959   .     S
Cu1091 N1107   2.014   .     S
Cu1091 O1116   1.936   .     S
Cu1091 O1113   1.950   .     S
Cu1092 O1111   1.959   .     S
Cu1092 O1115   1.936   .     S
Cu1092 O1110   1.958   .     S
Cu1092 N1108   2.014   .     S
Cu1092 O1114   1.950   .     S
Cu1092 Cu967   2.679   1_655 S
H1102  C951    1.083   1_655 S
O1111  C935    1.289   1_655 S
O1114  C944    1.296   1_655 S
