data_str_m3_o2_o5_pcu_sym.119
_audit_creation_date              2020-01-03
_audit_creation_method            'Materials Studio'
_symmetry_space_group_name_H-M    'P1'
_symmetry_Int_Tables_number       1
_symmetry_cell_setting            triclinic
loop_
_symmetry_equiv_pos_as_xyz
  x,y,z
_cell_length_a                    30.1961
_cell_length_b                    28.8074
_cell_length_c                    26.8661
_cell_angle_alpha                 89.7850
_cell_angle_beta                  96.9563
_cell_angle_gamma                 90.3161
loop_
_atom_site_label
_atom_site_type_symbol
_atom_site_fract_x
_atom_site_fract_y
_atom_site_fract_z
_atom_site_U_iso_or_equiv
_atom_site_adp_type
_atom_site_occupancy
C1     C     0.16398   0.24975   0.16728   0.00000  Uiso   1.00
C2     C     0.33588   0.24960   0.16394   0.00000  Uiso   1.00
C3     C     0.23636   0.09788   0.12466   0.00000  Uiso   1.00
C4     C     0.27822   0.39739   0.20342   0.00000  Uiso   1.00
C5     C     0.26177   0.10309   0.21180   0.00000  Uiso   1.00
C6     C     0.22498   0.40099   0.13094   0.00000  Uiso   1.00
C7     C     0.25178   0.05109   0.12694   0.00000  Uiso   1.00
C8     C     0.28144   0.44696   0.20399   0.00000  Uiso   1.00
C9     C     0.25527   0.05417   0.21574   0.00000  Uiso   1.00
C10    C     0.21910   0.44911   0.13985   0.00000  Uiso   1.00
C11    C     0.24921   0.25008   0.07288   0.00000  Uiso   1.00
C12    C     0.24970   0.24995   0.26031   0.00000  Uiso   1.00
C13    C     0.25242   0.02672   0.17218   0.00000  Uiso   1.00
C14    C     0.25069   0.47375   0.17281   0.00000  Uiso   1.00
C15    C     0.24847   0.25021   0.02159   0.00000  Uiso   1.00
C16    C     0.24863   0.25002   0.31135   0.00000  Uiso   1.00
C17    C     0.04295   0.27263   0.12885   0.00000  Uiso   1.00
C18    C     0.44913   0.20311   0.14134   0.00000  Uiso   1.00
C19    C     0.45647   0.28258   0.17233   0.00000  Uiso   1.00
C20    C     0.04964   0.20871   0.18920   0.00000  Uiso   1.00
C21    C     0.08851   0.28099   0.13929   0.00000  Uiso   1.00
C22    C     0.40288   0.20419   0.14482   0.00000  Uiso   1.00
C23    C     0.41058   0.28671   0.16554   0.00000  Uiso   1.00
C24    C     0.09612   0.21058   0.19061   0.00000  Uiso   1.00
C25    C     0.11568   0.24799   0.16683   0.00000  Uiso   1.00
C26    C     0.38363   0.24696   0.15784   0.00000  Uiso   1.00
C27    C     0.02346   0.23943   0.15753   0.00000  Uiso   1.00
C28    C     0.47565   0.24107   0.15852   0.00000  Uiso   1.00
N29    N     0.25000   0.12623   0.16667   0.00000  Uiso   1.00
N30    N     0.25000   0.37376   0.16667   0.00000  Uiso   1.00
O31    O     0.18453   0.28974   0.16667   0.00000  Uiso   1.00
O32    O     0.31547   0.21026   0.16666   0.00000  Uiso   1.00
O33    O     0.31547   0.28974   0.16666   0.00000  Uiso   1.00
O34    O     0.18453   0.21026   0.16667   0.00000  Uiso   1.00
O35    O     0.25000   0.28973   0.09511   0.00000  Uiso   1.00
O36    O     0.25000   0.21027   0.23822   0.00000  Uiso   1.00
O37    O     0.25000   0.28973   0.23822   0.00000  Uiso   1.00
O38    O     0.25000   0.21027   0.09511   0.00000  Uiso   1.00
Zn39   Zn    0.25000   0.30307   0.16667   0.00000  Uiso   1.00
Zn40   Zn    0.25000   0.19693   0.16667   0.00000  Uiso   1.00
C41    C     0.19832   0.10782   0.08162   0.00000  Uiso   1.00
C42    C     0.17683   0.15073   0.07267   0.00000  Uiso   1.00
C43    C     0.14220   0.15830   0.03405   0.00000  Uiso   1.00
C44    C     0.12578   0.12196   0.00353   0.00000  Uiso   1.00
C45    C     0.14362   0.07813   0.01236   0.00000  Uiso   1.00
C46    C     0.17883   0.07114   0.05043   0.00000  Uiso   1.00
H47    H     0.18467   0.17905   0.09510   0.00000  Uiso   1.00
H48    H     0.12744   0.19241   0.02863   0.00000  Uiso   1.00
H49    H     0.09859   0.12743   0.30737   0.00000  Uiso   1.00
H50    H     0.12992   0.04914   0.32322   0.00000  Uiso   1.00
H51    H     0.18870   0.03576   0.05508   0.00000  Uiso   1.00
C52    C     0.31000   0.37333   0.24151   0.00000  Uiso   1.00
C53    C     0.29623   0.35678   0.28624   0.00000  Uiso   1.00
C54    C     0.32676   0.33760   0.32379   0.00000  Uiso   1.00
C55    C     0.37223   0.33810   0.31880   0.00000  Uiso   1.00
C56    C     0.38695   0.35951   0.27721   0.00000  Uiso   1.00
C57    C     0.35602   0.37769   0.23937   0.00000  Uiso   1.00
H58    H     0.26157   0.35671   0.29124   0.00000  Uiso   1.00
H59    H     0.31490   0.32257   0.02329   0.00000  Uiso   1.00
H60    H     0.39612   0.32309   0.01420   0.00000  Uiso   1.00
H61    H     0.42226   0.36263   0.27449   0.00000  Uiso   1.00
H62    H     0.36807   0.39627   0.20878   0.00000  Uiso   1.00
C63    C     0.28520   0.12679   0.25613   0.00000  Uiso   1.00
C64    C     0.32767   0.14593   0.25367   0.00000  Uiso   1.00
C65    C     0.35093   0.16777   0.29525   0.00000  Uiso   1.00
C66    C     0.33263   0.16899   0.00708   0.00000  Uiso   1.00
C67    C     0.29143   0.14788   0.01076   0.00000  Uiso   1.00
C68    C     0.26732   0.12761   0.30206   0.00000  Uiso   1.00
H69    H     0.34277   0.14392   0.21964   0.00000  Uiso   1.00
H70    H     0.38321   0.18345   0.29251   0.00000  Uiso   1.00
H71    H     0.35022   0.18653   0.03902   0.00000  Uiso   1.00
H72    H     0.27788   0.14766   0.04604   0.00000  Uiso   1.00
H73    H     0.23470   0.11321   0.30537   0.00000  Uiso   1.00
C74    C     0.21099   0.38604   0.07782   0.00000  Uiso   1.00
C75    C     0.22284   0.41428   0.03835   0.00000  Uiso   1.00
C76    C     0.20374   0.40704   0.32228   0.00000  Uiso   1.00
C77    C     0.17413   0.37030   0.31078   0.00000  Uiso   1.00
C78    C     0.16352   0.34091   0.01550   0.00000  Uiso   1.00
C79    C     0.18164   0.34915   0.06505   0.00000  Uiso   1.00
H80    H     0.24611   0.44281   0.04599   0.00000  Uiso   1.00
H81    H     0.21349   0.42846   0.29245   0.00000  Uiso   1.00
H82    H     0.16035   0.36401   0.27233   0.00000  Uiso   1.00
H83    H     0.14125   0.31171   0.00673   0.00000  Uiso   1.00
H84    H     0.17367   0.32577   0.09270   0.00000  Uiso   1.00
O85    O     0.01611   0.30096   0.09606   0.00000  Uiso   1.00
C86    C     0.02680   0.29523   0.04670   0.00000  Uiso   1.00
H87    H     0.03476   0.25864   0.03793   0.00000  Uiso   1.00
H88    H     0.05488   0.31842   0.03971   0.00000  Uiso   1.00
H89    H     0.49742   0.30555   0.02025   0.00000  Uiso   1.00
O90    O     0.46894   0.16510   0.12193   0.00000  Uiso   1.00
C91    C     0.46525   0.16981   0.06932   0.00000  Uiso   1.00
H92    H     0.48018   0.20295   0.05788   0.00000  Uiso   1.00
H93    H     0.42991   0.16721   0.05237   0.00000  Uiso   1.00
H94    H     0.48375   0.14106   0.05405   0.00000  Uiso   1.00
O95    O     0.48197   0.32172   0.18580   0.00000  Uiso   1.00
C96    C     0.00019   0.31792   0.23652   0.00000  Uiso   1.00
H97    H     0.47591   0.30379   0.26086   0.00000  Uiso   1.00
H98    H     0.01009   0.35309   0.25056   0.00000  Uiso   1.00
H99    H     0.03080   0.29643   0.24018   0.00000  Uiso   1.00
O100   O     0.02990   0.17547   0.21678   0.00000  Uiso   1.00
C101   C     0.02651   0.19318   0.26503   0.00000  Uiso   1.00
H102   H     0.05876   0.20763   0.28322   0.00000  Uiso   1.00
H103   H     0.01680   0.16441   0.28910   0.00000  Uiso   1.00
H104   H     0.49991   0.21977   0.26350   0.00000  Uiso   1.00
O105   O     0.10612   0.32068   0.12082   0.00000  Uiso   1.00
C106   C     0.09944   0.35787   0.15299   0.00000  Uiso   1.00
H107   H     0.06335   0.36528   0.15326   0.00000  Uiso   1.00
H108   H     0.11506   0.38933   0.13879   0.00000  Uiso   1.00
H109   H     0.11562   0.35122   0.19178   0.00000  Uiso   1.00
O110   O     0.37501   0.16697   0.12886   0.00000  Uiso   1.00
C111   C     0.39155   0.12375   0.14787   0.00000  Uiso   1.00
H112   H     0.41272   0.12651   0.18474   0.00000  Uiso   1.00
H113   H     0.40976   0.10608   0.11994   0.00000  Uiso   1.00
H114   H     0.36280   0.10096   0.15328   0.00000  Uiso   1.00
O115   O     0.39247   0.33015   0.16732   0.00000  Uiso   1.00
C116   C     0.38735   0.34893   0.11852   0.00000  Uiso   1.00
H117   H     0.36488   0.32677   0.09287   0.00000  Uiso   1.00
H118   H     0.42015   0.35358   0.10413   0.00000  Uiso   1.00
H119   H     0.37162   0.38357   0.11934   0.00000  Uiso   1.00
O120   O     0.12271   0.17970   0.22034   0.00000  Uiso   1.00
C121   C     0.12070   0.13574   0.19702   0.00000  Uiso   1.00
H122   H     0.12369   0.13800   0.15615   0.00000  Uiso   1.00
H123   H     0.08960   0.11702   0.20317   0.00000  Uiso   1.00
H124   H     0.14918   0.11476   0.21442   0.00000  Uiso   1.00
O125   O     0.26119   0.02803   0.08443   0.00000  Uiso   1.00
C126   C     0.30586   0.03713   0.07746   0.00000  Uiso   1.00
H127   H     0.32902   0.02035   0.10734   0.00000  Uiso   1.00
H128   H     0.31307   0.07494   0.07615   0.00000  Uiso   1.00
H129   H     0.31222   0.02215   0.04103   0.00000  Uiso   1.00
O130   O     0.31319   0.46829   0.23829   0.00000  Uiso   1.00
C131   C     0.34728   0.48848   0.21336   0.00000  Uiso   1.00
H132   H     0.34070   0.02587   0.20621   0.00000  Uiso   1.00
H133   H     0.35230   0.47091   0.17758   0.00000  Uiso   1.00
H134   H     0.37919   0.48608   0.23843   0.00000  Uiso   1.00
O135   O     0.25680   0.03354   0.26238   0.00000  Uiso   1.00
C136   C     0.21271   0.02303   0.27090   0.00000  Uiso   1.00
H137   H     0.19832   0.49479   0.24594   0.00000  Uiso   1.00
H138   H     0.19068   0.05390   0.26566   0.00000  Uiso   1.00
H139   H     0.21322   0.01102   0.31015   0.00000  Uiso   1.00
O140   O     0.18486   0.47205   0.11106   0.00000  Uiso   1.00
C141   C     0.15285   0.48660   0.14184   0.00000  Uiso   1.00
H142   H     0.16248   0.02060   0.15931   0.00000  Uiso   1.00
H143   H     0.14703   0.46072   0.17133   0.00000  Uiso   1.00
H144   H     0.12063   0.49159   0.11789   0.00000  Uiso   1.00
C145   C     0.66398   0.24975   0.16728   0.00000  Uiso   1.00
C146   C     0.83588   0.24960   0.16394   0.00000  Uiso   1.00
C147   C     0.73636   0.09788   0.12466   0.00000  Uiso   1.00
C148   C     0.77822   0.39739   0.20342   0.00000  Uiso   1.00
C149   C     0.76177   0.10309   0.21180   0.00000  Uiso   1.00
C150   C     0.72498   0.40099   0.13094   0.00000  Uiso   1.00
C151   C     0.75178   0.05109   0.12694   0.00000  Uiso   1.00
C152   C     0.78144   0.44696   0.20399   0.00000  Uiso   1.00
C153   C     0.75527   0.05417   0.21574   0.00000  Uiso   1.00
C154   C     0.71910   0.44911   0.13985   0.00000  Uiso   1.00
C155   C     0.74921   0.25008   0.07288   0.00000  Uiso   1.00
C156   C     0.74970   0.24995   0.26031   0.00000  Uiso   1.00
C157   C     0.75242   0.02672   0.17218   0.00000  Uiso   1.00
C158   C     0.75069   0.47375   0.17281   0.00000  Uiso   1.00
C159   C     0.74847   0.25021   0.02159   0.00000  Uiso   1.00
C160   C     0.74863   0.25002   0.31135   0.00000  Uiso   1.00
C161   C     0.54295   0.27263   0.12885   0.00000  Uiso   1.00
C162   C     0.94913   0.20311   0.14134   0.00000  Uiso   1.00
C163   C     0.95647   0.28258   0.17233   0.00000  Uiso   1.00
C164   C     0.54964   0.20871   0.18920   0.00000  Uiso   1.00
C165   C     0.58851   0.28099   0.13929   0.00000  Uiso   1.00
C166   C     0.90288   0.20419   0.14482   0.00000  Uiso   1.00
C167   C     0.91058   0.28671   0.16554   0.00000  Uiso   1.00
C168   C     0.59612   0.21058   0.19061   0.00000  Uiso   1.00
C169   C     0.61568   0.24799   0.16683   0.00000  Uiso   1.00
C170   C     0.88363   0.24696   0.15784   0.00000  Uiso   1.00
C171   C     0.52346   0.23943   0.15753   0.00000  Uiso   1.00
C172   C     0.97565   0.24107   0.15852   0.00000  Uiso   1.00
N173   N     0.75000   0.12623   0.16667   0.00000  Uiso   1.00
N174   N     0.75000   0.37376   0.16667   0.00000  Uiso   1.00
O175   O     0.68453   0.28974   0.16667   0.00000  Uiso   1.00
O176   O     0.81547   0.21026   0.16666   0.00000  Uiso   1.00
O177   O     0.81547   0.28974   0.16666   0.00000  Uiso   1.00
O178   O     0.68453   0.21026   0.16667   0.00000  Uiso   1.00
O179   O     0.75000   0.28973   0.09511   0.00000  Uiso   1.00
O180   O     0.75000   0.21027   0.23822   0.00000  Uiso   1.00
O181   O     0.75000   0.28973   0.23822   0.00000  Uiso   1.00
O182   O     0.75000   0.21027   0.09511   0.00000  Uiso   1.00
Zn183  Zn    0.75000   0.30307   0.16667   0.00000  Uiso   1.00
Zn184  Zn    0.75000   0.19693   0.16667   0.00000  Uiso   1.00
C185   C     0.69832   0.10782   0.08162   0.00000  Uiso   1.00
C186   C     0.67683   0.15073   0.07267   0.00000  Uiso   1.00
C187   C     0.64220   0.15830   0.03405   0.00000  Uiso   1.00
C188   C     0.62578   0.12196   0.00353   0.00000  Uiso   1.00
C189   C     0.64362   0.07813   0.01236   0.00000  Uiso   1.00
C190   C     0.67883   0.07114   0.05043   0.00000  Uiso   1.00
H191   H     0.68467   0.17905   0.09510   0.00000  Uiso   1.00
H192   H     0.62744   0.19241   0.02863   0.00000  Uiso   1.00
H193   H     0.59859   0.12743   0.30737   0.00000  Uiso   1.00
H194   H     0.62992   0.04914   0.32322   0.00000  Uiso   1.00
H195   H     0.68870   0.03576   0.05508   0.00000  Uiso   1.00
C196   C     0.81000   0.37333   0.24151   0.00000  Uiso   1.00
C197   C     0.79623   0.35678   0.28624   0.00000  Uiso   1.00
C198   C     0.82676   0.33760   0.32379   0.00000  Uiso   1.00
C199   C     0.87223   0.33810   0.31880   0.00000  Uiso   1.00
C200   C     0.88695   0.35951   0.27721   0.00000  Uiso   1.00
C201   C     0.85602   0.37769   0.23937   0.00000  Uiso   1.00
H202   H     0.76157   0.35671   0.29124   0.00000  Uiso   1.00
H203   H     0.81490   0.32257   0.02329   0.00000  Uiso   1.00
H204   H     0.89612   0.32309   0.01420   0.00000  Uiso   1.00
H205   H     0.92226   0.36263   0.27449   0.00000  Uiso   1.00
H206   H     0.86807   0.39627   0.20878   0.00000  Uiso   1.00
C207   C     0.78520   0.12679   0.25613   0.00000  Uiso   1.00
C208   C     0.82767   0.14593   0.25367   0.00000  Uiso   1.00
C209   C     0.85093   0.16777   0.29525   0.00000  Uiso   1.00
C210   C     0.83263   0.16899   0.00708   0.00000  Uiso   1.00
C211   C     0.79143   0.14788   0.01076   0.00000  Uiso   1.00
C212   C     0.76732   0.12761   0.30206   0.00000  Uiso   1.00
H213   H     0.84277   0.14392   0.21964   0.00000  Uiso   1.00
H214   H     0.88321   0.18345   0.29251   0.00000  Uiso   1.00
H215   H     0.85022   0.18653   0.03902   0.00000  Uiso   1.00
H216   H     0.77788   0.14766   0.04604   0.00000  Uiso   1.00
H217   H     0.73470   0.11321   0.30537   0.00000  Uiso   1.00
C218   C     0.71099   0.38604   0.07782   0.00000  Uiso   1.00
C219   C     0.72284   0.41428   0.03835   0.00000  Uiso   1.00
C220   C     0.70374   0.40704   0.32228   0.00000  Uiso   1.00
C221   C     0.67413   0.37030   0.31078   0.00000  Uiso   1.00
C222   C     0.66352   0.34091   0.01550   0.00000  Uiso   1.00
C223   C     0.68164   0.34915   0.06505   0.00000  Uiso   1.00
H224   H     0.74611   0.44281   0.04599   0.00000  Uiso   1.00
H225   H     0.71349   0.42846   0.29245   0.00000  Uiso   1.00
H226   H     0.66035   0.36401   0.27233   0.00000  Uiso   1.00
H227   H     0.64125   0.31171   0.00673   0.00000  Uiso   1.00
H228   H     0.67367   0.32577   0.09270   0.00000  Uiso   1.00
O229   O     0.51611   0.30096   0.09606   0.00000  Uiso   1.00
C230   C     0.52680   0.29523   0.04670   0.00000  Uiso   1.00
H231   H     0.53476   0.25864   0.03793   0.00000  Uiso   1.00
H232   H     0.55488   0.31842   0.03971   0.00000  Uiso   1.00
H233   H     0.99742   0.30555   0.02025   0.00000  Uiso   1.00
O234   O     0.96894   0.16510   0.12193   0.00000  Uiso   1.00
C235   C     0.96525   0.16981   0.06932   0.00000  Uiso   1.00
H236   H     0.98018   0.20295   0.05788   0.00000  Uiso   1.00
H237   H     0.92991   0.16721   0.05237   0.00000  Uiso   1.00
H238   H     0.98375   0.14106   0.05405   0.00000  Uiso   1.00
O239   O     0.98197   0.32172   0.18580   0.00000  Uiso   1.00
C240   C     0.50019   0.31792   0.23652   0.00000  Uiso   1.00
H241   H     0.97591   0.30379   0.26086   0.00000  Uiso   1.00
H242   H     0.51009   0.35309   0.25056   0.00000  Uiso   1.00
H243   H     0.53080   0.29643   0.24018   0.00000  Uiso   1.00
O244   O     0.52990   0.17547   0.21678   0.00000  Uiso   1.00
C245   C     0.52651   0.19318   0.26503   0.00000  Uiso   1.00
H246   H     0.55876   0.20763   0.28322   0.00000  Uiso   1.00
H247   H     0.51680   0.16441   0.28910   0.00000  Uiso   1.00
H248   H     0.99991   0.21977   0.26350   0.00000  Uiso   1.00
O249   O     0.60612   0.32068   0.12082   0.00000  Uiso   1.00
C250   C     0.59944   0.35787   0.15299   0.00000  Uiso   1.00
H251   H     0.56335   0.36528   0.15326   0.00000  Uiso   1.00
H252   H     0.61506   0.38933   0.13879   0.00000  Uiso   1.00
H253   H     0.61562   0.35122   0.19178   0.00000  Uiso   1.00
O254   O     0.87501   0.16697   0.12886   0.00000  Uiso   1.00
C255   C     0.89155   0.12375   0.14787   0.00000  Uiso   1.00
H256   H     0.91272   0.12651   0.18474   0.00000  Uiso   1.00
H257   H     0.90976   0.10608   0.11994   0.00000  Uiso   1.00
H258   H     0.86280   0.10096   0.15328   0.00000  Uiso   1.00
O259   O     0.89247   0.33015   0.16732   0.00000  Uiso   1.00
C260   C     0.88735   0.34893   0.11852   0.00000  Uiso   1.00
H261   H     0.86488   0.32677   0.09287   0.00000  Uiso   1.00
H262   H     0.92015   0.35358   0.10413   0.00000  Uiso   1.00
H263   H     0.87162   0.38357   0.11934   0.00000  Uiso   1.00
O264   O     0.62271   0.17970   0.22034   0.00000  Uiso   1.00
C265   C     0.62070   0.13574   0.19702   0.00000  Uiso   1.00
H266   H     0.62369   0.13800   0.15615   0.00000  Uiso   1.00
H267   H     0.58960   0.11702   0.20317   0.00000  Uiso   1.00
H268   H     0.64918   0.11476   0.21442   0.00000  Uiso   1.00
O269   O     0.76119   0.02803   0.08443   0.00000  Uiso   1.00
C270   C     0.80586   0.03713   0.07746   0.00000  Uiso   1.00
H271   H     0.82902   0.02035   0.10734   0.00000  Uiso   1.00
H272   H     0.81307   0.07494   0.07615   0.00000  Uiso   1.00
H273   H     0.81222   0.02215   0.04103   0.00000  Uiso   1.00
O274   O     0.81319   0.46829   0.23829   0.00000  Uiso   1.00
C275   C     0.84728   0.48848   0.21336   0.00000  Uiso   1.00
H276   H     0.84070   0.02587   0.20621   0.00000  Uiso   1.00
H277   H     0.85230   0.47091   0.17758   0.00000  Uiso   1.00
H278   H     0.87919   0.48608   0.23843   0.00000  Uiso   1.00
O279   O     0.75680   0.03354   0.26238   0.00000  Uiso   1.00
C280   C     0.71271   0.02303   0.27090   0.00000  Uiso   1.00
H281   H     0.69832   0.49479   0.24594   0.00000  Uiso   1.00
H282   H     0.69068   0.05390   0.26566   0.00000  Uiso   1.00
H283   H     0.71322   0.01102   0.31015   0.00000  Uiso   1.00
O284   O     0.68486   0.47205   0.11106   0.00000  Uiso   1.00
C285   C     0.65285   0.48660   0.14184   0.00000  Uiso   1.00
H286   H     0.66248   0.02060   0.15931   0.00000  Uiso   1.00
H287   H     0.64703   0.46072   0.17133   0.00000  Uiso   1.00
H288   H     0.62063   0.49159   0.11789   0.00000  Uiso   1.00
C289   C     0.16398   0.74975   0.16728   0.00000  Uiso   1.00
C290   C     0.33588   0.74960   0.16394   0.00000  Uiso   1.00
C291   C     0.23636   0.59788   0.12466   0.00000  Uiso   1.00
C292   C     0.27822   0.89739   0.20342   0.00000  Uiso   1.00
C293   C     0.26177   0.60309   0.21180   0.00000  Uiso   1.00
C294   C     0.22498   0.90099   0.13094   0.00000  Uiso   1.00
C295   C     0.25178   0.55109   0.12694   0.00000  Uiso   1.00
C296   C     0.28144   0.94696   0.20399   0.00000  Uiso   1.00
C297   C     0.25527   0.55417   0.21574   0.00000  Uiso   1.00
C298   C     0.21910   0.94911   0.13985   0.00000  Uiso   1.00
C299   C     0.24921   0.75008   0.07288   0.00000  Uiso   1.00
C300   C     0.24970   0.74995   0.26031   0.00000  Uiso   1.00
C301   C     0.25242   0.52672   0.17218   0.00000  Uiso   1.00
C302   C     0.25069   0.97375   0.17281   0.00000  Uiso   1.00
C303   C     0.24847   0.75021   0.02159   0.00000  Uiso   1.00
C304   C     0.24863   0.75002   0.31135   0.00000  Uiso   1.00
C305   C     0.04295   0.77263   0.12885   0.00000  Uiso   1.00
C306   C     0.44913   0.70311   0.14134   0.00000  Uiso   1.00
C307   C     0.45647   0.78258   0.17233   0.00000  Uiso   1.00
C308   C     0.04964   0.70871   0.18920   0.00000  Uiso   1.00
C309   C     0.08851   0.78099   0.13929   0.00000  Uiso   1.00
C310   C     0.40288   0.70419   0.14482   0.00000  Uiso   1.00
C311   C     0.41058   0.78671   0.16554   0.00000  Uiso   1.00
C312   C     0.09612   0.71058   0.19061   0.00000  Uiso   1.00
C313   C     0.11568   0.74799   0.16683   0.00000  Uiso   1.00
C314   C     0.38363   0.74696   0.15784   0.00000  Uiso   1.00
C315   C     0.02346   0.73943   0.15753   0.00000  Uiso   1.00
C316   C     0.47565   0.74107   0.15852   0.00000  Uiso   1.00
N317   N     0.25000   0.62623   0.16667   0.00000  Uiso   1.00
N318   N     0.25000   0.87376   0.16667   0.00000  Uiso   1.00
O319   O     0.18453   0.78974   0.16667   0.00000  Uiso   1.00
O320   O     0.31547   0.71026   0.16666   0.00000  Uiso   1.00
O321   O     0.31547   0.78974   0.16666   0.00000  Uiso   1.00
O322   O     0.18453   0.71026   0.16667   0.00000  Uiso   1.00
O323   O     0.25000   0.78973   0.09511   0.00000  Uiso   1.00
O324   O     0.25000   0.71027   0.23822   0.00000  Uiso   1.00
O325   O     0.25000   0.78973   0.23822   0.00000  Uiso   1.00
O326   O     0.25000   0.71027   0.09511   0.00000  Uiso   1.00
Zn327  Zn    0.25000   0.80307   0.16667   0.00000  Uiso   1.00
Zn328  Zn    0.25000   0.69693   0.16667   0.00000  Uiso   1.00
C329   C     0.19832   0.60782   0.08162   0.00000  Uiso   1.00
C330   C     0.17683   0.65073   0.07267   0.00000  Uiso   1.00
C331   C     0.14220   0.65830   0.03405   0.00000  Uiso   1.00
C332   C     0.12578   0.62196   0.00353   0.00000  Uiso   1.00
C333   C     0.14362   0.57813   0.01236   0.00000  Uiso   1.00
C334   C     0.17883   0.57114   0.05043   0.00000  Uiso   1.00
H335   H     0.18467   0.67905   0.09510   0.00000  Uiso   1.00
H336   H     0.12744   0.69241   0.02863   0.00000  Uiso   1.00
H337   H     0.09859   0.62743   0.30737   0.00000  Uiso   1.00
H338   H     0.12992   0.54914   0.32322   0.00000  Uiso   1.00
H339   H     0.18870   0.53576   0.05508   0.00000  Uiso   1.00
C340   C     0.31000   0.87333   0.24151   0.00000  Uiso   1.00
C341   C     0.29623   0.85678   0.28624   0.00000  Uiso   1.00
C342   C     0.32676   0.83760   0.32379   0.00000  Uiso   1.00
C343   C     0.37223   0.83810   0.31880   0.00000  Uiso   1.00
C344   C     0.38695   0.85951   0.27721   0.00000  Uiso   1.00
C345   C     0.35602   0.87769   0.23937   0.00000  Uiso   1.00
H346   H     0.26157   0.85671   0.29124   0.00000  Uiso   1.00
H347   H     0.31490   0.82257   0.02329   0.00000  Uiso   1.00
H348   H     0.39612   0.82309   0.01420   0.00000  Uiso   1.00
H349   H     0.42226   0.86263   0.27449   0.00000  Uiso   1.00
H350   H     0.36807   0.89627   0.20878   0.00000  Uiso   1.00
C351   C     0.28520   0.62679   0.25613   0.00000  Uiso   1.00
C352   C     0.32767   0.64593   0.25367   0.00000  Uiso   1.00
C353   C     0.35093   0.66777   0.29525   0.00000  Uiso   1.00
C354   C     0.33263   0.66899   0.00708   0.00000  Uiso   1.00
C355   C     0.29143   0.64788   0.01076   0.00000  Uiso   1.00
C356   C     0.26732   0.62761   0.30206   0.00000  Uiso   1.00
H357   H     0.34277   0.64392   0.21964   0.00000  Uiso   1.00
H358   H     0.38321   0.68345   0.29251   0.00000  Uiso   1.00
H359   H     0.35022   0.68653   0.03902   0.00000  Uiso   1.00
H360   H     0.27788   0.64766   0.04604   0.00000  Uiso   1.00
H361   H     0.23470   0.61321   0.30537   0.00000  Uiso   1.00
C362   C     0.21099   0.88604   0.07782   0.00000  Uiso   1.00
C363   C     0.22284   0.91428   0.03835   0.00000  Uiso   1.00
C364   C     0.20374   0.90704   0.32228   0.00000  Uiso   1.00
C365   C     0.17413   0.87030   0.31078   0.00000  Uiso   1.00
C366   C     0.16352   0.84091   0.01550   0.00000  Uiso   1.00
C367   C     0.18164   0.84915   0.06505   0.00000  Uiso   1.00
H368   H     0.24611   0.94281   0.04599   0.00000  Uiso   1.00
H369   H     0.21349   0.92846   0.29245   0.00000  Uiso   1.00
H370   H     0.16035   0.86401   0.27233   0.00000  Uiso   1.00
H371   H     0.14125   0.81171   0.00673   0.00000  Uiso   1.00
H372   H     0.17367   0.82577   0.09270   0.00000  Uiso   1.00
O373   O     0.01611   0.80096   0.09606   0.00000  Uiso   1.00
C374   C     0.02680   0.79523   0.04670   0.00000  Uiso   1.00
H375   H     0.03476   0.75864   0.03793   0.00000  Uiso   1.00
H376   H     0.05488   0.81842   0.03971   0.00000  Uiso   1.00
H377   H     0.49742   0.80555   0.02025   0.00000  Uiso   1.00
O378   O     0.46894   0.66510   0.12193   0.00000  Uiso   1.00
C379   C     0.46525   0.66981   0.06932   0.00000  Uiso   1.00
H380   H     0.48018   0.70295   0.05788   0.00000  Uiso   1.00
H381   H     0.42991   0.66721   0.05237   0.00000  Uiso   1.00
H382   H     0.48375   0.64106   0.05405   0.00000  Uiso   1.00
O383   O     0.48197   0.82172   0.18580   0.00000  Uiso   1.00
C384   C     0.00019   0.81792   0.23652   0.00000  Uiso   1.00
H385   H     0.47591   0.80379   0.26086   0.00000  Uiso   1.00
H386   H     0.01009   0.85309   0.25056   0.00000  Uiso   1.00
H387   H     0.03080   0.79643   0.24018   0.00000  Uiso   1.00
O388   O     0.02990   0.67547   0.21678   0.00000  Uiso   1.00
C389   C     0.02651   0.69318   0.26503   0.00000  Uiso   1.00
H390   H     0.05876   0.70763   0.28322   0.00000  Uiso   1.00
H391   H     0.01680   0.66441   0.28910   0.00000  Uiso   1.00
H392   H     0.49991   0.71977   0.26350   0.00000  Uiso   1.00
O393   O     0.10612   0.82068   0.12082   0.00000  Uiso   1.00
C394   C     0.09944   0.85787   0.15299   0.00000  Uiso   1.00
H395   H     0.06335   0.86528   0.15326   0.00000  Uiso   1.00
H396   H     0.11506   0.88933   0.13879   0.00000  Uiso   1.00
H397   H     0.11562   0.85122   0.19178   0.00000  Uiso   1.00
O398   O     0.37501   0.66697   0.12886   0.00000  Uiso   1.00
C399   C     0.39155   0.62375   0.14787   0.00000  Uiso   1.00
H400   H     0.41272   0.62651   0.18474   0.00000  Uiso   1.00
H401   H     0.40976   0.60608   0.11994   0.00000  Uiso   1.00
H402   H     0.36280   0.60096   0.15328   0.00000  Uiso   1.00
O403   O     0.39247   0.83015   0.16732   0.00000  Uiso   1.00
C404   C     0.38735   0.84893   0.11852   0.00000  Uiso   1.00
H405   H     0.36488   0.82677   0.09287   0.00000  Uiso   1.00
H406   H     0.42015   0.85358   0.10413   0.00000  Uiso   1.00
H407   H     0.37162   0.88357   0.11934   0.00000  Uiso   1.00
O408   O     0.12271   0.67970   0.22034   0.00000  Uiso   1.00
C409   C     0.12070   0.63574   0.19702   0.00000  Uiso   1.00
H410   H     0.12369   0.63800   0.15615   0.00000  Uiso   1.00
H411   H     0.08960   0.61702   0.20317   0.00000  Uiso   1.00
H412   H     0.14918   0.61476   0.21442   0.00000  Uiso   1.00
O413   O     0.26119   0.52803   0.08443   0.00000  Uiso   1.00
C414   C     0.30586   0.53713   0.07746   0.00000  Uiso   1.00
H415   H     0.32902   0.52035   0.10734   0.00000  Uiso   1.00
H416   H     0.31307   0.57494   0.07615   0.00000  Uiso   1.00
H417   H     0.31222   0.52215   0.04103   0.00000  Uiso   1.00
O418   O     0.31319   0.96829   0.23829   0.00000  Uiso   1.00
C419   C     0.34728   0.98848   0.21336   0.00000  Uiso   1.00
H420   H     0.34070   0.52587   0.20621   0.00000  Uiso   1.00
H421   H     0.35230   0.97091   0.17758   0.00000  Uiso   1.00
H422   H     0.37919   0.98608   0.23843   0.00000  Uiso   1.00
O423   O     0.25680   0.53354   0.26238   0.00000  Uiso   1.00
C424   C     0.21271   0.52303   0.27090   0.00000  Uiso   1.00
H425   H     0.19832   0.99479   0.24594   0.00000  Uiso   1.00
H426   H     0.19068   0.55390   0.26566   0.00000  Uiso   1.00
H427   H     0.21322   0.51102   0.31015   0.00000  Uiso   1.00
O428   O     0.18486   0.97205   0.11106   0.00000  Uiso   1.00
C429   C     0.15285   0.98660   0.14184   0.00000  Uiso   1.00
H430   H     0.16248   0.52060   0.15931   0.00000  Uiso   1.00
H431   H     0.14703   0.96072   0.17133   0.00000  Uiso   1.00
H432   H     0.12063   0.99159   0.11789   0.00000  Uiso   1.00
C433   C     0.66398   0.74975   0.16728   0.00000  Uiso   1.00
C434   C     0.83588   0.74960   0.16394   0.00000  Uiso   1.00
C435   C     0.73636   0.59788   0.12466   0.00000  Uiso   1.00
C436   C     0.77822   0.89739   0.20342   0.00000  Uiso   1.00
C437   C     0.76177   0.60309   0.21180   0.00000  Uiso   1.00
C438   C     0.72498   0.90099   0.13094   0.00000  Uiso   1.00
C439   C     0.75178   0.55109   0.12694   0.00000  Uiso   1.00
C440   C     0.78144   0.94696   0.20399   0.00000  Uiso   1.00
C441   C     0.75527   0.55417   0.21574   0.00000  Uiso   1.00
C442   C     0.71910   0.94911   0.13985   0.00000  Uiso   1.00
C443   C     0.74921   0.75008   0.07288   0.00000  Uiso   1.00
C444   C     0.74970   0.74995   0.26031   0.00000  Uiso   1.00
C445   C     0.75242   0.52672   0.17218   0.00000  Uiso   1.00
C446   C     0.75069   0.97375   0.17281   0.00000  Uiso   1.00
C447   C     0.74847   0.75021   0.02159   0.00000  Uiso   1.00
C448   C     0.74863   0.75002   0.31135   0.00000  Uiso   1.00
C449   C     0.54295   0.77263   0.12885   0.00000  Uiso   1.00
C450   C     0.94913   0.70311   0.14134   0.00000  Uiso   1.00
C451   C     0.95647   0.78258   0.17233   0.00000  Uiso   1.00
C452   C     0.54964   0.70871   0.18920   0.00000  Uiso   1.00
C453   C     0.58851   0.78099   0.13929   0.00000  Uiso   1.00
C454   C     0.90288   0.70419   0.14482   0.00000  Uiso   1.00
C455   C     0.91058   0.78671   0.16554   0.00000  Uiso   1.00
C456   C     0.59612   0.71058   0.19061   0.00000  Uiso   1.00
C457   C     0.61568   0.74799   0.16683   0.00000  Uiso   1.00
C458   C     0.88363   0.74696   0.15784   0.00000  Uiso   1.00
C459   C     0.52346   0.73943   0.15753   0.00000  Uiso   1.00
C460   C     0.97565   0.74107   0.15852   0.00000  Uiso   1.00
N461   N     0.75000   0.62623   0.16667   0.00000  Uiso   1.00
N462   N     0.75000   0.87376   0.16667   0.00000  Uiso   1.00
O463   O     0.68453   0.78974   0.16667   0.00000  Uiso   1.00
O464   O     0.81547   0.71026   0.16666   0.00000  Uiso   1.00
O465   O     0.81547   0.78974   0.16666   0.00000  Uiso   1.00
O466   O     0.68453   0.71026   0.16667   0.00000  Uiso   1.00
O467   O     0.75000   0.78973   0.09511   0.00000  Uiso   1.00
O468   O     0.75000   0.71027   0.23822   0.00000  Uiso   1.00
O469   O     0.75000   0.78973   0.23822   0.00000  Uiso   1.00
O470   O     0.75000   0.71027   0.09511   0.00000  Uiso   1.00
Zn471  Zn    0.75000   0.80307   0.16667   0.00000  Uiso   1.00
Zn472  Zn    0.75000   0.69693   0.16667   0.00000  Uiso   1.00
C473   C     0.69832   0.60782   0.08162   0.00000  Uiso   1.00
C474   C     0.67683   0.65073   0.07267   0.00000  Uiso   1.00
C475   C     0.64220   0.65830   0.03405   0.00000  Uiso   1.00
C476   C     0.62578   0.62196   0.00353   0.00000  Uiso   1.00
C477   C     0.64362   0.57813   0.01236   0.00000  Uiso   1.00
C478   C     0.67883   0.57114   0.05043   0.00000  Uiso   1.00
H479   H     0.68467   0.67905   0.09510   0.00000  Uiso   1.00
H480   H     0.62744   0.69241   0.02863   0.00000  Uiso   1.00
H481   H     0.59859   0.62743   0.30737   0.00000  Uiso   1.00
H482   H     0.62992   0.54914   0.32322   0.00000  Uiso   1.00
H483   H     0.68870   0.53576   0.05508   0.00000  Uiso   1.00
C484   C     0.81000   0.87333   0.24151   0.00000  Uiso   1.00
C485   C     0.79623   0.85678   0.28624   0.00000  Uiso   1.00
C486   C     0.82676   0.83760   0.32379   0.00000  Uiso   1.00
C487   C     0.87223   0.83810   0.31880   0.00000  Uiso   1.00
C488   C     0.88695   0.85951   0.27721   0.00000  Uiso   1.00
C489   C     0.85602   0.87769   0.23937   0.00000  Uiso   1.00
H490   H     0.76157   0.85671   0.29124   0.00000  Uiso   1.00
H491   H     0.81490   0.82257   0.02329   0.00000  Uiso   1.00
H492   H     0.89612   0.82309   0.01420   0.00000  Uiso   1.00
H493   H     0.92226   0.86263   0.27449   0.00000  Uiso   1.00
H494   H     0.86807   0.89627   0.20878   0.00000  Uiso   1.00
C495   C     0.78520   0.62679   0.25613   0.00000  Uiso   1.00
C496   C     0.82767   0.64593   0.25367   0.00000  Uiso   1.00
C497   C     0.85093   0.66777   0.29525   0.00000  Uiso   1.00
C498   C     0.83263   0.66899   0.00708   0.00000  Uiso   1.00
C499   C     0.79143   0.64788   0.01076   0.00000  Uiso   1.00
C500   C     0.76732   0.62761   0.30206   0.00000  Uiso   1.00
H501   H     0.84277   0.64392   0.21964   0.00000  Uiso   1.00
H502   H     0.88321   0.68345   0.29251   0.00000  Uiso   1.00
H503   H     0.85022   0.68653   0.03902   0.00000  Uiso   1.00
H504   H     0.77788   0.64766   0.04604   0.00000  Uiso   1.00
H505   H     0.73470   0.61321   0.30537   0.00000  Uiso   1.00
C506   C     0.71099   0.88604   0.07782   0.00000  Uiso   1.00
C507   C     0.72284   0.91428   0.03835   0.00000  Uiso   1.00
C508   C     0.70374   0.90704   0.32228   0.00000  Uiso   1.00
C509   C     0.67413   0.87030   0.31078   0.00000  Uiso   1.00
C510   C     0.66352   0.84091   0.01550   0.00000  Uiso   1.00
C511   C     0.68164   0.84915   0.06505   0.00000  Uiso   1.00
H512   H     0.74611   0.94281   0.04599   0.00000  Uiso   1.00
H513   H     0.71349   0.92846   0.29245   0.00000  Uiso   1.00
H514   H     0.66035   0.86401   0.27233   0.00000  Uiso   1.00
H515   H     0.64125   0.81171   0.00673   0.00000  Uiso   1.00
H516   H     0.67367   0.82577   0.09270   0.00000  Uiso   1.00
O517   O     0.51611   0.80096   0.09606   0.00000  Uiso   1.00
C518   C     0.52680   0.79523   0.04670   0.00000  Uiso   1.00
H519   H     0.53476   0.75864   0.03793   0.00000  Uiso   1.00
H520   H     0.55488   0.81842   0.03971   0.00000  Uiso   1.00
H521   H     0.99742   0.80555   0.02025   0.00000  Uiso   1.00
O522   O     0.96894   0.66510   0.12193   0.00000  Uiso   1.00
C523   C     0.96525   0.66981   0.06932   0.00000  Uiso   1.00
H524   H     0.98018   0.70295   0.05788   0.00000  Uiso   1.00
H525   H     0.92991   0.66721   0.05237   0.00000  Uiso   1.00
H526   H     0.98375   0.64106   0.05405   0.00000  Uiso   1.00
O527   O     0.98197   0.82172   0.18580   0.00000  Uiso   1.00
C528   C     0.50019   0.81792   0.23652   0.00000  Uiso   1.00
H529   H     0.97591   0.80379   0.26086   0.00000  Uiso   1.00
H530   H     0.51009   0.85309   0.25056   0.00000  Uiso   1.00
H531   H     0.53080   0.79643   0.24018   0.00000  Uiso   1.00
O532   O     0.52990   0.67547   0.21678   0.00000  Uiso   1.00
C533   C     0.52651   0.69318   0.26503   0.00000  Uiso   1.00
H534   H     0.55876   0.70763   0.28322   0.00000  Uiso   1.00
H535   H     0.51680   0.66441   0.28910   0.00000  Uiso   1.00
H536   H     0.99991   0.71977   0.26350   0.00000  Uiso   1.00
O537   O     0.60612   0.82068   0.12082   0.00000  Uiso   1.00
C538   C     0.59944   0.85787   0.15299   0.00000  Uiso   1.00
H539   H     0.56335   0.86528   0.15326   0.00000  Uiso   1.00
H540   H     0.61506   0.88933   0.13879   0.00000  Uiso   1.00
H541   H     0.61562   0.85122   0.19178   0.00000  Uiso   1.00
O542   O     0.87501   0.66697   0.12886   0.00000  Uiso   1.00
C543   C     0.89155   0.62375   0.14787   0.00000  Uiso   1.00
H544   H     0.91272   0.62651   0.18474   0.00000  Uiso   1.00
H545   H     0.90976   0.60608   0.11994   0.00000  Uiso   1.00
H546   H     0.86280   0.60096   0.15328   0.00000  Uiso   1.00
O547   O     0.89247   0.83015   0.16732   0.00000  Uiso   1.00
C548   C     0.88735   0.84893   0.11852   0.00000  Uiso   1.00
H549   H     0.86488   0.82677   0.09287   0.00000  Uiso   1.00
H550   H     0.92015   0.85358   0.10413   0.00000  Uiso   1.00
H551   H     0.87162   0.88357   0.11934   0.00000  Uiso   1.00
O552   O     0.62271   0.67970   0.22034   0.00000  Uiso   1.00
C553   C     0.62070   0.63574   0.19702   0.00000  Uiso   1.00
H554   H     0.62369   0.63800   0.15615   0.00000  Uiso   1.00
H555   H     0.58960   0.61702   0.20317   0.00000  Uiso   1.00
H556   H     0.64918   0.61476   0.21442   0.00000  Uiso   1.00
O557   O     0.76119   0.52803   0.08443   0.00000  Uiso   1.00
C558   C     0.80586   0.53713   0.07746   0.00000  Uiso   1.00
H559   H     0.82902   0.52035   0.10734   0.00000  Uiso   1.00
H560   H     0.81307   0.57494   0.07615   0.00000  Uiso   1.00
H561   H     0.81222   0.52215   0.04103   0.00000  Uiso   1.00
O562   O     0.81319   0.96829   0.23829   0.00000  Uiso   1.00
C563   C     0.84728   0.98848   0.21336   0.00000  Uiso   1.00
H564   H     0.84070   0.52587   0.20621   0.00000  Uiso   1.00
H565   H     0.85230   0.97091   0.17758   0.00000  Uiso   1.00
H566   H     0.87919   0.98608   0.23843   0.00000  Uiso   1.00
O567   O     0.75680   0.53354   0.26238   0.00000  Uiso   1.00
C568   C     0.71271   0.52303   0.27090   0.00000  Uiso   1.00
H569   H     0.69832   0.99479   0.24594   0.00000  Uiso   1.00
H570   H     0.69068   0.55390   0.26566   0.00000  Uiso   1.00
H571   H     0.71322   0.51102   0.31015   0.00000  Uiso   1.00
O572   O     0.68486   0.97205   0.11106   0.00000  Uiso   1.00
C573   C     0.65285   0.98660   0.14184   0.00000  Uiso   1.00
H574   H     0.66248   0.52060   0.15931   0.00000  Uiso   1.00
H575   H     0.64703   0.96072   0.17133   0.00000  Uiso   1.00
H576   H     0.62063   0.99159   0.11789   0.00000  Uiso   1.00
C577   C     0.16398   0.24975   0.50062   0.00000  Uiso   1.00
C578   C     0.33588   0.24960   0.49728   0.00000  Uiso   1.00
C579   C     0.23636   0.09788   0.45800   0.00000  Uiso   1.00
C580   C     0.27822   0.39739   0.53675   0.00000  Uiso   1.00
C581   C     0.26177   0.10309   0.54513   0.00000  Uiso   1.00
C582   C     0.22498   0.40099   0.46427   0.00000  Uiso   1.00
C583   C     0.25178   0.05109   0.46027   0.00000  Uiso   1.00
C584   C     0.28144   0.44696   0.53733   0.00000  Uiso   1.00
C585   C     0.25527   0.05417   0.54907   0.00000  Uiso   1.00
C586   C     0.21910   0.44911   0.47318   0.00000  Uiso   1.00
C587   C     0.24921   0.25008   0.40622   0.00000  Uiso   1.00
C588   C     0.24970   0.24995   0.59364   0.00000  Uiso   1.00
C589   C     0.25242   0.02672   0.50551   0.00000  Uiso   1.00
C590   C     0.25069   0.47375   0.50614   0.00000  Uiso   1.00
C591   C     0.24847   0.25021   0.35492   0.00000  Uiso   1.00
C592   C     0.24863   0.25002   0.64469   0.00000  Uiso   1.00
C593   C     0.04295   0.27263   0.46218   0.00000  Uiso   1.00
C594   C     0.44913   0.20311   0.47467   0.00000  Uiso   1.00
C595   C     0.45647   0.28258   0.50566   0.00000  Uiso   1.00
C596   C     0.04964   0.20871   0.52254   0.00000  Uiso   1.00
C597   C     0.08851   0.28099   0.47262   0.00000  Uiso   1.00
C598   C     0.40288   0.20419   0.47815   0.00000  Uiso   1.00
C599   C     0.41058   0.28671   0.49888   0.00000  Uiso   1.00
C600   C     0.09612   0.21058   0.52394   0.00000  Uiso   1.00
C601   C     0.11568   0.24799   0.50017   0.00000  Uiso   1.00
C602   C     0.38363   0.24696   0.49117   0.00000  Uiso   1.00
C603   C     0.02346   0.23943   0.49086   0.00000  Uiso   1.00
C604   C     0.47565   0.24107   0.49185   0.00000  Uiso   1.00
N605   N     0.25000   0.12623   0.50000   0.00000  Uiso   1.00
N606   N     0.25000   0.37376   0.50000   0.00000  Uiso   1.00
O607   O     0.18453   0.28974   0.50000   0.00000  Uiso   1.00
O608   O     0.31547   0.21026   0.50000   0.00000  Uiso   1.00
O609   O     0.31547   0.28974   0.50000   0.00000  Uiso   1.00
O610   O     0.18453   0.21026   0.50000   0.00000  Uiso   1.00
O611   O     0.25000   0.28973   0.42845   0.00000  Uiso   1.00
O612   O     0.25000   0.21027   0.57155   0.00000  Uiso   1.00
O613   O     0.25000   0.28973   0.57155   0.00000  Uiso   1.00
O614   O     0.25000   0.21027   0.42845   0.00000  Uiso   1.00
Zn615  Zn    0.25000   0.30307   0.50000   0.00000  Uiso   1.00
Zn616  Zn    0.25000   0.19693   0.50000   0.00000  Uiso   1.00
C617   C     0.19832   0.10782   0.41495   0.00000  Uiso   1.00
C618   C     0.17683   0.15073   0.40601   0.00000  Uiso   1.00
C619   C     0.14220   0.15830   0.36738   0.00000  Uiso   1.00
C620   C     0.12578   0.12196   0.33686   0.00000  Uiso   1.00
C621   C     0.14362   0.07813   0.34569   0.00000  Uiso   1.00
C622   C     0.17883   0.07114   0.38377   0.00000  Uiso   1.00
H623   H     0.18467   0.17905   0.42843   0.00000  Uiso   1.00
H624   H     0.12744   0.19241   0.36197   0.00000  Uiso   1.00
H625   H     0.09859   0.12743   0.64071   0.00000  Uiso   1.00
H626   H     0.12992   0.04914   0.65656   0.00000  Uiso   1.00
H627   H     0.18870   0.03576   0.38841   0.00000  Uiso   1.00
C628   C     0.31000   0.37333   0.57484   0.00000  Uiso   1.00
C629   C     0.29623   0.35678   0.61958   0.00000  Uiso   1.00
C630   C     0.32676   0.33760   0.65713   0.00000  Uiso   1.00
C631   C     0.37223   0.33810   0.65214   0.00000  Uiso   1.00
C632   C     0.38695   0.35951   0.61054   0.00000  Uiso   1.00
C633   C     0.35602   0.37769   0.57270   0.00000  Uiso   1.00
H634   H     0.26157   0.35671   0.62457   0.00000  Uiso   1.00
H635   H     0.31490   0.32257   0.35662   0.00000  Uiso   1.00
H636   H     0.39612   0.32309   0.34754   0.00000  Uiso   1.00
H637   H     0.42226   0.36263   0.60782   0.00000  Uiso   1.00
H638   H     0.36807   0.39627   0.54211   0.00000  Uiso   1.00
C639   C     0.28520   0.12679   0.58946   0.00000  Uiso   1.00
C640   C     0.32767   0.14593   0.58701   0.00000  Uiso   1.00
C641   C     0.35093   0.16777   0.62859   0.00000  Uiso   1.00
C642   C     0.33263   0.16899   0.34042   0.00000  Uiso   1.00
C643   C     0.29143   0.14788   0.34410   0.00000  Uiso   1.00
C644   C     0.26732   0.12761   0.63539   0.00000  Uiso   1.00
H645   H     0.34277   0.14392   0.55297   0.00000  Uiso   1.00
H646   H     0.38321   0.18345   0.62584   0.00000  Uiso   1.00
H647   H     0.35022   0.18653   0.37235   0.00000  Uiso   1.00
H648   H     0.27788   0.14766   0.37938   0.00000  Uiso   1.00
H649   H     0.23470   0.11321   0.63870   0.00000  Uiso   1.00
C650   C     0.21099   0.38604   0.41115   0.00000  Uiso   1.00
C651   C     0.22284   0.41428   0.37169   0.00000  Uiso   1.00
C652   C     0.20374   0.40704   0.65561   0.00000  Uiso   1.00
C653   C     0.17413   0.37030   0.64411   0.00000  Uiso   1.00
C654   C     0.16352   0.34091   0.34883   0.00000  Uiso   1.00
C655   C     0.18164   0.34915   0.39838   0.00000  Uiso   1.00
H656   H     0.24611   0.44281   0.37932   0.00000  Uiso   1.00
H657   H     0.21349   0.42846   0.62578   0.00000  Uiso   1.00
H658   H     0.16035   0.36401   0.60567   0.00000  Uiso   1.00
H659   H     0.14125   0.31171   0.34006   0.00000  Uiso   1.00
H660   H     0.17367   0.32577   0.42604   0.00000  Uiso   1.00
O661   O     0.01611   0.30096   0.42939   0.00000  Uiso   1.00
C662   C     0.02680   0.29523   0.38004   0.00000  Uiso   1.00
H663   H     0.03476   0.25864   0.37126   0.00000  Uiso   1.00
H664   H     0.05488   0.31842   0.37304   0.00000  Uiso   1.00
H665   H     0.49742   0.30555   0.35358   0.00000  Uiso   1.00
O666   O     0.46894   0.16510   0.45526   0.00000  Uiso   1.00
C667   C     0.46525   0.16981   0.40266   0.00000  Uiso   1.00
H668   H     0.48018   0.20295   0.39122   0.00000  Uiso   1.00
H669   H     0.42991   0.16721   0.38571   0.00000  Uiso   1.00
H670   H     0.48375   0.14106   0.38738   0.00000  Uiso   1.00
O671   O     0.48197   0.32172   0.51913   0.00000  Uiso   1.00
C672   C     0.00019   0.31792   0.56985   0.00000  Uiso   1.00
H673   H     0.47591   0.30379   0.59419   0.00000  Uiso   1.00
H674   H     0.01009   0.35309   0.58390   0.00000  Uiso   1.00
H675   H     0.03080   0.29643   0.57352   0.00000  Uiso   1.00
O676   O     0.02990   0.17547   0.55012   0.00000  Uiso   1.00
C677   C     0.02651   0.19318   0.59837   0.00000  Uiso   1.00
H678   H     0.05876   0.20763   0.61655   0.00000  Uiso   1.00
H679   H     0.01680   0.16441   0.62243   0.00000  Uiso   1.00
H680   H     0.49991   0.21977   0.59684   0.00000  Uiso   1.00
O681   O     0.10612   0.32068   0.45416   0.00000  Uiso   1.00
C682   C     0.09944   0.35787   0.48633   0.00000  Uiso   1.00
H683   H     0.06335   0.36528   0.48659   0.00000  Uiso   1.00
H684   H     0.11506   0.38933   0.47213   0.00000  Uiso   1.00
H685   H     0.11562   0.35122   0.52511   0.00000  Uiso   1.00
O686   O     0.37501   0.16697   0.46219   0.00000  Uiso   1.00
C687   C     0.39155   0.12375   0.48120   0.00000  Uiso   1.00
H688   H     0.41272   0.12651   0.51807   0.00000  Uiso   1.00
H689   H     0.40976   0.10608   0.45327   0.00000  Uiso   1.00
H690   H     0.36280   0.10096   0.48662   0.00000  Uiso   1.00
O691   O     0.39247   0.33015   0.50065   0.00000  Uiso   1.00
C692   C     0.38735   0.34893   0.45185   0.00000  Uiso   1.00
H693   H     0.36488   0.32677   0.42621   0.00000  Uiso   1.00
H694   H     0.42015   0.35358   0.43746   0.00000  Uiso   1.00
H695   H     0.37162   0.38357   0.45268   0.00000  Uiso   1.00
O696   O     0.12271   0.17970   0.55367   0.00000  Uiso   1.00
C697   C     0.12070   0.13574   0.53036   0.00000  Uiso   1.00
H698   H     0.12369   0.13800   0.48948   0.00000  Uiso   1.00
H699   H     0.08960   0.11702   0.53650   0.00000  Uiso   1.00
H700   H     0.14918   0.11476   0.54776   0.00000  Uiso   1.00
O701   O     0.26119   0.02803   0.41776   0.00000  Uiso   1.00
C702   C     0.30586   0.03713   0.41079   0.00000  Uiso   1.00
H703   H     0.32902   0.02035   0.44067   0.00000  Uiso   1.00
H704   H     0.31307   0.07494   0.40948   0.00000  Uiso   1.00
H705   H     0.31222   0.02215   0.37436   0.00000  Uiso   1.00
O706   O     0.31319   0.46829   0.57162   0.00000  Uiso   1.00
C707   C     0.34728   0.48848   0.54669   0.00000  Uiso   1.00
H708   H     0.34070   0.02587   0.53954   0.00000  Uiso   1.00
H709   H     0.35230   0.47091   0.51091   0.00000  Uiso   1.00
H710   H     0.37919   0.48608   0.57176   0.00000  Uiso   1.00
O711   O     0.25680   0.03354   0.59571   0.00000  Uiso   1.00
C712   C     0.21271   0.02303   0.60423   0.00000  Uiso   1.00
H713   H     0.19832   0.49479   0.57928   0.00000  Uiso   1.00
H714   H     0.19068   0.05390   0.59900   0.00000  Uiso   1.00
H715   H     0.21322   0.01102   0.64348   0.00000  Uiso   1.00
O716   O     0.18486   0.47205   0.44439   0.00000  Uiso   1.00
C717   C     0.15285   0.48660   0.47517   0.00000  Uiso   1.00
H718   H     0.16248   0.02060   0.49264   0.00000  Uiso   1.00
H719   H     0.14703   0.46072   0.50466   0.00000  Uiso   1.00
H720   H     0.12063   0.49159   0.45122   0.00000  Uiso   1.00
C721   C     0.66398   0.24975   0.50062   0.00000  Uiso   1.00
C722   C     0.83588   0.24960   0.49728   0.00000  Uiso   1.00
C723   C     0.73636   0.09788   0.45800   0.00000  Uiso   1.00
C724   C     0.77822   0.39739   0.53675   0.00000  Uiso   1.00
C725   C     0.76177   0.10309   0.54513   0.00000  Uiso   1.00
C726   C     0.72498   0.40099   0.46427   0.00000  Uiso   1.00
C727   C     0.75178   0.05109   0.46027   0.00000  Uiso   1.00
C728   C     0.78144   0.44696   0.53733   0.00000  Uiso   1.00
C729   C     0.75527   0.05417   0.54907   0.00000  Uiso   1.00
C730   C     0.71910   0.44911   0.47318   0.00000  Uiso   1.00
C731   C     0.74921   0.25008   0.40622   0.00000  Uiso   1.00
C732   C     0.74970   0.24995   0.59364   0.00000  Uiso   1.00
C733   C     0.75242   0.02672   0.50551   0.00000  Uiso   1.00
C734   C     0.75069   0.47375   0.50614   0.00000  Uiso   1.00
C735   C     0.74847   0.25021   0.35492   0.00000  Uiso   1.00
C736   C     0.74863   0.25002   0.64469   0.00000  Uiso   1.00
C737   C     0.54295   0.27263   0.46218   0.00000  Uiso   1.00
C738   C     0.94913   0.20311   0.47467   0.00000  Uiso   1.00
C739   C     0.95647   0.28258   0.50566   0.00000  Uiso   1.00
C740   C     0.54964   0.20871   0.52254   0.00000  Uiso   1.00
C741   C     0.58851   0.28099   0.47262   0.00000  Uiso   1.00
C742   C     0.90288   0.20419   0.47815   0.00000  Uiso   1.00
C743   C     0.91058   0.28671   0.49888   0.00000  Uiso   1.00
C744   C     0.59612   0.21058   0.52394   0.00000  Uiso   1.00
C745   C     0.61568   0.24799   0.50017   0.00000  Uiso   1.00
C746   C     0.88363   0.24696   0.49117   0.00000  Uiso   1.00
C747   C     0.52346   0.23943   0.49086   0.00000  Uiso   1.00
C748   C     0.97565   0.24107   0.49185   0.00000  Uiso   1.00
N749   N     0.75000   0.12623   0.50000   0.00000  Uiso   1.00
N750   N     0.75000   0.37376   0.50000   0.00000  Uiso   1.00
O751   O     0.68453   0.28974   0.50000   0.00000  Uiso   1.00
O752   O     0.81547   0.21026   0.50000   0.00000  Uiso   1.00
O753   O     0.81547   0.28974   0.50000   0.00000  Uiso   1.00
O754   O     0.68453   0.21026   0.50000   0.00000  Uiso   1.00
O755   O     0.75000   0.28973   0.42845   0.00000  Uiso   1.00
O756   O     0.75000   0.21027   0.57155   0.00000  Uiso   1.00
O757   O     0.75000   0.28973   0.57155   0.00000  Uiso   1.00
O758   O     0.75000   0.21027   0.42845   0.00000  Uiso   1.00
Zn759  Zn    0.75000   0.30307   0.50000   0.00000  Uiso   1.00
Zn760  Zn    0.75000   0.19693   0.50000   0.00000  Uiso   1.00
C761   C     0.69832   0.10782   0.41495   0.00000  Uiso   1.00
C762   C     0.67683   0.15073   0.40601   0.00000  Uiso   1.00
C763   C     0.64220   0.15830   0.36738   0.00000  Uiso   1.00
C764   C     0.62578   0.12196   0.33686   0.00000  Uiso   1.00
C765   C     0.64362   0.07813   0.34569   0.00000  Uiso   1.00
C766   C     0.67883   0.07114   0.38377   0.00000  Uiso   1.00
H767   H     0.68467   0.17905   0.42843   0.00000  Uiso   1.00
H768   H     0.62744   0.19241   0.36197   0.00000  Uiso   1.00
H769   H     0.59859   0.12743   0.64071   0.00000  Uiso   1.00
H770   H     0.62992   0.04914   0.65656   0.00000  Uiso   1.00
H771   H     0.68870   0.03576   0.38841   0.00000  Uiso   1.00
C772   C     0.81000   0.37333   0.57484   0.00000  Uiso   1.00
C773   C     0.79623   0.35678   0.61958   0.00000  Uiso   1.00
C774   C     0.82676   0.33760   0.65713   0.00000  Uiso   1.00
C775   C     0.87223   0.33810   0.65214   0.00000  Uiso   1.00
C776   C     0.88695   0.35951   0.61054   0.00000  Uiso   1.00
C777   C     0.85602   0.37769   0.57270   0.00000  Uiso   1.00
H778   H     0.76157   0.35671   0.62457   0.00000  Uiso   1.00
H779   H     0.81490   0.32257   0.35662   0.00000  Uiso   1.00
H780   H     0.89612   0.32309   0.34754   0.00000  Uiso   1.00
H781   H     0.92226   0.36263   0.60782   0.00000  Uiso   1.00
H782   H     0.86807   0.39627   0.54211   0.00000  Uiso   1.00
C783   C     0.78520   0.12679   0.58946   0.00000  Uiso   1.00
C784   C     0.82767   0.14593   0.58701   0.00000  Uiso   1.00
C785   C     0.85093   0.16777   0.62859   0.00000  Uiso   1.00
C786   C     0.83263   0.16899   0.34042   0.00000  Uiso   1.00
C787   C     0.79143   0.14788   0.34410   0.00000  Uiso   1.00
C788   C     0.76732   0.12761   0.63539   0.00000  Uiso   1.00
H789   H     0.84277   0.14392   0.55297   0.00000  Uiso   1.00
H790   H     0.88321   0.18345   0.62584   0.00000  Uiso   1.00
H791   H     0.85022   0.18653   0.37235   0.00000  Uiso   1.00
H792   H     0.77788   0.14766   0.37938   0.00000  Uiso   1.00
H793   H     0.73470   0.11321   0.63870   0.00000  Uiso   1.00
C794   C     0.71099   0.38604   0.41115   0.00000  Uiso   1.00
C795   C     0.72284   0.41428   0.37169   0.00000  Uiso   1.00
C796   C     0.70374   0.40704   0.65561   0.00000  Uiso   1.00
C797   C     0.67413   0.37030   0.64411   0.00000  Uiso   1.00
C798   C     0.66352   0.34091   0.34883   0.00000  Uiso   1.00
C799   C     0.68164   0.34915   0.39838   0.00000  Uiso   1.00
H800   H     0.74611   0.44281   0.37932   0.00000  Uiso   1.00
H801   H     0.71349   0.42846   0.62578   0.00000  Uiso   1.00
H802   H     0.66035   0.36401   0.60567   0.00000  Uiso   1.00
H803   H     0.64125   0.31171   0.34006   0.00000  Uiso   1.00
H804   H     0.67367   0.32577   0.42604   0.00000  Uiso   1.00
O805   O     0.51611   0.30096   0.42939   0.00000  Uiso   1.00
C806   C     0.52680   0.29523   0.38004   0.00000  Uiso   1.00
H807   H     0.53476   0.25864   0.37126   0.00000  Uiso   1.00
H808   H     0.55488   0.31842   0.37304   0.00000  Uiso   1.00
H809   H     0.99742   0.30555   0.35358   0.00000  Uiso   1.00
O810   O     0.96894   0.16510   0.45526   0.00000  Uiso   1.00
C811   C     0.96525   0.16981   0.40266   0.00000  Uiso   1.00
H812   H     0.98018   0.20295   0.39122   0.00000  Uiso   1.00
H813   H     0.92991   0.16721   0.38571   0.00000  Uiso   1.00
H814   H     0.98375   0.14106   0.38738   0.00000  Uiso   1.00
O815   O     0.98197   0.32172   0.51913   0.00000  Uiso   1.00
C816   C     0.50019   0.31792   0.56985   0.00000  Uiso   1.00
H817   H     0.97591   0.30379   0.59419   0.00000  Uiso   1.00
H818   H     0.51009   0.35309   0.58390   0.00000  Uiso   1.00
H819   H     0.53080   0.29643   0.57352   0.00000  Uiso   1.00
O820   O     0.52990   0.17547   0.55012   0.00000  Uiso   1.00
C821   C     0.52651   0.19318   0.59837   0.00000  Uiso   1.00
H822   H     0.55876   0.20763   0.61655   0.00000  Uiso   1.00
H823   H     0.51680   0.16441   0.62243   0.00000  Uiso   1.00
H824   H     0.99991   0.21977   0.59684   0.00000  Uiso   1.00
O825   O     0.60612   0.32068   0.45416   0.00000  Uiso   1.00
C826   C     0.59944   0.35787   0.48633   0.00000  Uiso   1.00
H827   H     0.56335   0.36528   0.48659   0.00000  Uiso   1.00
H828   H     0.61506   0.38933   0.47213   0.00000  Uiso   1.00
H829   H     0.61562   0.35122   0.52511   0.00000  Uiso   1.00
O830   O     0.87501   0.16697   0.46219   0.00000  Uiso   1.00
C831   C     0.89155   0.12375   0.48120   0.00000  Uiso   1.00
H832   H     0.91272   0.12651   0.51807   0.00000  Uiso   1.00
H833   H     0.90976   0.10608   0.45327   0.00000  Uiso   1.00
H834   H     0.86280   0.10096   0.48662   0.00000  Uiso   1.00
O835   O     0.89247   0.33015   0.50065   0.00000  Uiso   1.00
C836   C     0.88735   0.34893   0.45185   0.00000  Uiso   1.00
H837   H     0.86488   0.32677   0.42621   0.00000  Uiso   1.00
H838   H     0.92015   0.35358   0.43746   0.00000  Uiso   1.00
H839   H     0.87162   0.38357   0.45268   0.00000  Uiso   1.00
O840   O     0.62271   0.17970   0.55367   0.00000  Uiso   1.00
C841   C     0.62070   0.13574   0.53036   0.00000  Uiso   1.00
H842   H     0.62369   0.13800   0.48948   0.00000  Uiso   1.00
H843   H     0.58960   0.11702   0.53650   0.00000  Uiso   1.00
H844   H     0.64918   0.11476   0.54776   0.00000  Uiso   1.00
O845   O     0.76119   0.02803   0.41776   0.00000  Uiso   1.00
C846   C     0.80586   0.03713   0.41079   0.00000  Uiso   1.00
H847   H     0.82902   0.02035   0.44067   0.00000  Uiso   1.00
H848   H     0.81307   0.07494   0.40948   0.00000  Uiso   1.00
H849   H     0.81222   0.02215   0.37436   0.00000  Uiso   1.00
O850   O     0.81319   0.46829   0.57162   0.00000  Uiso   1.00
C851   C     0.84728   0.48848   0.54669   0.00000  Uiso   1.00
H852   H     0.84070   0.02587   0.53954   0.00000  Uiso   1.00
H853   H     0.85230   0.47091   0.51091   0.00000  Uiso   1.00
H854   H     0.87919   0.48608   0.57176   0.00000  Uiso   1.00
O855   O     0.75680   0.03354   0.59571   0.00000  Uiso   1.00
C856   C     0.71271   0.02303   0.60423   0.00000  Uiso   1.00
H857   H     0.69832   0.49479   0.57928   0.00000  Uiso   1.00
H858   H     0.69068   0.05390   0.59900   0.00000  Uiso   1.00
H859   H     0.71322   0.01102   0.64348   0.00000  Uiso   1.00
O860   O     0.68486   0.47205   0.44439   0.00000  Uiso   1.00
C861   C     0.65285   0.48660   0.47517   0.00000  Uiso   1.00
H862   H     0.66248   0.02060   0.49264   0.00000  Uiso   1.00
H863   H     0.64703   0.46072   0.50466   0.00000  Uiso   1.00
H864   H     0.62063   0.49159   0.45122   0.00000  Uiso   1.00
C865   C     0.16398   0.74975   0.50062   0.00000  Uiso   1.00
C866   C     0.33588   0.74960   0.49728   0.00000  Uiso   1.00
C867   C     0.23636   0.59788   0.45800   0.00000  Uiso   1.00
C868   C     0.27822   0.89739   0.53675   0.00000  Uiso   1.00
C869   C     0.26177   0.60309   0.54513   0.00000  Uiso   1.00
C870   C     0.22498   0.90099   0.46427   0.00000  Uiso   1.00
C871   C     0.25178   0.55109   0.46027   0.00000  Uiso   1.00
C872   C     0.28144   0.94696   0.53733   0.00000  Uiso   1.00
C873   C     0.25527   0.55417   0.54907   0.00000  Uiso   1.00
C874   C     0.21910   0.94911   0.47318   0.00000  Uiso   1.00
C875   C     0.24921   0.75008   0.40622   0.00000  Uiso   1.00
C876   C     0.24970   0.74995   0.59364   0.00000  Uiso   1.00
C877   C     0.25242   0.52672   0.50551   0.00000  Uiso   1.00
C878   C     0.25069   0.97375   0.50614   0.00000  Uiso   1.00
C879   C     0.24847   0.75021   0.35492   0.00000  Uiso   1.00
C880   C     0.24863   0.75002   0.64469   0.00000  Uiso   1.00
C881   C     0.04295   0.77263   0.46218   0.00000  Uiso   1.00
C882   C     0.44913   0.70311   0.47467   0.00000  Uiso   1.00
C883   C     0.45647   0.78258   0.50566   0.00000  Uiso   1.00
C884   C     0.04964   0.70871   0.52254   0.00000  Uiso   1.00
C885   C     0.08851   0.78099   0.47262   0.00000  Uiso   1.00
C886   C     0.40288   0.70419   0.47815   0.00000  Uiso   1.00
C887   C     0.41058   0.78671   0.49888   0.00000  Uiso   1.00
C888   C     0.09612   0.71058   0.52394   0.00000  Uiso   1.00
C889   C     0.11568   0.74799   0.50017   0.00000  Uiso   1.00
C890   C     0.38363   0.74696   0.49117   0.00000  Uiso   1.00
C891   C     0.02346   0.73943   0.49086   0.00000  Uiso   1.00
C892   C     0.47565   0.74107   0.49185   0.00000  Uiso   1.00
N893   N     0.25000   0.62623   0.50000   0.00000  Uiso   1.00
N894   N     0.25000   0.87376   0.50000   0.00000  Uiso   1.00
O895   O     0.18453   0.78974   0.50000   0.00000  Uiso   1.00
O896   O     0.31547   0.71026   0.50000   0.00000  Uiso   1.00
O897   O     0.31547   0.78974   0.50000   0.00000  Uiso   1.00
O898   O     0.18453   0.71026   0.50000   0.00000  Uiso   1.00
O899   O     0.25000   0.78973   0.42845   0.00000  Uiso   1.00
O900   O     0.25000   0.71027   0.57155   0.00000  Uiso   1.00
O901   O     0.25000   0.78973   0.57155   0.00000  Uiso   1.00
O902   O     0.25000   0.71027   0.42845   0.00000  Uiso   1.00
Zn903  Zn    0.25000   0.80307   0.50000   0.00000  Uiso   1.00
Zn904  Zn    0.25000   0.69693   0.50000   0.00000  Uiso   1.00
C905   C     0.19832   0.60782   0.41495   0.00000  Uiso   1.00
C906   C     0.17683   0.65073   0.40601   0.00000  Uiso   1.00
C907   C     0.14220   0.65830   0.36738   0.00000  Uiso   1.00
C908   C     0.12578   0.62196   0.33686   0.00000  Uiso   1.00
C909   C     0.14362   0.57813   0.34569   0.00000  Uiso   1.00
C910   C     0.17883   0.57114   0.38377   0.00000  Uiso   1.00
H911   H     0.18467   0.67905   0.42843   0.00000  Uiso   1.00
H912   H     0.12744   0.69241   0.36197   0.00000  Uiso   1.00
H913   H     0.09859   0.62743   0.64071   0.00000  Uiso   1.00
H914   H     0.12992   0.54914   0.65656   0.00000  Uiso   1.00
H915   H     0.18870   0.53576   0.38841   0.00000  Uiso   1.00
C916   C     0.31000   0.87333   0.57484   0.00000  Uiso   1.00
C917   C     0.29623   0.85678   0.61958   0.00000  Uiso   1.00
C918   C     0.32676   0.83760   0.65713   0.00000  Uiso   1.00
C919   C     0.37223   0.83810   0.65214   0.00000  Uiso   1.00
C920   C     0.38695   0.85951   0.61054   0.00000  Uiso   1.00
C921   C     0.35602   0.87769   0.57270   0.00000  Uiso   1.00
H922   H     0.26157   0.85671   0.62457   0.00000  Uiso   1.00
H923   H     0.31490   0.82257   0.35662   0.00000  Uiso   1.00
H924   H     0.39612   0.82309   0.34754   0.00000  Uiso   1.00
H925   H     0.42226   0.86263   0.60782   0.00000  Uiso   1.00
H926   H     0.36807   0.89627   0.54211   0.00000  Uiso   1.00
C927   C     0.28520   0.62679   0.58946   0.00000  Uiso   1.00
C928   C     0.32767   0.64593   0.58701   0.00000  Uiso   1.00
C929   C     0.35093   0.66777   0.62859   0.00000  Uiso   1.00
C930   C     0.33263   0.66899   0.34042   0.00000  Uiso   1.00
C931   C     0.29143   0.64788   0.34410   0.00000  Uiso   1.00
C932   C     0.26732   0.62761   0.63539   0.00000  Uiso   1.00
H933   H     0.34277   0.64392   0.55297   0.00000  Uiso   1.00
H934   H     0.38321   0.68345   0.62584   0.00000  Uiso   1.00
H935   H     0.35022   0.68653   0.37235   0.00000  Uiso   1.00
H936   H     0.27788   0.64766   0.37938   0.00000  Uiso   1.00
H937   H     0.23470   0.61321   0.63870   0.00000  Uiso   1.00
C938   C     0.21099   0.88604   0.41115   0.00000  Uiso   1.00
C939   C     0.22284   0.91428   0.37169   0.00000  Uiso   1.00
C940   C     0.20374   0.90704   0.65561   0.00000  Uiso   1.00
C941   C     0.17413   0.87030   0.64411   0.00000  Uiso   1.00
C942   C     0.16352   0.84091   0.34883   0.00000  Uiso   1.00
C943   C     0.18164   0.84915   0.39838   0.00000  Uiso   1.00
H944   H     0.24611   0.94281   0.37932   0.00000  Uiso   1.00
H945   H     0.21349   0.92846   0.62578   0.00000  Uiso   1.00
H946   H     0.16035   0.86401   0.60567   0.00000  Uiso   1.00
H947   H     0.14125   0.81171   0.34006   0.00000  Uiso   1.00
H948   H     0.17367   0.82577   0.42604   0.00000  Uiso   1.00
O949   O     0.01611   0.80096   0.42939   0.00000  Uiso   1.00
C950   C     0.02680   0.79523   0.38004   0.00000  Uiso   1.00
H951   H     0.03476   0.75864   0.37126   0.00000  Uiso   1.00
H952   H     0.05488   0.81842   0.37304   0.00000  Uiso   1.00
H953   H     0.49742   0.80555   0.35358   0.00000  Uiso   1.00
O954   O     0.46894   0.66510   0.45526   0.00000  Uiso   1.00
C955   C     0.46525   0.66981   0.40266   0.00000  Uiso   1.00
H956   H     0.48018   0.70295   0.39122   0.00000  Uiso   1.00
H957   H     0.42991   0.66721   0.38571   0.00000  Uiso   1.00
H958   H     0.48375   0.64106   0.38738   0.00000  Uiso   1.00
O959   O     0.48197   0.82172   0.51913   0.00000  Uiso   1.00
C960   C     0.00019   0.81792   0.56985   0.00000  Uiso   1.00
H961   H     0.47591   0.80379   0.59419   0.00000  Uiso   1.00
H962   H     0.01009   0.85309   0.58390   0.00000  Uiso   1.00
H963   H     0.03080   0.79643   0.57352   0.00000  Uiso   1.00
O964   O     0.02990   0.67547   0.55012   0.00000  Uiso   1.00
C965   C     0.02651   0.69318   0.59837   0.00000  Uiso   1.00
H966   H     0.05876   0.70763   0.61655   0.00000  Uiso   1.00
H967   H     0.01680   0.66441   0.62243   0.00000  Uiso   1.00
H968   H     0.49991   0.71977   0.59684   0.00000  Uiso   1.00
O969   O     0.10612   0.82068   0.45416   0.00000  Uiso   1.00
C970   C     0.09944   0.85787   0.48633   0.00000  Uiso   1.00
H971   H     0.06335   0.86528   0.48659   0.00000  Uiso   1.00
H972   H     0.11506   0.88933   0.47213   0.00000  Uiso   1.00
H973   H     0.11562   0.85122   0.52511   0.00000  Uiso   1.00
O974   O     0.37501   0.66697   0.46219   0.00000  Uiso   1.00
C975   C     0.39155   0.62375   0.48120   0.00000  Uiso   1.00
H976   H     0.41272   0.62651   0.51807   0.00000  Uiso   1.00
H977   H     0.40976   0.60608   0.45327   0.00000  Uiso   1.00
H978   H     0.36280   0.60096   0.48662   0.00000  Uiso   1.00
O979   O     0.39247   0.83015   0.50065   0.00000  Uiso   1.00
C980   C     0.38735   0.84893   0.45185   0.00000  Uiso   1.00
H981   H     0.36488   0.82677   0.42621   0.00000  Uiso   1.00
H982   H     0.42015   0.85358   0.43746   0.00000  Uiso   1.00
H983   H     0.37162   0.88357   0.45268   0.00000  Uiso   1.00
O984   O     0.12271   0.67970   0.55367   0.00000  Uiso   1.00
C985   C     0.12070   0.63574   0.53036   0.00000  Uiso   1.00
H986   H     0.12369   0.63800   0.48948   0.00000  Uiso   1.00
H987   H     0.08960   0.61702   0.53650   0.00000  Uiso   1.00
H988   H     0.14918   0.61476   0.54776   0.00000  Uiso   1.00
O989   O     0.26119   0.52803   0.41776   0.00000  Uiso   1.00
C990   C     0.30586   0.53713   0.41079   0.00000  Uiso   1.00
H991   H     0.32902   0.52035   0.44067   0.00000  Uiso   1.00
H992   H     0.31307   0.57494   0.40948   0.00000  Uiso   1.00
H993   H     0.31222   0.52215   0.37436   0.00000  Uiso   1.00
O994   O     0.31319   0.96829   0.57162   0.00000  Uiso   1.00
C995   C     0.34728   0.98848   0.54669   0.00000  Uiso   1.00
H996   H     0.34070   0.52587   0.53954   0.00000  Uiso   1.00
H997   H     0.35230   0.97091   0.51091   0.00000  Uiso   1.00
H998   H     0.37919   0.98608   0.57176   0.00000  Uiso   1.00
O999   O     0.25680   0.53354   0.59571   0.00000  Uiso   1.00
C1000  C     0.21271   0.52303   0.60423   0.00000  Uiso   1.00
H1001  H     0.19832   0.99479   0.57928   0.00000  Uiso   1.00
H1002  H     0.19068   0.55390   0.59900   0.00000  Uiso   1.00
H1003  H     0.21322   0.51102   0.64348   0.00000  Uiso   1.00
O1004  O     0.18486   0.97205   0.44439   0.00000  Uiso   1.00
C1005  C     0.15285   0.98660   0.47517   0.00000  Uiso   1.00
H1006  H     0.16248   0.52060   0.49264   0.00000  Uiso   1.00
H1007  H     0.14703   0.96072   0.50466   0.00000  Uiso   1.00
H1008  H     0.12063   0.99159   0.45122   0.00000  Uiso   1.00
C1009  C     0.66398   0.74975   0.50062   0.00000  Uiso   1.00
C1010  C     0.83588   0.74960   0.49728   0.00000  Uiso   1.00
C1011  C     0.73636   0.59788   0.45800   0.00000  Uiso   1.00
C1012  C     0.77822   0.89739   0.53675   0.00000  Uiso   1.00
C1013  C     0.76177   0.60309   0.54513   0.00000  Uiso   1.00
C1014  C     0.72498   0.90099   0.46427   0.00000  Uiso   1.00
C1015  C     0.75178   0.55109   0.46027   0.00000  Uiso   1.00
C1016  C     0.78144   0.94696   0.53733   0.00000  Uiso   1.00
C1017  C     0.75527   0.55417   0.54907   0.00000  Uiso   1.00
C1018  C     0.71910   0.94911   0.47318   0.00000  Uiso   1.00
C1019  C     0.74921   0.75008   0.40622   0.00000  Uiso   1.00
C1020  C     0.74970   0.74995   0.59364   0.00000  Uiso   1.00
C1021  C     0.75242   0.52672   0.50551   0.00000  Uiso   1.00
C1022  C     0.75069   0.97375   0.50614   0.00000  Uiso   1.00
C1023  C     0.74847   0.75021   0.35492   0.00000  Uiso   1.00
C1024  C     0.74863   0.75002   0.64469   0.00000  Uiso   1.00
C1025  C     0.54295   0.77263   0.46218   0.00000  Uiso   1.00
C1026  C     0.94913   0.70311   0.47467   0.00000  Uiso   1.00
C1027  C     0.95647   0.78258   0.50566   0.00000  Uiso   1.00
C1028  C     0.54964   0.70871   0.52254   0.00000  Uiso   1.00
C1029  C     0.58851   0.78099   0.47262   0.00000  Uiso   1.00
C1030  C     0.90288   0.70419   0.47815   0.00000  Uiso   1.00
C1031  C     0.91058   0.78671   0.49888   0.00000  Uiso   1.00
C1032  C     0.59612   0.71058   0.52394   0.00000  Uiso   1.00
C1033  C     0.61568   0.74799   0.50017   0.00000  Uiso   1.00
C1034  C     0.88363   0.74696   0.49117   0.00000  Uiso   1.00
C1035  C     0.52346   0.73943   0.49086   0.00000  Uiso   1.00
C1036  C     0.97565   0.74107   0.49185   0.00000  Uiso   1.00
N1037  N     0.75000   0.62623   0.50000   0.00000  Uiso   1.00
N1038  N     0.75000   0.87376   0.50000   0.00000  Uiso   1.00
O1039  O     0.68453   0.78974   0.50000   0.00000  Uiso   1.00
O1040  O     0.81547   0.71026   0.50000   0.00000  Uiso   1.00
O1041  O     0.81547   0.78974   0.50000   0.00000  Uiso   1.00
O1042  O     0.68453   0.71026   0.50000   0.00000  Uiso   1.00
O1043  O     0.75000   0.78973   0.42845   0.00000  Uiso   1.00
O1044  O     0.75000   0.71027   0.57155   0.00000  Uiso   1.00
O1045  O     0.75000   0.78973   0.57155   0.00000  Uiso   1.00
O1046  O     0.75000   0.71027   0.42845   0.00000  Uiso   1.00
Zn1047 Zn    0.75000   0.80307   0.50000   0.00000  Uiso   1.00
Zn1048 Zn    0.75000   0.69693   0.50000   0.00000  Uiso   1.00
C1049  C     0.69832   0.60782   0.41495   0.00000  Uiso   1.00
C1050  C     0.67683   0.65073   0.40601   0.00000  Uiso   1.00
C1051  C     0.64220   0.65830   0.36738   0.00000  Uiso   1.00
C1052  C     0.62578   0.62196   0.33686   0.00000  Uiso   1.00
C1053  C     0.64362   0.57813   0.34569   0.00000  Uiso   1.00
C1054  C     0.67883   0.57114   0.38377   0.00000  Uiso   1.00
H1055  H     0.68467   0.67905   0.42843   0.00000  Uiso   1.00
H1056  H     0.62744   0.69241   0.36197   0.00000  Uiso   1.00
H1057  H     0.59859   0.62743   0.64071   0.00000  Uiso   1.00
H1058  H     0.62992   0.54914   0.65656   0.00000  Uiso   1.00
H1059  H     0.68870   0.53576   0.38841   0.00000  Uiso   1.00
C1060  C     0.81000   0.87333   0.57484   0.00000  Uiso   1.00
C1061  C     0.79623   0.85678   0.61958   0.00000  Uiso   1.00
C1062  C     0.82676   0.83760   0.65713   0.00000  Uiso   1.00
C1063  C     0.87223   0.83810   0.65214   0.00000  Uiso   1.00
C1064  C     0.88695   0.85951   0.61054   0.00000  Uiso   1.00
C1065  C     0.85602   0.87769   0.57270   0.00000  Uiso   1.00
H1066  H     0.76157   0.85671   0.62457   0.00000  Uiso   1.00
H1067  H     0.81490   0.82257   0.35662   0.00000  Uiso   1.00
H1068  H     0.89612   0.82309   0.34754   0.00000  Uiso   1.00
H1069  H     0.92226   0.86263   0.60782   0.00000  Uiso   1.00
H1070  H     0.86807   0.89627   0.54211   0.00000  Uiso   1.00
C1071  C     0.78520   0.62679   0.58946   0.00000  Uiso   1.00
C1072  C     0.82767   0.64593   0.58701   0.00000  Uiso   1.00
C1073  C     0.85093   0.66777   0.62859   0.00000  Uiso   1.00
C1074  C     0.83263   0.66899   0.34042   0.00000  Uiso   1.00
C1075  C     0.79143   0.64788   0.34410   0.00000  Uiso   1.00
C1076  C     0.76732   0.62761   0.63539   0.00000  Uiso   1.00
H1077  H     0.84277   0.64392   0.55297   0.00000  Uiso   1.00
H1078  H     0.88321   0.68345   0.62584   0.00000  Uiso   1.00
H1079  H     0.85022   0.68653   0.37235   0.00000  Uiso   1.00
H1080  H     0.77788   0.64766   0.37938   0.00000  Uiso   1.00
H1081  H     0.73470   0.61321   0.63870   0.00000  Uiso   1.00
C1082  C     0.71099   0.88604   0.41115   0.00000  Uiso   1.00
C1083  C     0.72284   0.91428   0.37169   0.00000  Uiso   1.00
C1084  C     0.70374   0.90704   0.65561   0.00000  Uiso   1.00
C1085  C     0.67413   0.87030   0.64411   0.00000  Uiso   1.00
C1086  C     0.66352   0.84091   0.34883   0.00000  Uiso   1.00
C1087  C     0.68164   0.84915   0.39838   0.00000  Uiso   1.00
H1088  H     0.74611   0.94281   0.37932   0.00000  Uiso   1.00
H1089  H     0.71349   0.92846   0.62578   0.00000  Uiso   1.00
H1090  H     0.66035   0.86401   0.60567   0.00000  Uiso   1.00
H1091  H     0.64125   0.81171   0.34006   0.00000  Uiso   1.00
H1092  H     0.67367   0.82577   0.42604   0.00000  Uiso   1.00
O1093  O     0.51611   0.80096   0.42939   0.00000  Uiso   1.00
C1094  C     0.52680   0.79523   0.38004   0.00000  Uiso   1.00
H1095  H     0.53476   0.75864   0.37126   0.00000  Uiso   1.00
H1096  H     0.55488   0.81842   0.37304   0.00000  Uiso   1.00
H1097  H     0.99742   0.80555   0.35358   0.00000  Uiso   1.00
O1098  O     0.96894   0.66510   0.45526   0.00000  Uiso   1.00
C1099  C     0.96525   0.66981   0.40266   0.00000  Uiso   1.00
H1100  H     0.98018   0.70295   0.39122   0.00000  Uiso   1.00
H1101  H     0.92991   0.66721   0.38571   0.00000  Uiso   1.00
H1102  H     0.98375   0.64106   0.38738   0.00000  Uiso   1.00
O1103  O     0.98197   0.82172   0.51913   0.00000  Uiso   1.00
C1104  C     0.50019   0.81792   0.56985   0.00000  Uiso   1.00
H1105  H     0.97591   0.80379   0.59419   0.00000  Uiso   1.00
H1106  H     0.51009   0.85309   0.58390   0.00000  Uiso   1.00
H1107  H     0.53080   0.79643   0.57352   0.00000  Uiso   1.00
O1108  O     0.52990   0.67547   0.55012   0.00000  Uiso   1.00
C1109  C     0.52651   0.69318   0.59837   0.00000  Uiso   1.00
H1110  H     0.55876   0.70763   0.61655   0.00000  Uiso   1.00
H1111  H     0.51680   0.66441   0.62243   0.00000  Uiso   1.00
H1112  H     0.99991   0.71977   0.59684   0.00000  Uiso   1.00
O1113  O     0.60612   0.82068   0.45416   0.00000  Uiso   1.00
C1114  C     0.59944   0.85787   0.48633   0.00000  Uiso   1.00
H1115  H     0.56335   0.86528   0.48659   0.00000  Uiso   1.00
H1116  H     0.61506   0.88933   0.47213   0.00000  Uiso   1.00
H1117  H     0.61562   0.85122   0.52511   0.00000  Uiso   1.00
O1118  O     0.87501   0.66697   0.46219   0.00000  Uiso   1.00
C1119  C     0.89155   0.62375   0.48120   0.00000  Uiso   1.00
H1120  H     0.91272   0.62651   0.51807   0.00000  Uiso   1.00
H1121  H     0.90976   0.60608   0.45327   0.00000  Uiso   1.00
H1122  H     0.86280   0.60096   0.48662   0.00000  Uiso   1.00
O1123  O     0.89247   0.83015   0.50065   0.00000  Uiso   1.00
C1124  C     0.88735   0.84893   0.45185   0.00000  Uiso   1.00
H1125  H     0.86488   0.82677   0.42621   0.00000  Uiso   1.00
H1126  H     0.92015   0.85358   0.43746   0.00000  Uiso   1.00
H1127  H     0.87162   0.88357   0.45268   0.00000  Uiso   1.00
O1128  O     0.62271   0.67970   0.55367   0.00000  Uiso   1.00
C1129  C     0.62070   0.63574   0.53036   0.00000  Uiso   1.00
H1130  H     0.62369   0.63800   0.48948   0.00000  Uiso   1.00
H1131  H     0.58960   0.61702   0.53650   0.00000  Uiso   1.00
H1132  H     0.64918   0.61476   0.54776   0.00000  Uiso   1.00
O1133  O     0.76119   0.52803   0.41776   0.00000  Uiso   1.00
C1134  C     0.80586   0.53713   0.41079   0.00000  Uiso   1.00
H1135  H     0.82902   0.52035   0.44067   0.00000  Uiso   1.00
H1136  H     0.81307   0.57494   0.40948   0.00000  Uiso   1.00
H1137  H     0.81222   0.52215   0.37436   0.00000  Uiso   1.00
O1138  O     0.81319   0.96829   0.57162   0.00000  Uiso   1.00
C1139  C     0.84728   0.98848   0.54669   0.00000  Uiso   1.00
H1140  H     0.84070   0.52587   0.53954   0.00000  Uiso   1.00
H1141  H     0.85230   0.97091   0.51091   0.00000  Uiso   1.00
H1142  H     0.87919   0.98608   0.57176   0.00000  Uiso   1.00
O1143  O     0.75680   0.53354   0.59571   0.00000  Uiso   1.00
C1144  C     0.71271   0.52303   0.60423   0.00000  Uiso   1.00
H1145  H     0.69832   0.99479   0.57928   0.00000  Uiso   1.00
H1146  H     0.69068   0.55390   0.59900   0.00000  Uiso   1.00
H1147  H     0.71322   0.51102   0.64348   0.00000  Uiso   1.00
O1148  O     0.68486   0.97205   0.44439   0.00000  Uiso   1.00
C1149  C     0.65285   0.98660   0.47517   0.00000  Uiso   1.00
H1150  H     0.66248   0.52060   0.49264   0.00000  Uiso   1.00
H1151  H     0.64703   0.96072   0.50466   0.00000  Uiso   1.00
H1152  H     0.62063   0.99159   0.45122   0.00000  Uiso   1.00
C1153  C     0.16398   0.24975   0.83395   0.00000  Uiso   1.00
C1154  C     0.33588   0.24960   0.83061   0.00000  Uiso   1.00
C1155  C     0.23636   0.09788   0.79133   0.00000  Uiso   1.00
C1156  C     0.27822   0.39739   0.87009   0.00000  Uiso   1.00
C1157  C     0.26177   0.10309   0.87847   0.00000  Uiso   1.00
C1158  C     0.22498   0.40099   0.79761   0.00000  Uiso   1.00
C1159  C     0.25178   0.05109   0.79361   0.00000  Uiso   1.00
C1160  C     0.28144   0.44696   0.87066   0.00000  Uiso   1.00
C1161  C     0.25527   0.05417   0.88241   0.00000  Uiso   1.00
C1162  C     0.21910   0.44911   0.80651   0.00000  Uiso   1.00
C1163  C     0.24921   0.25008   0.73955   0.00000  Uiso   1.00
C1164  C     0.24970   0.24995   0.92697   0.00000  Uiso   1.00
C1165  C     0.25242   0.02672   0.83884   0.00000  Uiso   1.00
C1166  C     0.25069   0.47375   0.83947   0.00000  Uiso   1.00
C1167  C     0.24847   0.25021   0.68826   0.00000  Uiso   1.00
C1168  C     0.24863   0.25002   0.97802   0.00000  Uiso   1.00
C1169  C     0.04295   0.27263   0.79551   0.00000  Uiso   1.00
C1170  C     0.44913   0.20311   0.80800   0.00000  Uiso   1.00
C1171  C     0.45647   0.28258   0.83900   0.00000  Uiso   1.00
C1172  C     0.04964   0.20871   0.85587   0.00000  Uiso   1.00
C1173  C     0.08851   0.28099   0.80595   0.00000  Uiso   1.00
C1174  C     0.40288   0.20419   0.81148   0.00000  Uiso   1.00
C1175  C     0.41058   0.28671   0.83221   0.00000  Uiso   1.00
C1176  C     0.09612   0.21058   0.85727   0.00000  Uiso   1.00
C1177  C     0.11568   0.24799   0.83350   0.00000  Uiso   1.00
C1178  C     0.38363   0.24696   0.82451   0.00000  Uiso   1.00
C1179  C     0.02346   0.23943   0.82419   0.00000  Uiso   1.00
C1180  C     0.47565   0.24107   0.82519   0.00000  Uiso   1.00
N1181  N     0.25000   0.12623   0.83333   0.00000  Uiso   1.00
N1182  N     0.25000   0.37376   0.83333   0.00000  Uiso   1.00
O1183  O     0.18453   0.28974   0.83334   0.00000  Uiso   1.00
O1184  O     0.31547   0.21026   0.83333   0.00000  Uiso   1.00
O1185  O     0.31547   0.28974   0.83333   0.00000  Uiso   1.00
O1186  O     0.18453   0.21026   0.83334   0.00000  Uiso   1.00
O1187  O     0.25000   0.28973   0.76178   0.00000  Uiso   1.00
O1188  O     0.25000   0.21027   0.90489   0.00000  Uiso   1.00
O1189  O     0.25000   0.28973   0.90489   0.00000  Uiso   1.00
O1190  O     0.25000   0.21027   0.76178   0.00000  Uiso   1.00
Zn1191 Zn    0.25000   0.30307   0.83333   0.00000  Uiso   1.00
Zn1192 Zn    0.25000   0.19693   0.83333   0.00000  Uiso   1.00
C1193  C     0.19832   0.10782   0.74829   0.00000  Uiso   1.00
C1194  C     0.17683   0.15073   0.73934   0.00000  Uiso   1.00
C1195  C     0.14220   0.15830   0.70071   0.00000  Uiso   1.00
C1196  C     0.12578   0.12196   0.67019   0.00000  Uiso   1.00
C1197  C     0.14362   0.07813   0.67902   0.00000  Uiso   1.00
C1198  C     0.17883   0.07114   0.71710   0.00000  Uiso   1.00
H1199  H     0.18467   0.17905   0.76176   0.00000  Uiso   1.00
H1200  H     0.12744   0.19241   0.69530   0.00000  Uiso   1.00
H1201  H     0.09859   0.12743   0.97404   0.00000  Uiso   1.00
H1202  H     0.12992   0.04914   0.98989   0.00000  Uiso   1.00
H1203  H     0.18870   0.03576   0.72174   0.00000  Uiso   1.00
C1204  C     0.31000   0.37333   0.90817   0.00000  Uiso   1.00
C1205  C     0.29623   0.35678   0.95291   0.00000  Uiso   1.00
C1206  C     0.32676   0.33760   0.99046   0.00000  Uiso   1.00
C1207  C     0.37223   0.33810   0.98547   0.00000  Uiso   1.00
C1208  C     0.38695   0.35951   0.94387   0.00000  Uiso   1.00
C1209  C     0.35602   0.37769   0.90604   0.00000  Uiso   1.00
H1210  H     0.26157   0.35671   0.95790   0.00000  Uiso   1.00
H1211  H     0.31490   0.32257   0.68996   0.00000  Uiso   1.00
H1212  H     0.39612   0.32309   0.68087   0.00000  Uiso   1.00
H1213  H     0.42226   0.36263   0.94116   0.00000  Uiso   1.00
H1214  H     0.36807   0.39627   0.87544   0.00000  Uiso   1.00
C1215  C     0.28520   0.12679   0.92279   0.00000  Uiso   1.00
C1216  C     0.32767   0.14593   0.92034   0.00000  Uiso   1.00
C1217  C     0.35093   0.16777   0.96192   0.00000  Uiso   1.00
C1218  C     0.33263   0.16899   0.67375   0.00000  Uiso   1.00
C1219  C     0.29143   0.14788   0.67743   0.00000  Uiso   1.00
C1220  C     0.26732   0.12761   0.96872   0.00000  Uiso   1.00
H1221  H     0.34277   0.14392   0.88631   0.00000  Uiso   1.00
H1222  H     0.38321   0.18345   0.95917   0.00000  Uiso   1.00
H1223  H     0.35022   0.18653   0.70569   0.00000  Uiso   1.00
H1224  H     0.27788   0.14766   0.71271   0.00000  Uiso   1.00
H1225  H     0.23470   0.11321   0.97204   0.00000  Uiso   1.00
C1226  C     0.21099   0.38604   0.74448   0.00000  Uiso   1.00
C1227  C     0.22284   0.41428   0.70502   0.00000  Uiso   1.00
C1228  C     0.20374   0.40704   0.98895   0.00000  Uiso   1.00
C1229  C     0.17413   0.37030   0.97744   0.00000  Uiso   1.00
C1230  C     0.16352   0.34091   0.68217   0.00000  Uiso   1.00
C1231  C     0.18164   0.34915   0.73171   0.00000  Uiso   1.00
H1232  H     0.24611   0.44281   0.71265   0.00000  Uiso   1.00
H1233  H     0.21349   0.42846   0.95911   0.00000  Uiso   1.00
H1234  H     0.16035   0.36401   0.93900   0.00000  Uiso   1.00
H1235  H     0.14125   0.31171   0.67340   0.00000  Uiso   1.00
H1236  H     0.17367   0.32577   0.75937   0.00000  Uiso   1.00
O1237  O     0.01611   0.30096   0.76273   0.00000  Uiso   1.00
C1238  C     0.02680   0.29523   0.71337   0.00000  Uiso   1.00
H1239  H     0.03476   0.25864   0.70460   0.00000  Uiso   1.00
H1240  H     0.05488   0.31842   0.70638   0.00000  Uiso   1.00
H1241  H     0.49742   0.30555   0.68692   0.00000  Uiso   1.00
O1242  O     0.46894   0.16510   0.78860   0.00000  Uiso   1.00
C1243  C     0.46525   0.16981   0.73599   0.00000  Uiso   1.00
H1244  H     0.48018   0.20295   0.72455   0.00000  Uiso   1.00
H1245  H     0.42991   0.16721   0.71904   0.00000  Uiso   1.00
H1246  H     0.48375   0.14106   0.72072   0.00000  Uiso   1.00
O1247  O     0.48197   0.32172   0.85246   0.00000  Uiso   1.00
C1248  C     0.00019   0.31792   0.90319   0.00000  Uiso   1.00
H1249  H     0.47591   0.30379   0.92753   0.00000  Uiso   1.00
H1250  H     0.01009   0.35309   0.91723   0.00000  Uiso   1.00
H1251  H     0.03080   0.29643   0.90685   0.00000  Uiso   1.00
O1252  O     0.02990   0.17547   0.88345   0.00000  Uiso   1.00
C1253  C     0.02651   0.19318   0.93170   0.00000  Uiso   1.00
H1254  H     0.05876   0.20763   0.94988   0.00000  Uiso   1.00
H1255  H     0.01680   0.16441   0.95576   0.00000  Uiso   1.00
H1256  H     0.49991   0.21977   0.93017   0.00000  Uiso   1.00
O1257  O     0.10612   0.32068   0.78749   0.00000  Uiso   1.00
C1258  C     0.09944   0.35787   0.81966   0.00000  Uiso   1.00
H1259  H     0.06335   0.36528   0.81993   0.00000  Uiso   1.00
H1260  H     0.11506   0.38933   0.80546   0.00000  Uiso   1.00
H1261  H     0.11562   0.35122   0.85844   0.00000  Uiso   1.00
O1262  O     0.37501   0.16697   0.79553   0.00000  Uiso   1.00
C1263  C     0.39155   0.12375   0.81453   0.00000  Uiso   1.00
H1264  H     0.41272   0.12651   0.85141   0.00000  Uiso   1.00
H1265  H     0.40976   0.10608   0.78661   0.00000  Uiso   1.00
H1266  H     0.36280   0.10096   0.81995   0.00000  Uiso   1.00
O1267  O     0.39247   0.33015   0.83399   0.00000  Uiso   1.00
C1268  C     0.38735   0.34893   0.78518   0.00000  Uiso   1.00
H1269  H     0.36488   0.32677   0.75954   0.00000  Uiso   1.00
H1270  H     0.42015   0.35358   0.77079   0.00000  Uiso   1.00
H1271  H     0.37162   0.38357   0.78601   0.00000  Uiso   1.00
O1272  O     0.12271   0.17970   0.88701   0.00000  Uiso   1.00
C1273  C     0.12070   0.13574   0.86369   0.00000  Uiso   1.00
H1274  H     0.12369   0.13800   0.82282   0.00000  Uiso   1.00
H1275  H     0.08960   0.11702   0.86984   0.00000  Uiso   1.00
H1276  H     0.14918   0.11476   0.88109   0.00000  Uiso   1.00
O1277  O     0.26119   0.02803   0.75110   0.00000  Uiso   1.00
C1278  C     0.30586   0.03713   0.74413   0.00000  Uiso   1.00
H1279  H     0.32902   0.02035   0.77401   0.00000  Uiso   1.00
H1280  H     0.31307   0.07494   0.74281   0.00000  Uiso   1.00
H1281  H     0.31222   0.02215   0.70770   0.00000  Uiso   1.00
O1282  O     0.31319   0.46829   0.90496   0.00000  Uiso   1.00
C1283  C     0.34728   0.48848   0.88002   0.00000  Uiso   1.00
H1284  H     0.34070   0.02587   0.87287   0.00000  Uiso   1.00
H1285  H     0.35230   0.47091   0.84424   0.00000  Uiso   1.00
H1286  H     0.37919   0.48608   0.90509   0.00000  Uiso   1.00
O1287  O     0.25680   0.03354   0.92905   0.00000  Uiso   1.00
C1288  C     0.21271   0.02303   0.93757   0.00000  Uiso   1.00
H1289  H     0.19832   0.49479   0.91261   0.00000  Uiso   1.00
H1290  H     0.19068   0.05390   0.93233   0.00000  Uiso   1.00
H1291  H     0.21322   0.01102   0.97681   0.00000  Uiso   1.00
O1292  O     0.18486   0.47205   0.77773   0.00000  Uiso   1.00
C1293  C     0.15285   0.48660   0.80850   0.00000  Uiso   1.00
H1294  H     0.16248   0.02060   0.82597   0.00000  Uiso   1.00
H1295  H     0.14703   0.46072   0.83799   0.00000  Uiso   1.00
H1296  H     0.12063   0.49159   0.78456   0.00000  Uiso   1.00
C1297  C     0.66398   0.24975   0.83395   0.00000  Uiso   1.00
C1298  C     0.83588   0.24960   0.83061   0.00000  Uiso   1.00
C1299  C     0.73636   0.09788   0.79133   0.00000  Uiso   1.00
C1300  C     0.77822   0.39739   0.87009   0.00000  Uiso   1.00
C1301  C     0.76177   0.10309   0.87847   0.00000  Uiso   1.00
C1302  C     0.72498   0.40099   0.79761   0.00000  Uiso   1.00
C1303  C     0.75178   0.05109   0.79361   0.00000  Uiso   1.00
C1304  C     0.78144   0.44696   0.87066   0.00000  Uiso   1.00
C1305  C     0.75527   0.05417   0.88241   0.00000  Uiso   1.00
C1306  C     0.71910   0.44911   0.80651   0.00000  Uiso   1.00
C1307  C     0.74921   0.25008   0.73955   0.00000  Uiso   1.00
C1308  C     0.74970   0.24995   0.92697   0.00000  Uiso   1.00
C1309  C     0.75242   0.02672   0.83884   0.00000  Uiso   1.00
C1310  C     0.75069   0.47375   0.83947   0.00000  Uiso   1.00
C1311  C     0.74847   0.25021   0.68826   0.00000  Uiso   1.00
C1312  C     0.74863   0.25002   0.97802   0.00000  Uiso   1.00
C1313  C     0.54295   0.27263   0.79551   0.00000  Uiso   1.00
C1314  C     0.94913   0.20311   0.80800   0.00000  Uiso   1.00
C1315  C     0.95647   0.28258   0.83900   0.00000  Uiso   1.00
C1316  C     0.54964   0.20871   0.85587   0.00000  Uiso   1.00
C1317  C     0.58851   0.28099   0.80595   0.00000  Uiso   1.00
C1318  C     0.90288   0.20419   0.81148   0.00000  Uiso   1.00
C1319  C     0.91058   0.28671   0.83221   0.00000  Uiso   1.00
C1320  C     0.59612   0.21058   0.85727   0.00000  Uiso   1.00
C1321  C     0.61568   0.24799   0.83350   0.00000  Uiso   1.00
C1322  C     0.88363   0.24696   0.82451   0.00000  Uiso   1.00
C1323  C     0.52346   0.23943   0.82419   0.00000  Uiso   1.00
C1324  C     0.97565   0.24107   0.82519   0.00000  Uiso   1.00
N1325  N     0.75000   0.12623   0.83333   0.00000  Uiso   1.00
N1326  N     0.75000   0.37376   0.83333   0.00000  Uiso   1.00
O1327  O     0.68453   0.28974   0.83334   0.00000  Uiso   1.00
O1328  O     0.81547   0.21026   0.83333   0.00000  Uiso   1.00
O1329  O     0.81547   0.28974   0.83333   0.00000  Uiso   1.00
O1330  O     0.68453   0.21026   0.83334   0.00000  Uiso   1.00
O1331  O     0.75000   0.28973   0.76178   0.00000  Uiso   1.00
O1332  O     0.75000   0.21027   0.90489   0.00000  Uiso   1.00
O1333  O     0.75000   0.28973   0.90489   0.00000  Uiso   1.00
O1334  O     0.75000   0.21027   0.76178   0.00000  Uiso   1.00
Zn1335 Zn    0.75000   0.30307   0.83333   0.00000  Uiso   1.00
Zn1336 Zn    0.75000   0.19693   0.83333   0.00000  Uiso   1.00
C1337  C     0.69832   0.10782   0.74829   0.00000  Uiso   1.00
C1338  C     0.67683   0.15073   0.73934   0.00000  Uiso   1.00
C1339  C     0.64220   0.15830   0.70071   0.00000  Uiso   1.00
C1340  C     0.62578   0.12196   0.67019   0.00000  Uiso   1.00
C1341  C     0.64362   0.07813   0.67902   0.00000  Uiso   1.00
C1342  C     0.67883   0.07114   0.71710   0.00000  Uiso   1.00
H1343  H     0.68467   0.17905   0.76176   0.00000  Uiso   1.00
H1344  H     0.62744   0.19241   0.69530   0.00000  Uiso   1.00
H1345  H     0.59859   0.12743   0.97404   0.00000  Uiso   1.00
H1346  H     0.62992   0.04914   0.98989   0.00000  Uiso   1.00
H1347  H     0.68870   0.03576   0.72174   0.00000  Uiso   1.00
C1348  C     0.81000   0.37333   0.90817   0.00000  Uiso   1.00
C1349  C     0.79623   0.35678   0.95291   0.00000  Uiso   1.00
C1350  C     0.82676   0.33760   0.99046   0.00000  Uiso   1.00
C1351  C     0.87223   0.33810   0.98547   0.00000  Uiso   1.00
C1352  C     0.88695   0.35951   0.94387   0.00000  Uiso   1.00
C1353  C     0.85602   0.37769   0.90604   0.00000  Uiso   1.00
H1354  H     0.76157   0.35671   0.95790   0.00000  Uiso   1.00
H1355  H     0.81490   0.32257   0.68996   0.00000  Uiso   1.00
H1356  H     0.89612   0.32309   0.68087   0.00000  Uiso   1.00
H1357  H     0.92226   0.36263   0.94116   0.00000  Uiso   1.00
H1358  H     0.86807   0.39627   0.87544   0.00000  Uiso   1.00
C1359  C     0.78520   0.12679   0.92279   0.00000  Uiso   1.00
C1360  C     0.82767   0.14593   0.92034   0.00000  Uiso   1.00
C1361  C     0.85093   0.16777   0.96192   0.00000  Uiso   1.00
C1362  C     0.83263   0.16899   0.67375   0.00000  Uiso   1.00
C1363  C     0.79143   0.14788   0.67743   0.00000  Uiso   1.00
C1364  C     0.76732   0.12761   0.96872   0.00000  Uiso   1.00
H1365  H     0.84277   0.14392   0.88631   0.00000  Uiso   1.00
H1366  H     0.88321   0.18345   0.95917   0.00000  Uiso   1.00
H1367  H     0.85022   0.18653   0.70569   0.00000  Uiso   1.00
H1368  H     0.77788   0.14766   0.71271   0.00000  Uiso   1.00
H1369  H     0.73470   0.11321   0.97204   0.00000  Uiso   1.00
C1370  C     0.71099   0.38604   0.74448   0.00000  Uiso   1.00
C1371  C     0.72284   0.41428   0.70502   0.00000  Uiso   1.00
C1372  C     0.70374   0.40704   0.98895   0.00000  Uiso   1.00
C1373  C     0.67413   0.37030   0.97744   0.00000  Uiso   1.00
C1374  C     0.66352   0.34091   0.68217   0.00000  Uiso   1.00
C1375  C     0.68164   0.34915   0.73171   0.00000  Uiso   1.00
H1376  H     0.74611   0.44281   0.71265   0.00000  Uiso   1.00
H1377  H     0.71349   0.42846   0.95911   0.00000  Uiso   1.00
H1378  H     0.66035   0.36401   0.93900   0.00000  Uiso   1.00
H1379  H     0.64125   0.31171   0.67340   0.00000  Uiso   1.00
H1380  H     0.67367   0.32577   0.75937   0.00000  Uiso   1.00
O1381  O     0.51611   0.30096   0.76273   0.00000  Uiso   1.00
C1382  C     0.52680   0.29523   0.71337   0.00000  Uiso   1.00
H1383  H     0.53476   0.25864   0.70460   0.00000  Uiso   1.00
H1384  H     0.55488   0.31842   0.70638   0.00000  Uiso   1.00
H1385  H     0.99742   0.30555   0.68692   0.00000  Uiso   1.00
O1386  O     0.96894   0.16510   0.78860   0.00000  Uiso   1.00
C1387  C     0.96525   0.16981   0.73599   0.00000  Uiso   1.00
H1388  H     0.98018   0.20295   0.72455   0.00000  Uiso   1.00
H1389  H     0.92991   0.16721   0.71904   0.00000  Uiso   1.00
H1390  H     0.98375   0.14106   0.72072   0.00000  Uiso   1.00
O1391  O     0.98197   0.32172   0.85246   0.00000  Uiso   1.00
C1392  C     0.50019   0.31792   0.90319   0.00000  Uiso   1.00
H1393  H     0.97591   0.30379   0.92753   0.00000  Uiso   1.00
H1394  H     0.51009   0.35309   0.91723   0.00000  Uiso   1.00
H1395  H     0.53080   0.29643   0.90685   0.00000  Uiso   1.00
O1396  O     0.52990   0.17547   0.88345   0.00000  Uiso   1.00
C1397  C     0.52651   0.19318   0.93170   0.00000  Uiso   1.00
H1398  H     0.55876   0.20763   0.94988   0.00000  Uiso   1.00
H1399  H     0.51680   0.16441   0.95576   0.00000  Uiso   1.00
H1400  H     0.99991   0.21977   0.93017   0.00000  Uiso   1.00
O1401  O     0.60612   0.32068   0.78749   0.00000  Uiso   1.00
C1402  C     0.59944   0.35787   0.81966   0.00000  Uiso   1.00
H1403  H     0.56335   0.36528   0.81993   0.00000  Uiso   1.00
H1404  H     0.61506   0.38933   0.80546   0.00000  Uiso   1.00
H1405  H     0.61562   0.35122   0.85844   0.00000  Uiso   1.00
O1406  O     0.87501   0.16697   0.79553   0.00000  Uiso   1.00
C1407  C     0.89155   0.12375   0.81453   0.00000  Uiso   1.00
H1408  H     0.91272   0.12651   0.85141   0.00000  Uiso   1.00
H1409  H     0.90976   0.10608   0.78661   0.00000  Uiso   1.00
H1410  H     0.86280   0.10096   0.81995   0.00000  Uiso   1.00
O1411  O     0.89247   0.33015   0.83399   0.00000  Uiso   1.00
C1412  C     0.88735   0.34893   0.78518   0.00000  Uiso   1.00
H1413  H     0.86488   0.32677   0.75954   0.00000  Uiso   1.00
H1414  H     0.92015   0.35358   0.77079   0.00000  Uiso   1.00
H1415  H     0.87162   0.38357   0.78601   0.00000  Uiso   1.00
O1416  O     0.62271   0.17970   0.88701   0.00000  Uiso   1.00
C1417  C     0.62070   0.13574   0.86369   0.00000  Uiso   1.00
H1418  H     0.62369   0.13800   0.82282   0.00000  Uiso   1.00
H1419  H     0.58960   0.11702   0.86984   0.00000  Uiso   1.00
H1420  H     0.64918   0.11476   0.88109   0.00000  Uiso   1.00
O1421  O     0.76119   0.02803   0.75110   0.00000  Uiso   1.00
C1422  C     0.80586   0.03713   0.74413   0.00000  Uiso   1.00
H1423  H     0.82902   0.02035   0.77401   0.00000  Uiso   1.00
H1424  H     0.81307   0.07494   0.74281   0.00000  Uiso   1.00
H1425  H     0.81222   0.02215   0.70770   0.00000  Uiso   1.00
O1426  O     0.81319   0.46829   0.90496   0.00000  Uiso   1.00
C1427  C     0.84728   0.48848   0.88002   0.00000  Uiso   1.00
H1428  H     0.84070   0.02587   0.87287   0.00000  Uiso   1.00
H1429  H     0.85230   0.47091   0.84424   0.00000  Uiso   1.00
H1430  H     0.87919   0.48608   0.90509   0.00000  Uiso   1.00
O1431  O     0.75680   0.03354   0.92905   0.00000  Uiso   1.00
C1432  C     0.71271   0.02303   0.93757   0.00000  Uiso   1.00
H1433  H     0.69832   0.49479   0.91261   0.00000  Uiso   1.00
H1434  H     0.69068   0.05390   0.93233   0.00000  Uiso   1.00
H1435  H     0.71322   0.01102   0.97681   0.00000  Uiso   1.00
O1436  O     0.68486   0.47205   0.77773   0.00000  Uiso   1.00
C1437  C     0.65285   0.48660   0.80850   0.00000  Uiso   1.00
H1438  H     0.66248   0.02060   0.82597   0.00000  Uiso   1.00
H1439  H     0.64703   0.46072   0.83799   0.00000  Uiso   1.00
H1440  H     0.62063   0.49159   0.78456   0.00000  Uiso   1.00
C1441  C     0.16398   0.74975   0.83395   0.00000  Uiso   1.00
C1442  C     0.33588   0.74960   0.83061   0.00000  Uiso   1.00
C1443  C     0.23636   0.59788   0.79133   0.00000  Uiso   1.00
C1444  C     0.27822   0.89739   0.87009   0.00000  Uiso   1.00
C1445  C     0.26177   0.60309   0.87847   0.00000  Uiso   1.00
C1446  C     0.22498   0.90099   0.79761   0.00000  Uiso   1.00
C1447  C     0.25178   0.55109   0.79361   0.00000  Uiso   1.00
C1448  C     0.28144   0.94696   0.87066   0.00000  Uiso   1.00
C1449  C     0.25527   0.55417   0.88241   0.00000  Uiso   1.00
C1450  C     0.21910   0.94911   0.80651   0.00000  Uiso   1.00
C1451  C     0.24921   0.75008   0.73955   0.00000  Uiso   1.00
C1452  C     0.24970   0.74995   0.92697   0.00000  Uiso   1.00
C1453  C     0.25242   0.52672   0.83884   0.00000  Uiso   1.00
C1454  C     0.25069   0.97375   0.83947   0.00000  Uiso   1.00
C1455  C     0.24847   0.75021   0.68826   0.00000  Uiso   1.00
C1456  C     0.24863   0.75002   0.97802   0.00000  Uiso   1.00
C1457  C     0.04295   0.77263   0.79551   0.00000  Uiso   1.00
C1458  C     0.44913   0.70311   0.80800   0.00000  Uiso   1.00
C1459  C     0.45647   0.78258   0.83900   0.00000  Uiso   1.00
C1460  C     0.04964   0.70871   0.85587   0.00000  Uiso   1.00
C1461  C     0.08851   0.78099   0.80595   0.00000  Uiso   1.00
C1462  C     0.40288   0.70419   0.81148   0.00000  Uiso   1.00
C1463  C     0.41058   0.78671   0.83221   0.00000  Uiso   1.00
C1464  C     0.09612   0.71058   0.85727   0.00000  Uiso   1.00
C1465  C     0.11568   0.74799   0.83350   0.00000  Uiso   1.00
C1466  C     0.38363   0.74696   0.82451   0.00000  Uiso   1.00
C1467  C     0.02346   0.73943   0.82419   0.00000  Uiso   1.00
C1468  C     0.47565   0.74107   0.82519   0.00000  Uiso   1.00
N1469  N     0.25000   0.62623   0.83333   0.00000  Uiso   1.00
N1470  N     0.25000   0.87376   0.83333   0.00000  Uiso   1.00
O1471  O     0.18453   0.78974   0.83334   0.00000  Uiso   1.00
O1472  O     0.31547   0.71026   0.83333   0.00000  Uiso   1.00
O1473  O     0.31547   0.78974   0.83333   0.00000  Uiso   1.00
O1474  O     0.18453   0.71026   0.83334   0.00000  Uiso   1.00
O1475  O     0.25000   0.78973   0.76178   0.00000  Uiso   1.00
O1476  O     0.25000   0.71027   0.90489   0.00000  Uiso   1.00
O1477  O     0.25000   0.78973   0.90489   0.00000  Uiso   1.00
O1478  O     0.25000   0.71027   0.76178   0.00000  Uiso   1.00
Zn1479 Zn    0.25000   0.80307   0.83333   0.00000  Uiso   1.00
Zn1480 Zn    0.25000   0.69693   0.83333   0.00000  Uiso   1.00
C1481  C     0.19832   0.60782   0.74829   0.00000  Uiso   1.00
C1482  C     0.17683   0.65073   0.73934   0.00000  Uiso   1.00
C1483  C     0.14220   0.65830   0.70071   0.00000  Uiso   1.00
C1484  C     0.12578   0.62196   0.67019   0.00000  Uiso   1.00
C1485  C     0.14362   0.57813   0.67902   0.00000  Uiso   1.00
C1486  C     0.17883   0.57114   0.71710   0.00000  Uiso   1.00
H1487  H     0.18467   0.67905   0.76176   0.00000  Uiso   1.00
H1488  H     0.12744   0.69241   0.69530   0.00000  Uiso   1.00
H1489  H     0.09859   0.62743   0.97404   0.00000  Uiso   1.00
H1490  H     0.12992   0.54914   0.98989   0.00000  Uiso   1.00
H1491  H     0.18870   0.53576   0.72174   0.00000  Uiso   1.00
C1492  C     0.31000   0.87333   0.90817   0.00000  Uiso   1.00
C1493  C     0.29623   0.85678   0.95291   0.00000  Uiso   1.00
C1494  C     0.32676   0.83760   0.99046   0.00000  Uiso   1.00
C1495  C     0.37223   0.83810   0.98547   0.00000  Uiso   1.00
C1496  C     0.38695   0.85951   0.94387   0.00000  Uiso   1.00
C1497  C     0.35602   0.87769   0.90604   0.00000  Uiso   1.00
H1498  H     0.26157   0.85671   0.95790   0.00000  Uiso   1.00
H1499  H     0.31490   0.82257   0.68996   0.00000  Uiso   1.00
H1500  H     0.39612   0.82309   0.68087   0.00000  Uiso   1.00
H1501  H     0.42226   0.86263   0.94116   0.00000  Uiso   1.00
H1502  H     0.36807   0.89627   0.87544   0.00000  Uiso   1.00
C1503  C     0.28520   0.62679   0.92279   0.00000  Uiso   1.00
C1504  C     0.32767   0.64593   0.92034   0.00000  Uiso   1.00
C1505  C     0.35093   0.66777   0.96192   0.00000  Uiso   1.00
C1506  C     0.33263   0.66899   0.67375   0.00000  Uiso   1.00
C1507  C     0.29143   0.64788   0.67743   0.00000  Uiso   1.00
C1508  C     0.26732   0.62761   0.96872   0.00000  Uiso   1.00
H1509  H     0.34277   0.64392   0.88631   0.00000  Uiso   1.00
H1510  H     0.38321   0.68345   0.95917   0.00000  Uiso   1.00
H1511  H     0.35022   0.68653   0.70569   0.00000  Uiso   1.00
H1512  H     0.27788   0.64766   0.71271   0.00000  Uiso   1.00
H1513  H     0.23470   0.61321   0.97204   0.00000  Uiso   1.00
C1514  C     0.21099   0.88604   0.74448   0.00000  Uiso   1.00
C1515  C     0.22284   0.91428   0.70502   0.00000  Uiso   1.00
C1516  C     0.20374   0.90704   0.98895   0.00000  Uiso   1.00
C1517  C     0.17413   0.87030   0.97744   0.00000  Uiso   1.00
C1518  C     0.16352   0.84091   0.68217   0.00000  Uiso   1.00
C1519  C     0.18164   0.84915   0.73171   0.00000  Uiso   1.00
H1520  H     0.24611   0.94281   0.71265   0.00000  Uiso   1.00
H1521  H     0.21349   0.92846   0.95911   0.00000  Uiso   1.00
H1522  H     0.16035   0.86401   0.93900   0.00000  Uiso   1.00
H1523  H     0.14125   0.81171   0.67340   0.00000  Uiso   1.00
H1524  H     0.17367   0.82577   0.75937   0.00000  Uiso   1.00
O1525  O     0.01611   0.80096   0.76273   0.00000  Uiso   1.00
C1526  C     0.02680   0.79523   0.71337   0.00000  Uiso   1.00
H1527  H     0.03476   0.75864   0.70460   0.00000  Uiso   1.00
H1528  H     0.05488   0.81842   0.70638   0.00000  Uiso   1.00
H1529  H     0.49742   0.80555   0.68692   0.00000  Uiso   1.00
O1530  O     0.46894   0.66510   0.78860   0.00000  Uiso   1.00
C1531  C     0.46525   0.66981   0.73599   0.00000  Uiso   1.00
H1532  H     0.48018   0.70295   0.72455   0.00000  Uiso   1.00
H1533  H     0.42991   0.66721   0.71904   0.00000  Uiso   1.00
H1534  H     0.48375   0.64106   0.72072   0.00000  Uiso   1.00
O1535  O     0.48197   0.82172   0.85246   0.00000  Uiso   1.00
C1536  C     0.00019   0.81792   0.90319   0.00000  Uiso   1.00
H1537  H     0.47591   0.80379   0.92753   0.00000  Uiso   1.00
H1538  H     0.01009   0.85309   0.91723   0.00000  Uiso   1.00
H1539  H     0.03080   0.79643   0.90685   0.00000  Uiso   1.00
O1540  O     0.02990   0.67547   0.88345   0.00000  Uiso   1.00
C1541  C     0.02651   0.69318   0.93170   0.00000  Uiso   1.00
H1542  H     0.05876   0.70763   0.94988   0.00000  Uiso   1.00
H1543  H     0.01680   0.66441   0.95576   0.00000  Uiso   1.00
H1544  H     0.49991   0.71977   0.93017   0.00000  Uiso   1.00
O1545  O     0.10612   0.82068   0.78749   0.00000  Uiso   1.00
C1546  C     0.09944   0.85787   0.81966   0.00000  Uiso   1.00
H1547  H     0.06335   0.86528   0.81993   0.00000  Uiso   1.00
H1548  H     0.11506   0.88933   0.80546   0.00000  Uiso   1.00
H1549  H     0.11562   0.85122   0.85844   0.00000  Uiso   1.00
O1550  O     0.37501   0.66697   0.79553   0.00000  Uiso   1.00
C1551  C     0.39155   0.62375   0.81453   0.00000  Uiso   1.00
H1552  H     0.41272   0.62651   0.85141   0.00000  Uiso   1.00
H1553  H     0.40976   0.60608   0.78661   0.00000  Uiso   1.00
H1554  H     0.36280   0.60096   0.81995   0.00000  Uiso   1.00
O1555  O     0.39247   0.83015   0.83399   0.00000  Uiso   1.00
C1556  C     0.38735   0.84893   0.78518   0.00000  Uiso   1.00
H1557  H     0.36488   0.82677   0.75954   0.00000  Uiso   1.00
H1558  H     0.42015   0.85358   0.77079   0.00000  Uiso   1.00
H1559  H     0.37162   0.88357   0.78601   0.00000  Uiso   1.00
O1560  O     0.12271   0.67970   0.88701   0.00000  Uiso   1.00
C1561  C     0.12070   0.63574   0.86369   0.00000  Uiso   1.00
H1562  H     0.12369   0.63800   0.82282   0.00000  Uiso   1.00
H1563  H     0.08960   0.61702   0.86984   0.00000  Uiso   1.00
H1564  H     0.14918   0.61476   0.88109   0.00000  Uiso   1.00
O1565  O     0.26119   0.52803   0.75110   0.00000  Uiso   1.00
C1566  C     0.30586   0.53713   0.74413   0.00000  Uiso   1.00
H1567  H     0.32902   0.52035   0.77401   0.00000  Uiso   1.00
H1568  H     0.31307   0.57494   0.74281   0.00000  Uiso   1.00
H1569  H     0.31222   0.52215   0.70770   0.00000  Uiso   1.00
O1570  O     0.31319   0.96829   0.90496   0.00000  Uiso   1.00
C1571  C     0.34728   0.98848   0.88002   0.00000  Uiso   1.00
H1572  H     0.34070   0.52587   0.87287   0.00000  Uiso   1.00
H1573  H     0.35230   0.97091   0.84424   0.00000  Uiso   1.00
H1574  H     0.37919   0.98608   0.90509   0.00000  Uiso   1.00
O1575  O     0.25680   0.53354   0.92905   0.00000  Uiso   1.00
C1576  C     0.21271   0.52303   0.93757   0.00000  Uiso   1.00
H1577  H     0.19832   0.99479   0.91261   0.00000  Uiso   1.00
H1578  H     0.19068   0.55390   0.93233   0.00000  Uiso   1.00
H1579  H     0.21322   0.51102   0.97681   0.00000  Uiso   1.00
O1580  O     0.18486   0.97205   0.77773   0.00000  Uiso   1.00
C1581  C     0.15285   0.98660   0.80850   0.00000  Uiso   1.00
H1582  H     0.16248   0.52060   0.82597   0.00000  Uiso   1.00
H1583  H     0.14703   0.96072   0.83799   0.00000  Uiso   1.00
H1584  H     0.12063   0.99159   0.78456   0.00000  Uiso   1.00
C1585  C     0.66398   0.74975   0.83395   0.00000  Uiso   1.00
C1586  C     0.83588   0.74960   0.83061   0.00000  Uiso   1.00
C1587  C     0.73636   0.59788   0.79133   0.00000  Uiso   1.00
C1588  C     0.77822   0.89739   0.87009   0.00000  Uiso   1.00
C1589  C     0.76177   0.60309   0.87847   0.00000  Uiso   1.00
C1590  C     0.72498   0.90099   0.79761   0.00000  Uiso   1.00
C1591  C     0.75178   0.55109   0.79361   0.00000  Uiso   1.00
C1592  C     0.78144   0.94696   0.87066   0.00000  Uiso   1.00
C1593  C     0.75527   0.55417   0.88241   0.00000  Uiso   1.00
C1594  C     0.71910   0.94911   0.80651   0.00000  Uiso   1.00
C1595  C     0.74921   0.75008   0.73955   0.00000  Uiso   1.00
C1596  C     0.74970   0.74995   0.92697   0.00000  Uiso   1.00
C1597  C     0.75242   0.52672   0.83884   0.00000  Uiso   1.00
C1598  C     0.75069   0.97375   0.83947   0.00000  Uiso   1.00
C1599  C     0.74847   0.75021   0.68826   0.00000  Uiso   1.00
C1600  C     0.74863   0.75002   0.97802   0.00000  Uiso   1.00
C1601  C     0.54295   0.77263   0.79551   0.00000  Uiso   1.00
C1602  C     0.94913   0.70311   0.80800   0.00000  Uiso   1.00
C1603  C     0.95647   0.78258   0.83900   0.00000  Uiso   1.00
C1604  C     0.54964   0.70871   0.85587   0.00000  Uiso   1.00
C1605  C     0.58851   0.78099   0.80595   0.00000  Uiso   1.00
C1606  C     0.90288   0.70419   0.81148   0.00000  Uiso   1.00
C1607  C     0.91058   0.78671   0.83221   0.00000  Uiso   1.00
C1608  C     0.59612   0.71058   0.85727   0.00000  Uiso   1.00
C1609  C     0.61568   0.74799   0.83350   0.00000  Uiso   1.00
C1610  C     0.88363   0.74696   0.82451   0.00000  Uiso   1.00
C1611  C     0.52346   0.73943   0.82419   0.00000  Uiso   1.00
C1612  C     0.97565   0.74107   0.82519   0.00000  Uiso   1.00
N1613  N     0.75000   0.62623   0.83333   0.00000  Uiso   1.00
N1614  N     0.75000   0.87376   0.83333   0.00000  Uiso   1.00
O1615  O     0.68453   0.78974   0.83334   0.00000  Uiso   1.00
O1616  O     0.81547   0.71026   0.83333   0.00000  Uiso   1.00
O1617  O     0.81547   0.78974   0.83333   0.00000  Uiso   1.00
O1618  O     0.68453   0.71026   0.83334   0.00000  Uiso   1.00
O1619  O     0.75000   0.78973   0.76178   0.00000  Uiso   1.00
O1620  O     0.75000   0.71027   0.90489   0.00000  Uiso   1.00
O1621  O     0.75000   0.78973   0.90489   0.00000  Uiso   1.00
O1622  O     0.75000   0.71027   0.76178   0.00000  Uiso   1.00
Zn1623 Zn    0.75000   0.80307   0.83333   0.00000  Uiso   1.00
Zn1624 Zn    0.75000   0.69693   0.83333   0.00000  Uiso   1.00
C1625  C     0.69832   0.60782   0.74829   0.00000  Uiso   1.00
C1626  C     0.67683   0.65073   0.73934   0.00000  Uiso   1.00
C1627  C     0.64220   0.65830   0.70071   0.00000  Uiso   1.00
C1628  C     0.62578   0.62196   0.67019   0.00000  Uiso   1.00
C1629  C     0.64362   0.57813   0.67902   0.00000  Uiso   1.00
C1630  C     0.67883   0.57114   0.71710   0.00000  Uiso   1.00
H1631  H     0.68467   0.67905   0.76176   0.00000  Uiso   1.00
H1632  H     0.62744   0.69241   0.69530   0.00000  Uiso   1.00
H1633  H     0.59859   0.62743   0.97404   0.00000  Uiso   1.00
H1634  H     0.62992   0.54914   0.98989   0.00000  Uiso   1.00
H1635  H     0.68870   0.53576   0.72174   0.00000  Uiso   1.00
C1636  C     0.81000   0.87333   0.90817   0.00000  Uiso   1.00
C1637  C     0.79623   0.85678   0.95291   0.00000  Uiso   1.00
C1638  C     0.82676   0.83760   0.99046   0.00000  Uiso   1.00
C1639  C     0.87223   0.83810   0.98547   0.00000  Uiso   1.00
C1640  C     0.88695   0.85951   0.94387   0.00000  Uiso   1.00
C1641  C     0.85602   0.87769   0.90604   0.00000  Uiso   1.00
H1642  H     0.76157   0.85671   0.95790   0.00000  Uiso   1.00
H1643  H     0.81490   0.82257   0.68996   0.00000  Uiso   1.00
H1644  H     0.89612   0.82309   0.68087   0.00000  Uiso   1.00
H1645  H     0.92226   0.86263   0.94116   0.00000  Uiso   1.00
H1646  H     0.86807   0.89627   0.87544   0.00000  Uiso   1.00
C1647  C     0.78520   0.62679   0.92279   0.00000  Uiso   1.00
C1648  C     0.82767   0.64593   0.92034   0.00000  Uiso   1.00
C1649  C     0.85093   0.66777   0.96192   0.00000  Uiso   1.00
C1650  C     0.83263   0.66899   0.67375   0.00000  Uiso   1.00
C1651  C     0.79143   0.64788   0.67743   0.00000  Uiso   1.00
C1652  C     0.76732   0.62761   0.96872   0.00000  Uiso   1.00
H1653  H     0.84277   0.64392   0.88631   0.00000  Uiso   1.00
H1654  H     0.88321   0.68345   0.95917   0.00000  Uiso   1.00
H1655  H     0.85022   0.68653   0.70569   0.00000  Uiso   1.00
H1656  H     0.77788   0.64766   0.71271   0.00000  Uiso   1.00
H1657  H     0.73470   0.61321   0.97204   0.00000  Uiso   1.00
C1658  C     0.71099   0.88604   0.74448   0.00000  Uiso   1.00
C1659  C     0.72284   0.91428   0.70502   0.00000  Uiso   1.00
C1660  C     0.70374   0.90704   0.98895   0.00000  Uiso   1.00
C1661  C     0.67413   0.87030   0.97744   0.00000  Uiso   1.00
C1662  C     0.66352   0.84091   0.68217   0.00000  Uiso   1.00
C1663  C     0.68164   0.84915   0.73171   0.00000  Uiso   1.00
H1664  H     0.74611   0.94281   0.71265   0.00000  Uiso   1.00
H1665  H     0.71349   0.92846   0.95911   0.00000  Uiso   1.00
H1666  H     0.66035   0.86401   0.93900   0.00000  Uiso   1.00
H1667  H     0.64125   0.81171   0.67340   0.00000  Uiso   1.00
H1668  H     0.67367   0.82577   0.75937   0.00000  Uiso   1.00
O1669  O     0.51611   0.80096   0.76273   0.00000  Uiso   1.00
C1670  C     0.52680   0.79523   0.71337   0.00000  Uiso   1.00
H1671  H     0.53476   0.75864   0.70460   0.00000  Uiso   1.00
H1672  H     0.55488   0.81842   0.70638   0.00000  Uiso   1.00
H1673  H     0.99742   0.80555   0.68692   0.00000  Uiso   1.00
O1674  O     0.96894   0.66510   0.78860   0.00000  Uiso   1.00
C1675  C     0.96525   0.66981   0.73599   0.00000  Uiso   1.00
H1676  H     0.98018   0.70295   0.72455   0.00000  Uiso   1.00
H1677  H     0.92991   0.66721   0.71904   0.00000  Uiso   1.00
H1678  H     0.98375   0.64106   0.72072   0.00000  Uiso   1.00
O1679  O     0.98197   0.82172   0.85246   0.00000  Uiso   1.00
C1680  C     0.50019   0.81792   0.90319   0.00000  Uiso   1.00
H1681  H     0.97591   0.80379   0.92753   0.00000  Uiso   1.00
H1682  H     0.51009   0.85309   0.91723   0.00000  Uiso   1.00
H1683  H     0.53080   0.79643   0.90685   0.00000  Uiso   1.00
O1684  O     0.52990   0.67547   0.88345   0.00000  Uiso   1.00
C1685  C     0.52651   0.69318   0.93170   0.00000  Uiso   1.00
H1686  H     0.55876   0.70763   0.94988   0.00000  Uiso   1.00
H1687  H     0.51680   0.66441   0.95576   0.00000  Uiso   1.00
H1688  H     0.99991   0.71977   0.93017   0.00000  Uiso   1.00
O1689  O     0.60612   0.82068   0.78749   0.00000  Uiso   1.00
C1690  C     0.59944   0.85787   0.81966   0.00000  Uiso   1.00
H1691  H     0.56335   0.86528   0.81993   0.00000  Uiso   1.00
H1692  H     0.61506   0.88933   0.80546   0.00000  Uiso   1.00
H1693  H     0.61562   0.85122   0.85844   0.00000  Uiso   1.00
O1694  O     0.87501   0.66697   0.79553   0.00000  Uiso   1.00
C1695  C     0.89155   0.62375   0.81453   0.00000  Uiso   1.00
H1696  H     0.91272   0.62651   0.85141   0.00000  Uiso   1.00
H1697  H     0.90976   0.60608   0.78661   0.00000  Uiso   1.00
H1698  H     0.86280   0.60096   0.81995   0.00000  Uiso   1.00
O1699  O     0.89247   0.83015   0.83399   0.00000  Uiso   1.00
C1700  C     0.88735   0.84893   0.78518   0.00000  Uiso   1.00
H1701  H     0.86488   0.82677   0.75954   0.00000  Uiso   1.00
H1702  H     0.92015   0.85358   0.77079   0.00000  Uiso   1.00
H1703  H     0.87162   0.88357   0.78601   0.00000  Uiso   1.00
O1704  O     0.62271   0.67970   0.88701   0.00000  Uiso   1.00
C1705  C     0.62070   0.63574   0.86369   0.00000  Uiso   1.00
H1706  H     0.62369   0.63800   0.82282   0.00000  Uiso   1.00
H1707  H     0.58960   0.61702   0.86984   0.00000  Uiso   1.00
H1708  H     0.64918   0.61476   0.88109   0.00000  Uiso   1.00
O1709  O     0.76119   0.52803   0.75110   0.00000  Uiso   1.00
C1710  C     0.80586   0.53713   0.74413   0.00000  Uiso   1.00
H1711  H     0.82902   0.52035   0.77401   0.00000  Uiso   1.00
H1712  H     0.81307   0.57494   0.74281   0.00000  Uiso   1.00
H1713  H     0.81222   0.52215   0.70770   0.00000  Uiso   1.00
O1714  O     0.81319   0.96829   0.90496   0.00000  Uiso   1.00
C1715  C     0.84728   0.98848   0.88002   0.00000  Uiso   1.00
H1716  H     0.84070   0.52587   0.87287   0.00000  Uiso   1.00
H1717  H     0.85230   0.97091   0.84424   0.00000  Uiso   1.00
H1718  H     0.87919   0.98608   0.90509   0.00000  Uiso   1.00
O1719  O     0.75680   0.53354   0.92905   0.00000  Uiso   1.00
C1720  C     0.71271   0.52303   0.93757   0.00000  Uiso   1.00
H1721  H     0.69832   0.99479   0.91261   0.00000  Uiso   1.00
H1722  H     0.69068   0.55390   0.93233   0.00000  Uiso   1.00
H1723  H     0.71322   0.51102   0.97681   0.00000  Uiso   1.00
O1724  O     0.68486   0.97205   0.77773   0.00000  Uiso   1.00
C1725  C     0.65285   0.98660   0.80850   0.00000  Uiso   1.00
H1726  H     0.66248   0.52060   0.82597   0.00000  Uiso   1.00
H1727  H     0.64703   0.96072   0.83799   0.00000  Uiso   1.00
H1728  H     0.62063   0.99159   0.78456   0.00000  Uiso   1.00
loop_
_geom_bond_atom_site_label_1
_geom_bond_atom_site_label_2
_geom_bond_distance
_geom_bond_site_symmetry_2
_ccdc_geom_bond_type
C1     O31     1.307   .     A
C1     C25     1.458   .     S
C1     O34     1.300   .     A
C2     O32     1.293   .     A
C2     O33     1.320   .     A
C2     C26     1.473   .     S
C3     C7      1.427   .     A
C3     N29     1.415   .     A
C3     C41     1.555   .     S
C4     C8      1.431   .     A
C4     C52     1.487   .     S
C4     N30     1.400   .     A
C5     C63     1.477   .     S
C5     N29     1.390   .     A
C5     C9      1.427   .     A
C6     C74     1.502   .     S
C6     N30     1.390   .     A
C6     C10     1.423   .     A
C7     O125    1.383   .     S
C7     C13     1.399   .     A
C8     O130    1.389   .     S
C8     C14     1.405   .     A
C9     C13     1.409   .     A
C9     O135    1.381   .     S
C10    O140    1.384   .     S
C10    C14     1.411   .     A
C11    C15     1.376   .     S
C11    O38     1.290   .     A
C11    O35     1.290   .     A
C12    O37     1.289   .     A
C12    C16     1.376   .     S
C12    O36     1.291   .     A
C13    C302    1.527   1_545 S
C14    C301    1.527   .     S
C15    C1168   1.171   1_554 S
C16    C591    1.171   .     S
C17    O85     1.389   .     S
C17    C27     1.397   .     A
C17    C21     1.390   .     A
C18    C28     1.398   .     A
C18    O90     1.384   .     S
C18    C22     1.412   .     A
C19    C23     1.381   .     A
C19    C28     1.402   .     A
C19    O95     1.386   .     S
C20    C24     1.400   .     A
C20    O100    1.384   .     S
C20    C27     1.404   .     A
C21    O105    1.374   .     S
C21    C25     1.407   .     A
C22    O110    1.396   .     S
C22    C26     1.428   .     A
C23    C26     1.402   .     A
C23    O115    1.372   .     S
C24    O120    1.386   .     S
C24    C25     1.413   .     A
C27    C172    1.448   1_455 S
C28    C171    1.448   .     S
N29    Zn40    2.037   .     S
N30    Zn39    2.037   .     S
O31    Zn39    2.012   .     S
O32    Zn40    2.012   .     S
O33    Zn39    2.016   .     S
O34    Zn40    2.016   .     S
O35    Zn39    1.962   .     S
O36    Zn40    1.962   .     S
O37    Zn39    1.959   .     S
O38    Zn40    1.959   .     S
C41    C42     1.406   .     A
C41    C46     1.430   .     A
C42    C43     1.399   .     A
C42    H47     1.026   .     S
C43    C44     1.384   .     A
C43    H48     1.083   .     S
C44    C45     1.384   .     A
C44    H1201   1.081   1_554 S
C45    C46     1.398   .     A
C45    H1202   1.083   1_554 S
C46    H51     1.066   .     S
H49    C620    1.081   .     S
H50    C621    1.083   .     S
C52    C53     1.400   .     A
C52    C57     1.403   .     A
C53    H58     1.071   .     S
C53    C54     1.396   .     A
C54    C55     1.395   .     A
C54    H635    1.080   .     S
C55    C56     1.393   .     A
C55    H636    1.081   .     S
C56    H61     1.081   .     S
C56    C57     1.397   .     A
C57    H62     1.078   .     S
H59    C1206   1.080   1_554 S
H60    C1207   1.081   1_554 S
C63    C68     1.406   .     A
C63    C64     1.402   .     A
C64    H69     1.072   .     S
C64    C65     1.396   .     A
C65    H70     1.083   .     S
C65    C642    1.394   .     S
C66    C67     1.396   .     A
C66    H71     1.079   .     S
C66    C1217   1.394   1_554 S
C67    H72     1.077   .     S
C67    C1220   1.396   1_554 S
C68    H73     1.080   .     S
C68    C643    1.396   .     S
C74    C75     1.413   .     A
C74    C79     1.397   .     A
C75    H80     1.082   .     S
C75    C1228   1.398   1_554 S
C76    H81     1.078   .     S
C76    C77     1.393   .     A
C76    C651    1.398   .     S
C77    H82     1.081   .     S
C77    C654    1.391   .     S
C78    H83     1.083   .     S
C78    C79     1.397   .     A
C78    C1229   1.391   1_554 S
C79    H84     1.049   .     S
O85    C86     1.413   .     S
C86    H88     1.110   .     S
C86    H87     1.115   .     S
C86    H233    1.109   1_455 S
H89    C230    1.109   .     S
O90    C91     1.410   .     S
C91    H92     1.112   .     S
C91    H93     1.111   .     S
C91    H94     1.109   .     S
O95    C240    1.411   .     S
C96    H99     1.110   .     S
C96    H98     1.109   .     S
C96    O239    1.411   1_455 S
C96    H241    1.114   1_455 S
H97    C240    1.114   .     S
O100   C101    1.410   .     S
C101   H102    1.114   .     S
C101   H103    1.109   .     S
C101   H248    1.110   1_455 S
H104   C245    1.110   .     S
O105   C106    1.410   .     S
C106   H107    1.112   .     S
C106   H108    1.107   .     S
C106   H109    1.112   .     S
O110   C111    1.415   .     S
C111   H113    1.109   .     S
C111   H112    1.115   .     S
C111   H114    1.109   .     S
O115   C116    1.408   .     S
C116   H117    1.108   .     S
C116   H119    1.109   .     S
C116   H118    1.113   .     S
O120   C121    1.413   .     S
C121   H124    1.109   .     S
C121   H122    1.114   .     S
C121   H123    1.110   .     S
O125   C126    1.407   .     S
C126   H128    1.111   .     S
C126   H129    1.109   .     S
C126   H127    1.110   .     S
O130   C131    1.415   .     S
C131   H134    1.109   .     S
C131   H133    1.115   .     S
C131   H420    1.108   .     S
H132   C419    1.108   1_545 S
O135   C136    1.409   .     S
C136   H139    1.107   .     S
C136   H138    1.112   .     S
C136   H425    1.109   1_545 S
H137   C424    1.109   .     S
O140   C141    1.412   .     S
C141   H143    1.115   .     S
C141   H144    1.109   .     S
C141   H430    1.110   .     S
H142   C429    1.110   1_545 S
C145   O175    1.307   .     A
C145   C169    1.458   .     S
C145   O178    1.300   .     A
C146   O176    1.293   .     A
C146   O177    1.320   .     A
C146   C170    1.473   .     S
C147   C151    1.427   .     A
C147   N173    1.415   .     A
C147   C185    1.555   .     S
C148   C152    1.431   .     A
C148   C196    1.487   .     S
C148   N174    1.400   .     A
C149   C207    1.477   .     S
C149   N173    1.390   .     A
C149   C153    1.427   .     A
C150   C218    1.502   .     S
C150   N174    1.390   .     A
C150   C154    1.423   .     A
C151   O269    1.383   .     S
C151   C157    1.399   .     A
C152   O274    1.389   .     S
C152   C158    1.405   .     A
C153   C157    1.409   .     A
C153   O279    1.381   .     S
C154   O284    1.384   .     S
C154   C158    1.411   .     A
C155   C159    1.376   .     S
C155   O182    1.290   .     A
C155   O179    1.290   .     A
C156   O181    1.289   .     A
C156   C160    1.376   .     S
C156   O180    1.291   .     A
C157   C446    1.527   1_545 S
C158   C445    1.527   .     S
C159   C1312   1.171   1_554 S
C160   C735    1.171   .     S
C161   O229    1.389   .     S
C161   C171    1.397   .     A
C161   C165    1.390   .     A
C162   C172    1.398   .     A
C162   O234    1.384   .     S
C162   C166    1.412   .     A
C163   C167    1.381   .     A
C163   C172    1.402   .     A
C163   O239    1.386   .     S
C164   C168    1.400   .     A
C164   O244    1.384   .     S
C164   C171    1.404   .     A
C165   O249    1.374   .     S
C165   C169    1.407   .     A
C166   O254    1.396   .     S
C166   C170    1.428   .     A
C167   C170    1.402   .     A
C167   O259    1.372   .     S
C168   O264    1.386   .     S
C168   C169    1.413   .     A
C172   C27     1.448   1_655 S
N173   Zn184   2.037   .     S
N174   Zn183   2.037   .     S
O175   Zn183   2.012   .     S
O176   Zn184   2.012   .     S
O177   Zn183   2.016   .     S
O178   Zn184   2.016   .     S
O179   Zn183   1.962   .     S
O180   Zn184   1.962   .     S
O181   Zn183   1.959   .     S
O182   Zn184   1.959   .     S
C185   C186    1.406   .     A
C185   C190    1.430   .     A
C186   C187    1.399   .     A
C186   H191    1.026   .     S
C187   C188    1.384   .     A
C187   H192    1.083   .     S
C188   C189    1.384   .     A
C188   H1345   1.081   1_554 S
C189   C190    1.398   .     A
C189   H1346   1.083   1_554 S
C190   H195    1.066   .     S
H193   C764    1.081   .     S
H194   C765    1.083   .     S
C196   C197    1.400   .     A
C196   C201    1.403   .     A
C197   H202    1.071   .     S
C197   C198    1.396   .     A
C198   C199    1.395   .     A
C198   H779    1.080   .     S
C199   C200    1.393   .     A
C199   H780    1.081   .     S
C200   H205    1.081   .     S
C200   C201    1.397   .     A
C201   H206    1.078   .     S
H203   C1350   1.080   1_554 S
H204   C1351   1.081   1_554 S
C207   C212    1.406   .     A
C207   C208    1.402   .     A
C208   H213    1.072   .     S
C208   C209    1.396   .     A
C209   H214    1.083   .     S
C209   C786    1.394   .     S
C210   C211    1.396   .     A
C210   H215    1.079   .     S
C210   C1361   1.394   1_554 S
C211   H216    1.077   .     S
C211   C1364   1.396   1_554 S
C212   H217    1.080   .     S
C212   C787    1.396   .     S
C218   C219    1.413   .     A
C218   C223    1.397   .     A
C219   H224    1.082   .     S
C219   C1372   1.398   1_554 S
C220   H225    1.078   .     S
C220   C221    1.393   .     A
C220   C795    1.398   .     S
C221   H226    1.081   .     S
C221   C798    1.391   .     S
C222   H227    1.083   .     S
C222   C223    1.397   .     A
C222   C1373   1.391   1_554 S
C223   H228    1.049   .     S
O229   C230    1.413   .     S
C230   H232    1.110   .     S
C230   H231    1.115   .     S
H233   C86     1.109   1_655 S
O234   C235    1.410   .     S
C235   H236    1.112   .     S
C235   H237    1.111   .     S
C235   H238    1.109   .     S
O239   C96     1.411   1_655 S
C240   H243    1.110   .     S
C240   H242    1.109   .     S
H241   C96     1.114   1_655 S
O244   C245    1.410   .     S
C245   H246    1.114   .     S
C245   H247    1.109   .     S
H248   C101    1.110   1_655 S
O249   C250    1.410   .     S
C250   H251    1.112   .     S
C250   H252    1.107   .     S
C250   H253    1.112   .     S
O254   C255    1.415   .     S
C255   H257    1.109   .     S
C255   H256    1.115   .     S
C255   H258    1.109   .     S
O259   C260    1.408   .     S
C260   H261    1.108   .     S
C260   H263    1.109   .     S
C260   H262    1.113   .     S
O264   C265    1.413   .     S
C265   H268    1.109   .     S
C265   H266    1.114   .     S
C265   H267    1.110   .     S
O269   C270    1.407   .     S
C270   H272    1.111   .     S
C270   H273    1.109   .     S
C270   H271    1.110   .     S
O274   C275    1.415   .     S
C275   H278    1.109   .     S
C275   H277    1.115   .     S
C275   H564    1.108   .     S
H276   C563    1.108   1_545 S
O279   C280    1.409   .     S
C280   H283    1.107   .     S
C280   H282    1.112   .     S
C280   H569    1.109   1_545 S
H281   C568    1.109   .     S
O284   C285    1.412   .     S
C285   H287    1.115   .     S
C285   H288    1.109   .     S
C285   H574    1.110   .     S
H286   C573    1.110   1_545 S
C289   O319    1.307   .     A
C289   C313    1.458   .     S
C289   O322    1.300   .     A
C290   O320    1.293   .     A
C290   O321    1.320   .     A
C290   C314    1.473   .     S
C291   C295    1.427   .     A
C291   N317    1.415   .     A
C291   C329    1.555   .     S
C292   C296    1.431   .     A
C292   C340    1.487   .     S
C292   N318    1.400   .     A
C293   C351    1.477   .     S
C293   N317    1.390   .     A
C293   C297    1.427   .     A
C294   C362    1.502   .     S
C294   N318    1.390   .     A
C294   C298    1.423   .     A
C295   O413    1.383   .     S
C295   C301    1.399   .     A
C296   O418    1.389   .     S
C296   C302    1.405   .     A
C297   C301    1.409   .     A
C297   O423    1.381   .     S
C298   O428    1.384   .     S
C298   C302    1.411   .     A
C299   C303    1.376   .     S
C299   O326    1.290   .     A
C299   O323    1.290   .     A
C300   O325    1.289   .     A
C300   C304    1.376   .     S
C300   O324    1.291   .     A
C302   C13     1.527   1_565 S
C303   C1456   1.171   1_554 S
C304   C879    1.171   .     S
C305   O373    1.389   .     S
C305   C315    1.397   .     A
C305   C309    1.390   .     A
C306   C316    1.398   .     A
C306   O378    1.384   .     S
C306   C310    1.412   .     A
C307   C311    1.381   .     A
C307   C316    1.402   .     A
C307   O383    1.386   .     S
C308   C312    1.400   .     A
C308   O388    1.384   .     S
C308   C315    1.404   .     A
C309   O393    1.374   .     S
C309   C313    1.407   .     A
C310   O398    1.396   .     S
C310   C314    1.428   .     A
C311   C314    1.402   .     A
C311   O403    1.372   .     S
C312   O408    1.386   .     S
C312   C313    1.413   .     A
C315   C460    1.448   1_455 S
C316   C459    1.448   .     S
N317   Zn328   2.037   .     S
N318   Zn327   2.037   .     S
O319   Zn327   2.012   .     S
O320   Zn328   2.012   .     S
O321   Zn327   2.016   .     S
O322   Zn328   2.016   .     S
O323   Zn327   1.962   .     S
O324   Zn328   1.962   .     S
O325   Zn327   1.959   .     S
O326   Zn328   1.959   .     S
C329   C330    1.406   .     A
C329   C334    1.430   .     A
C330   C331    1.399   .     A
C330   H335    1.026   .     S
C331   C332    1.384   .     A
C331   H336    1.083   .     S
C332   C333    1.384   .     A
C332   H1489   1.081   1_554 S
C333   C334    1.398   .     A
C333   H1490   1.083   1_554 S
C334   H339    1.066   .     S
H337   C908    1.081   .     S
H338   C909    1.083   .     S
C340   C341    1.400   .     A
C340   C345    1.403   .     A
C341   H346    1.071   .     S
C341   C342    1.396   .     A
C342   C343    1.395   .     A
C342   H923    1.080   .     S
C343   C344    1.393   .     A
C343   H924    1.081   .     S
C344   H349    1.081   .     S
C344   C345    1.397   .     A
C345   H350    1.078   .     S
H347   C1494   1.080   1_554 S
H348   C1495   1.081   1_554 S
C351   C356    1.406   .     A
C351   C352    1.402   .     A
C352   H357    1.072   .     S
C352   C353    1.396   .     A
C353   H358    1.083   .     S
C353   C930    1.394   .     S
C354   C355    1.396   .     A
C354   H359    1.079   .     S
C354   C1505   1.394   1_554 S
C355   H360    1.077   .     S
C355   C1508   1.396   1_554 S
C356   H361    1.080   .     S
C356   C931    1.396   .     S
C362   C363    1.413   .     A
C362   C367    1.397   .     A
C363   H368    1.082   .     S
C363   C1516   1.398   1_554 S
C364   H369    1.078   .     S
C364   C365    1.393   .     A
C364   C939    1.398   .     S
C365   H370    1.081   .     S
C365   C942    1.391   .     S
C366   H371    1.083   .     S
C366   C367    1.397   .     A
C366   C1517   1.391   1_554 S
C367   H372    1.049   .     S
O373   C374    1.413   .     S
C374   H376    1.110   .     S
C374   H375    1.115   .     S
C374   H521    1.109   1_455 S
H377   C518    1.109   .     S
O378   C379    1.410   .     S
C379   H380    1.112   .     S
C379   H381    1.111   .     S
C379   H382    1.109   .     S
O383   C528    1.411   .     S
C384   H387    1.110   .     S
C384   H386    1.109   .     S
C384   O527    1.411   1_455 S
C384   H529    1.114   1_455 S
H385   C528    1.114   .     S
O388   C389    1.410   .     S
C389   H390    1.114   .     S
C389   H391    1.109   .     S
C389   H536    1.110   1_455 S
H392   C533    1.110   .     S
O393   C394    1.410   .     S
C394   H395    1.112   .     S
C394   H396    1.107   .     S
C394   H397    1.112   .     S
O398   C399    1.415   .     S
C399   H401    1.109   .     S
C399   H400    1.115   .     S
C399   H402    1.109   .     S
O403   C404    1.408   .     S
C404   H405    1.108   .     S
C404   H407    1.109   .     S
C404   H406    1.113   .     S
O408   C409    1.413   .     S
C409   H412    1.109   .     S
C409   H410    1.114   .     S
C409   H411    1.110   .     S
O413   C414    1.407   .     S
C414   H416    1.111   .     S
C414   H417    1.109   .     S
C414   H415    1.110   .     S
O418   C419    1.415   .     S
C419   H422    1.109   .     S
C419   H421    1.115   .     S
C419   H132    1.108   1_565 S
O423   C424    1.409   .     S
C424   H427    1.107   .     S
C424   H426    1.112   .     S
H425   C136    1.109   1_565 S
O428   C429    1.412   .     S
C429   H431    1.115   .     S
C429   H432    1.109   .     S
C429   H142    1.110   1_565 S
C433   O463    1.307   .     A
C433   C457    1.458   .     S
C433   O466    1.300   .     A
C434   O464    1.293   .     A
C434   O465    1.320   .     A
C434   C458    1.473   .     S
C435   C439    1.427   .     A
C435   N461    1.415   .     A
C435   C473    1.555   .     S
C436   C440    1.431   .     A
C436   C484    1.487   .     S
C436   N462    1.400   .     A
C437   C495    1.477   .     S
C437   N461    1.390   .     A
C437   C441    1.427   .     A
C438   C506    1.502   .     S
C438   N462    1.390   .     A
C438   C442    1.423   .     A
C439   O557    1.383   .     S
C439   C445    1.399   .     A
C440   O562    1.389   .     S
C440   C446    1.405   .     A
C441   C445    1.409   .     A
C441   O567    1.381   .     S
C442   O572    1.384   .     S
C442   C446    1.411   .     A
C443   C447    1.376   .     S
C443   O470    1.290   .     A
C443   O467    1.290   .     A
C444   O469    1.289   .     A
C444   C448    1.376   .     S
C444   O468    1.291   .     A
C446   C157    1.527   1_565 S
C447   C1600   1.171   1_554 S
C448   C1023   1.171   .     S
C449   O517    1.389   .     S
C449   C459    1.397   .     A
C449   C453    1.390   .     A
C450   C460    1.398   .     A
C450   O522    1.384   .     S
C450   C454    1.412   .     A
C451   C455    1.381   .     A
C451   C460    1.402   .     A
C451   O527    1.386   .     S
C452   C456    1.400   .     A
C452   O532    1.384   .     S
C452   C459    1.404   .     A
C453   O537    1.374   .     S
C453   C457    1.407   .     A
C454   O542    1.396   .     S
C454   C458    1.428   .     A
C455   C458    1.402   .     A
C455   O547    1.372   .     S
C456   O552    1.386   .     S
C456   C457    1.413   .     A
C460   C315    1.448   1_655 S
N461   Zn472   2.037   .     S
N462   Zn471   2.037   .     S
O463   Zn471   2.012   .     S
O464   Zn472   2.012   .     S
O465   Zn471   2.016   .     S
O466   Zn472   2.016   .     S
O467   Zn471   1.962   .     S
O468   Zn472   1.962   .     S
O469   Zn471   1.959   .     S
O470   Zn472   1.959   .     S
C473   C474    1.406   .     A
C473   C478    1.430   .     A
C474   C475    1.399   .     A
C474   H479    1.026   .     S
C475   C476    1.384   .     A
C475   H480    1.083   .     S
C476   C477    1.384   .     A
C476   H1633   1.081   1_554 S
C477   C478    1.398   .     A
C477   H1634   1.083   1_554 S
C478   H483    1.066   .     S
H481   C1052   1.081   .     S
H482   C1053   1.083   .     S
C484   C485    1.400   .     A
C484   C489    1.403   .     A
C485   H490    1.071   .     S
C485   C486    1.396   .     A
C486   C487    1.395   .     A
C486   H1067   1.080   .     S
C487   C488    1.393   .     A
C487   H1068   1.081   .     S
C488   H493    1.081   .     S
C488   C489    1.397   .     A
C489   H494    1.078   .     S
H491   C1638   1.080   1_554 S
H492   C1639   1.081   1_554 S
C495   C500    1.406   .     A
C495   C496    1.402   .     A
C496   H501    1.072   .     S
C496   C497    1.396   .     A
C497   H502    1.083   .     S
C497   C1074   1.394   .     S
C498   C499    1.396   .     A
C498   H503    1.079   .     S
C498   C1649   1.394   1_554 S
C499   H504    1.077   .     S
C499   C1652   1.396   1_554 S
C500   H505    1.080   .     S
C500   C1075   1.396   .     S
C506   C507    1.413   .     A
C506   C511    1.397   .     A
C507   H512    1.082   .     S
C507   C1660   1.398   1_554 S
C508   H513    1.078   .     S
C508   C509    1.393   .     A
C508   C1083   1.398   .     S
C509   H514    1.081   .     S
C509   C1086   1.391   .     S
C510   H515    1.083   .     S
C510   C511    1.397   .     A
C510   C1661   1.391   1_554 S
C511   H516    1.049   .     S
O517   C518    1.413   .     S
C518   H520    1.110   .     S
C518   H519    1.115   .     S
H521   C374    1.109   1_655 S
O522   C523    1.410   .     S
C523   H524    1.112   .     S
C523   H525    1.111   .     S
C523   H526    1.109   .     S
O527   C384    1.411   1_655 S
C528   H531    1.110   .     S
C528   H530    1.109   .     S
H529   C384    1.114   1_655 S
O532   C533    1.410   .     S
C533   H534    1.114   .     S
C533   H535    1.109   .     S
H536   C389    1.110   1_655 S
O537   C538    1.410   .     S
C538   H539    1.112   .     S
C538   H540    1.107   .     S
C538   H541    1.112   .     S
O542   C543    1.415   .     S
C543   H545    1.109   .     S
C543   H544    1.115   .     S
C543   H546    1.109   .     S
O547   C548    1.408   .     S
C548   H549    1.108   .     S
C548   H551    1.109   .     S
C548   H550    1.113   .     S
O552   C553    1.413   .     S
C553   H556    1.109   .     S
C553   H554    1.114   .     S
C553   H555    1.110   .     S
O557   C558    1.407   .     S
C558   H560    1.111   .     S
C558   H561    1.109   .     S
C558   H559    1.110   .     S
O562   C563    1.415   .     S
C563   H566    1.109   .     S
C563   H565    1.115   .     S
C563   H276    1.108   1_565 S
O567   C568    1.409   .     S
C568   H571    1.107   .     S
C568   H570    1.112   .     S
H569   C280    1.109   1_565 S
O572   C573    1.412   .     S
C573   H575    1.115   .     S
C573   H576    1.109   .     S
C573   H286    1.110   1_565 S
C577   O607    1.307   .     A
C577   C601    1.458   .     S
C577   O610    1.300   .     A
C578   O608    1.293   .     A
C578   O609    1.320   .     A
C578   C602    1.473   .     S
C579   C583    1.427   .     A
C579   N605    1.415   .     A
C579   C617    1.555   .     S
C580   C584    1.431   .     A
C580   C628    1.487   .     S
C580   N606    1.400   .     A
C581   C639    1.477   .     S
C581   N605    1.390   .     A
C581   C585    1.427   .     A
C582   C650    1.502   .     S
C582   N606    1.390   .     A
C582   C586    1.423   .     A
C583   O701    1.383   .     S
C583   C589    1.399   .     A
C584   O706    1.389   .     S
C584   C590    1.405   .     A
C585   C589    1.409   .     A
C585   O711    1.381   .     S
C586   O716    1.384   .     S
C586   C590    1.411   .     A
C587   C591    1.376   .     S
C587   O614    1.290   .     A
C587   O611    1.290   .     A
C588   O613    1.289   .     A
C588   C592    1.376   .     S
C588   O612    1.291   .     A
C589   C878    1.527   1_545 S
C590   C877    1.527   .     S
C592   C1167   1.171   .     S
C593   O661    1.389   .     S
C593   C603    1.397   .     A
C593   C597    1.390   .     A
C594   C604    1.398   .     A
C594   O666    1.384   .     S
C594   C598    1.412   .     A
C595   C599    1.381   .     A
C595   C604    1.402   .     A
C595   O671    1.386   .     S
C596   C600    1.400   .     A
C596   O676    1.384   .     S
C596   C603    1.404   .     A
C597   O681    1.374   .     S
C597   C601    1.407   .     A
C598   O686    1.396   .     S
C598   C602    1.428   .     A
C599   C602    1.402   .     A
C599   O691    1.372   .     S
C600   O696    1.386   .     S
C600   C601    1.413   .     A
C603   C748    1.448   1_455 S
C604   C747    1.448   .     S
N605   Zn616   2.037   .     S
N606   Zn615   2.037   .     S
O607   Zn615   2.012   .     S
O608   Zn616   2.012   .     S
O609   Zn615   2.016   .     S
O610   Zn616   2.016   .     S
O611   Zn615   1.962   .     S
O612   Zn616   1.962   .     S
O613   Zn615   1.959   .     S
O614   Zn616   1.959   .     S
C617   C618    1.406   .     A
C617   C622    1.430   .     A
C618   C619    1.399   .     A
C618   H623    1.026   .     S
C619   C620    1.384   .     A
C619   H624    1.083   .     S
C620   C621    1.384   .     A
C621   C622    1.398   .     A
C622   H627    1.066   .     S
H625   C1196   1.081   .     S
H626   C1197   1.083   .     S
C628   C629    1.400   .     A
C628   C633    1.403   .     A
C629   H634    1.071   .     S
C629   C630    1.396   .     A
C630   C631    1.395   .     A
C630   H1211   1.080   .     S
C631   C632    1.393   .     A
C631   H1212   1.081   .     S
C632   H637    1.081   .     S
C632   C633    1.397   .     A
C633   H638    1.078   .     S
C639   C644    1.406   .     A
C639   C640    1.402   .     A
C640   H645    1.072   .     S
C640   C641    1.396   .     A
C641   H646    1.083   .     S
C641   C1218   1.394   .     S
C642   C643    1.396   .     A
C642   H647    1.079   .     S
C643   H648    1.077   .     S
C644   H649    1.080   .     S
C644   C1219   1.396   .     S
C650   C651    1.413   .     A
C650   C655    1.397   .     A
C651   H656    1.082   .     S
C652   H657    1.078   .     S
C652   C653    1.393   .     A
C652   C1227   1.398   .     S
C653   H658    1.081   .     S
C653   C1230   1.391   .     S
C654   H659    1.083   .     S
C654   C655    1.397   .     A
C655   H660    1.049   .     S
O661   C662    1.413   .     S
C662   H664    1.110   .     S
C662   H663    1.115   .     S
C662   H809    1.109   1_455 S
H665   C806    1.109   .     S
O666   C667    1.410   .     S
C667   H668    1.112   .     S
C667   H669    1.111   .     S
C667   H670    1.109   .     S
O671   C816    1.411   .     S
C672   H675    1.110   .     S
C672   H674    1.109   .     S
C672   O815    1.411   1_455 S
C672   H817    1.114   1_455 S
H673   C816    1.114   .     S
O676   C677    1.410   .     S
C677   H678    1.114   .     S
C677   H679    1.109   .     S
C677   H824    1.110   1_455 S
H680   C821    1.110   .     S
O681   C682    1.410   .     S
C682   H683    1.112   .     S
C682   H684    1.107   .     S
C682   H685    1.112   .     S
O686   C687    1.415   .     S
C687   H689    1.109   .     S
C687   H688    1.115   .     S
C687   H690    1.109   .     S
O691   C692    1.408   .     S
C692   H693    1.108   .     S
C692   H695    1.109   .     S
C692   H694    1.113   .     S
O696   C697    1.413   .     S
C697   H700    1.109   .     S
C697   H698    1.114   .     S
C697   H699    1.110   .     S
O701   C702    1.407   .     S
C702   H704    1.111   .     S
C702   H705    1.109   .     S
C702   H703    1.110   .     S
O706   C707    1.415   .     S
C707   H710    1.109   .     S
C707   H709    1.115   .     S
C707   H996    1.108   .     S
H708   C995    1.108   1_545 S
O711   C712    1.409   .     S
C712   H715    1.107   .     S
C712   H714    1.112   .     S
C712   H1001   1.109   1_545 S
H713   C1000   1.109   .     S
O716   C717    1.412   .     S
C717   H719    1.115   .     S
C717   H720    1.109   .     S
C717   H1006   1.110   .     S
H718   C1005   1.110   1_545 S
C721   O751    1.307   .     A
C721   C745    1.458   .     S
C721   O754    1.300   .     A
C722   O752    1.293   .     A
C722   O753    1.320   .     A
C722   C746    1.473   .     S
C723   C727    1.427   .     A
C723   N749    1.415   .     A
C723   C761    1.555   .     S
C724   C728    1.431   .     A
C724   C772    1.487   .     S
C724   N750    1.400   .     A
C725   C783    1.477   .     S
C725   N749    1.390   .     A
C725   C729    1.427   .     A
C726   C794    1.502   .     S
C726   N750    1.390   .     A
C726   C730    1.423   .     A
C727   O845    1.383   .     S
C727   C733    1.399   .     A
C728   O850    1.389   .     S
C728   C734    1.405   .     A
C729   C733    1.409   .     A
C729   O855    1.381   .     S
C730   O860    1.384   .     S
C730   C734    1.411   .     A
C731   C735    1.376   .     S
C731   O758    1.290   .     A
C731   O755    1.290   .     A
C732   O757    1.289   .     A
C732   C736    1.376   .     S
C732   O756    1.291   .     A
C733   C1022   1.527   1_545 S
C734   C1021   1.527   .     S
C736   C1311   1.171   .     S
C737   O805    1.389   .     S
C737   C747    1.397   .     A
C737   C741    1.390   .     A
C738   C748    1.398   .     A
C738   O810    1.384   .     S
C738   C742    1.412   .     A
C739   C743    1.381   .     A
C739   C748    1.402   .     A
C739   O815    1.386   .     S
C740   C744    1.400   .     A
C740   O820    1.384   .     S
C740   C747    1.404   .     A
C741   O825    1.374   .     S
C741   C745    1.407   .     A
C742   O830    1.396   .     S
C742   C746    1.428   .     A
C743   C746    1.402   .     A
C743   O835    1.372   .     S
C744   O840    1.386   .     S
C744   C745    1.413   .     A
C748   C603    1.448   1_655 S
N749   Zn760   2.037   .     S
N750   Zn759   2.037   .     S
O751   Zn759   2.012   .     S
O752   Zn760   2.012   .     S
O753   Zn759   2.016   .     S
O754   Zn760   2.016   .     S
O755   Zn759   1.962   .     S
O756   Zn760   1.962   .     S
O757   Zn759   1.959   .     S
O758   Zn760   1.959   .     S
C761   C762    1.406   .     A
C761   C766    1.430   .     A
C762   C763    1.399   .     A
C762   H767    1.026   .     S
C763   C764    1.384   .     A
C763   H768    1.083   .     S
C764   C765    1.384   .     A
C765   C766    1.398   .     A
C766   H771    1.066   .     S
H769   C1340   1.081   .     S
H770   C1341   1.083   .     S
C772   C773    1.400   .     A
C772   C777    1.403   .     A
C773   H778    1.071   .     S
C773   C774    1.396   .     A
C774   C775    1.395   .     A
C774   H1355   1.080   .     S
C775   C776    1.393   .     A
C775   H1356   1.081   .     S
C776   H781    1.081   .     S
C776   C777    1.397   .     A
C777   H782    1.078   .     S
C783   C788    1.406   .     A
C783   C784    1.402   .     A
C784   H789    1.072   .     S
C784   C785    1.396   .     A
C785   H790    1.083   .     S
C785   C1362   1.394   .     S
C786   C787    1.396   .     A
C786   H791    1.079   .     S
C787   H792    1.077   .     S
C788   H793    1.080   .     S
C788   C1363   1.396   .     S
C794   C795    1.413   .     A
C794   C799    1.397   .     A
C795   H800    1.082   .     S
C796   H801    1.078   .     S
C796   C797    1.393   .     A
C796   C1371   1.398   .     S
C797   H802    1.081   .     S
C797   C1374   1.391   .     S
C798   H803    1.083   .     S
C798   C799    1.397   .     A
C799   H804    1.049   .     S
O805   C806    1.413   .     S
C806   H808    1.110   .     S
C806   H807    1.115   .     S
H809   C662    1.109   1_655 S
O810   C811    1.410   .     S
C811   H812    1.112   .     S
C811   H813    1.111   .     S
C811   H814    1.109   .     S
O815   C672    1.411   1_655 S
C816   H819    1.110   .     S
C816   H818    1.109   .     S
H817   C672    1.114   1_655 S
O820   C821    1.410   .     S
C821   H822    1.114   .     S
C821   H823    1.109   .     S
H824   C677    1.110   1_655 S
O825   C826    1.410   .     S
C826   H827    1.112   .     S
C826   H828    1.107   .     S
C826   H829    1.112   .     S
O830   C831    1.415   .     S
C831   H833    1.109   .     S
C831   H832    1.115   .     S
C831   H834    1.109   .     S
O835   C836    1.408   .     S
C836   H837    1.108   .     S
C836   H839    1.109   .     S
C836   H838    1.113   .     S
O840   C841    1.413   .     S
C841   H844    1.109   .     S
C841   H842    1.114   .     S
C841   H843    1.110   .     S
O845   C846    1.407   .     S
C846   H848    1.111   .     S
C846   H849    1.109   .     S
C846   H847    1.110   .     S
O850   C851    1.415   .     S
C851   H854    1.109   .     S
C851   H853    1.115   .     S
C851   H1140   1.108   .     S
H852   C1139   1.108   1_545 S
O855   C856    1.409   .     S
C856   H859    1.107   .     S
C856   H858    1.112   .     S
C856   H1145   1.109   1_545 S
H857   C1144   1.109   .     S
O860   C861    1.412   .     S
C861   H863    1.115   .     S
C861   H864    1.109   .     S
C861   H1150   1.110   .     S
H862   C1149   1.110   1_545 S
C865   O895    1.307   .     A
C865   C889    1.458   .     S
C865   O898    1.300   .     A
C866   O896    1.293   .     A
C866   O897    1.320   .     A
C866   C890    1.473   .     S
C867   C871    1.427   .     A
C867   N893    1.415   .     A
C867   C905    1.555   .     S
C868   C872    1.431   .     A
C868   C916    1.487   .     S
C868   N894    1.400   .     A
C869   C927    1.477   .     S
C869   N893    1.390   .     A
C869   C873    1.427   .     A
C870   C938    1.502   .     S
C870   N894    1.390   .     A
C870   C874    1.423   .     A
C871   O989    1.383   .     S
C871   C877    1.399   .     A
C872   O994    1.389   .     S
C872   C878    1.405   .     A
C873   C877    1.409   .     A
C873   O999    1.381   .     S
C874   O1004   1.384   .     S
C874   C878    1.411   .     A
C875   C879    1.376   .     S
C875   O902    1.290   .     A
C875   O899    1.290   .     A
C876   O901    1.289   .     A
C876   C880    1.376   .     S
C876   O900    1.291   .     A
C878   C589    1.527   1_565 S
C880   C1455   1.171   .     S
C881   O949    1.389   .     S
C881   C891    1.397   .     A
C881   C885    1.390   .     A
C882   C892    1.398   .     A
C882   O954    1.384   .     S
C882   C886    1.412   .     A
C883   C887    1.381   .     A
C883   C892    1.402   .     A
C883   O959    1.386   .     S
C884   C888    1.400   .     A
C884   O964    1.384   .     S
C884   C891    1.404   .     A
C885   O969    1.374   .     S
C885   C889    1.407   .     A
C886   O974    1.396   .     S
C886   C890    1.428   .     A
C887   C890    1.402   .     A
C887   O979    1.372   .     S
C888   O984    1.386   .     S
C888   C889    1.413   .     A
C891   C1036   1.448   1_455 S
C892   C1035   1.448   .     S
N893   Zn904   2.037   .     S
N894   Zn903   2.037   .     S
O895   Zn903   2.012   .     S
O896   Zn904   2.012   .     S
O897   Zn903   2.016   .     S
O898   Zn904   2.016   .     S
O899   Zn903   1.962   .     S
O900   Zn904   1.962   .     S
O901   Zn903   1.959   .     S
O902   Zn904   1.959   .     S
C905   C906    1.406   .     A
C905   C910    1.430   .     A
C906   C907    1.399   .     A
C906   H911    1.026   .     S
C907   C908    1.384   .     A
C907   H912    1.083   .     S
C908   C909    1.384   .     A
C909   C910    1.398   .     A
C910   H915    1.066   .     S
H913   C1484   1.081   .     S
H914   C1485   1.083   .     S
C916   C917    1.400   .     A
C916   C921    1.403   .     A
C917   H922    1.071   .     S
C917   C918    1.396   .     A
C918   C919    1.395   .     A
C918   H1499   1.080   .     S
C919   C920    1.393   .     A
C919   H1500   1.081   .     S
C920   H925    1.081   .     S
C920   C921    1.397   .     A
C921   H926    1.078   .     S
C927   C932    1.406   .     A
C927   C928    1.402   .     A
C928   H933    1.072   .     S
C928   C929    1.396   .     A
C929   H934    1.083   .     S
C929   C1506   1.394   .     S
C930   C931    1.396   .     A
C930   H935    1.079   .     S
C931   H936    1.077   .     S
C932   H937    1.080   .     S
C932   C1507   1.396   .     S
C938   C939    1.413   .     A
C938   C943    1.397   .     A
C939   H944    1.082   .     S
C940   H945    1.078   .     S
C940   C941    1.393   .     A
C940   C1515   1.398   .     S
C941   H946    1.081   .     S
C941   C1518   1.391   .     S
C942   H947    1.083   .     S
C942   C943    1.397   .     A
C943   H948    1.049   .     S
O949   C950    1.413   .     S
C950   H952    1.110   .     S
C950   H951    1.115   .     S
C950   H1097   1.109   1_455 S
H953   C1094   1.109   .     S
O954   C955    1.410   .     S
C955   H956    1.112   .     S
C955   H957    1.111   .     S
C955   H958    1.109   .     S
O959   C1104   1.411   .     S
C960   H963    1.110   .     S
C960   H962    1.109   .     S
C960   O1103   1.411   1_455 S
C960   H1105   1.114   1_455 S
H961   C1104   1.114   .     S
O964   C965    1.410   .     S
C965   H966    1.114   .     S
C965   H967    1.109   .     S
C965   H1112   1.110   1_455 S
H968   C1109   1.110   .     S
O969   C970    1.410   .     S
C970   H971    1.112   .     S
C970   H972    1.107   .     S
C970   H973    1.112   .     S
O974   C975    1.415   .     S
C975   H977    1.109   .     S
C975   H976    1.115   .     S
C975   H978    1.109   .     S
O979   C980    1.408   .     S
C980   H981    1.108   .     S
C980   H983    1.109   .     S
C980   H982    1.113   .     S
O984   C985    1.413   .     S
C985   H988    1.109   .     S
C985   H986    1.114   .     S
C985   H987    1.110   .     S
O989   C990    1.407   .     S
C990   H992    1.111   .     S
C990   H993    1.109   .     S
C990   H991    1.110   .     S
O994   C995    1.415   .     S
C995   H998    1.109   .     S
C995   H997    1.115   .     S
C995   H708    1.108   1_565 S
O999   C1000   1.409   .     S
C1000  H1003   1.107   .     S
C1000  H1002   1.112   .     S
H1001  C712    1.109   1_565 S
O1004  C1005   1.412   .     S
C1005  H1007   1.115   .     S
C1005  H1008   1.109   .     S
C1005  H718    1.110   1_565 S
C1009  O1039   1.307   .     A
C1009  C1033   1.458   .     S
C1009  O1042   1.300   .     A
C1010  O1040   1.293   .     A
C1010  O1041   1.320   .     A
C1010  C1034   1.473   .     S
C1011  C1015   1.427   .     A
C1011  N1037   1.415   .     A
C1011  C1049   1.555   .     S
C1012  C1016   1.431   .     A
C1012  C1060   1.487   .     S
C1012  N1038   1.400   .     A
C1013  C1071   1.477   .     S
C1013  N1037   1.390   .     A
C1013  C1017   1.427   .     A
C1014  C1082   1.502   .     S
C1014  N1038   1.390   .     A
C1014  C1018   1.423   .     A
C1015  O1133   1.383   .     S
C1015  C1021   1.399   .     A
C1016  O1138   1.389   .     S
C1016  C1022   1.405   .     A
C1017  C1021   1.409   .     A
C1017  O1143   1.381   .     S
C1018  O1148   1.384   .     S
C1018  C1022   1.411   .     A
C1019  C1023   1.376   .     S
C1019  O1046   1.290   .     A
C1019  O1043   1.290   .     A
C1020  O1045   1.289   .     A
C1020  C1024   1.376   .     S
C1020  O1044   1.291   .     A
C1022  C733    1.527   1_565 S
C1024  C1599   1.171   .     S
C1025  O1093   1.389   .     S
C1025  C1035   1.397   .     A
C1025  C1029   1.390   .     A
C1026  C1036   1.398   .     A
C1026  O1098   1.384   .     S
C1026  C1030   1.412   .     A
C1027  C1031   1.381   .     A
C1027  C1036   1.402   .     A
C1027  O1103   1.386   .     S
C1028  C1032   1.400   .     A
C1028  O1108   1.384   .     S
C1028  C1035   1.404   .     A
C1029  O1113   1.374   .     S
C1029  C1033   1.407   .     A
C1030  O1118   1.396   .     S
C1030  C1034   1.428   .     A
C1031  C1034   1.402   .     A
C1031  O1123   1.372   .     S
C1032  O1128   1.386   .     S
C1032  C1033   1.413   .     A
C1036  C891    1.448   1_655 S
N1037  Zn1048  2.037   .     S
N1038  Zn1047  2.037   .     S
O1039  Zn1047  2.012   .     S
O1040  Zn1048  2.012   .     S
O1041  Zn1047  2.016   .     S
O1042  Zn1048  2.016   .     S
O1043  Zn1047  1.962   .     S
O1044  Zn1048  1.962   .     S
O1045  Zn1047  1.959   .     S
O1046  Zn1048  1.959   .     S
C1049  C1050   1.406   .     A
C1049  C1054   1.430   .     A
C1050  C1051   1.399   .     A
C1050  H1055   1.026   .     S
C1051  C1052   1.384   .     A
C1051  H1056   1.083   .     S
C1052  C1053   1.384   .     A
C1053  C1054   1.398   .     A
C1054  H1059   1.066   .     S
H1057  C1628   1.081   .     S
H1058  C1629   1.083   .     S
C1060  C1061   1.400   .     A
C1060  C1065   1.403   .     A
C1061  H1066   1.071   .     S
C1061  C1062   1.396   .     A
C1062  C1063   1.395   .     A
C1062  H1643   1.080   .     S
C1063  C1064   1.393   .     A
C1063  H1644   1.081   .     S
C1064  H1069   1.081   .     S
C1064  C1065   1.397   .     A
C1065  H1070   1.078   .     S
C1071  C1076   1.406   .     A
C1071  C1072   1.402   .     A
C1072  H1077   1.072   .     S
C1072  C1073   1.396   .     A
C1073  H1078   1.083   .     S
C1073  C1650   1.394   .     S
C1074  C1075   1.396   .     A
C1074  H1079   1.079   .     S
C1075  H1080   1.077   .     S
C1076  H1081   1.080   .     S
C1076  C1651   1.396   .     S
C1082  C1083   1.413   .     A
C1082  C1087   1.397   .     A
C1083  H1088   1.082   .     S
C1084  H1089   1.078   .     S
C1084  C1085   1.393   .     A
C1084  C1659   1.398   .     S
C1085  H1090   1.081   .     S
C1085  C1662   1.391   .     S
C1086  H1091   1.083   .     S
C1086  C1087   1.397   .     A
C1087  H1092   1.049   .     S
O1093  C1094   1.413   .     S
C1094  H1096   1.110   .     S
C1094  H1095   1.115   .     S
H1097  C950    1.109   1_655 S
O1098  C1099   1.410   .     S
C1099  H1100   1.112   .     S
C1099  H1101   1.111   .     S
C1099  H1102   1.109   .     S
O1103  C960    1.411   1_655 S
C1104  H1107   1.110   .     S
C1104  H1106   1.109   .     S
H1105  C960    1.114   1_655 S
O1108  C1109   1.410   .     S
C1109  H1110   1.114   .     S
C1109  H1111   1.109   .     S
H1112  C965    1.110   1_655 S
O1113  C1114   1.410   .     S
C1114  H1115   1.112   .     S
C1114  H1116   1.107   .     S
C1114  H1117   1.112   .     S
O1118  C1119   1.415   .     S
C1119  H1121   1.109   .     S
C1119  H1120   1.115   .     S
C1119  H1122   1.109   .     S
O1123  C1124   1.408   .     S
C1124  H1125   1.108   .     S
C1124  H1127   1.109   .     S
C1124  H1126   1.113   .     S
O1128  C1129   1.413   .     S
C1129  H1132   1.109   .     S
C1129  H1130   1.114   .     S
C1129  H1131   1.110   .     S
O1133  C1134   1.407   .     S
C1134  H1136   1.111   .     S
C1134  H1137   1.109   .     S
C1134  H1135   1.110   .     S
O1138  C1139   1.415   .     S
C1139  H1142   1.109   .     S
C1139  H1141   1.115   .     S
C1139  H852    1.108   1_565 S
O1143  C1144   1.409   .     S
C1144  H1147   1.107   .     S
C1144  H1146   1.112   .     S
H1145  C856    1.109   1_565 S
O1148  C1149   1.412   .     S
C1149  H1151   1.115   .     S
C1149  H1152   1.109   .     S
C1149  H862    1.110   1_565 S
C1153  O1183   1.307   .     A
C1153  C1177   1.458   .     S
C1153  O1186   1.300   .     A
C1154  O1184   1.293   .     A
C1154  O1185   1.320   .     A
C1154  C1178   1.473   .     S
C1155  C1159   1.427   .     A
C1155  N1181   1.415   .     A
C1155  C1193   1.555   .     S
C1156  C1160   1.431   .     A
C1156  C1204   1.487   .     S
C1156  N1182   1.400   .     A
C1157  C1215   1.477   .     S
C1157  N1181   1.390   .     A
C1157  C1161   1.427   .     A
C1158  C1226   1.502   .     S
C1158  N1182   1.390   .     A
C1158  C1162   1.423   .     A
C1159  O1277   1.383   .     S
C1159  C1165   1.399   .     A
C1160  O1282   1.389   .     S
C1160  C1166   1.405   .     A
C1161  C1165   1.409   .     A
C1161  O1287   1.381   .     S
C1162  O1292   1.384   .     S
C1162  C1166   1.411   .     A
C1163  C1167   1.376   .     S
C1163  O1190   1.290   .     A
C1163  O1187   1.290   .     A
C1164  O1189   1.289   .     A
C1164  C1168   1.376   .     S
C1164  O1188   1.291   .     A
C1165  C1454   1.527   1_545 S
C1166  C1453   1.527   .     S
C1168  C15     1.171   1_556 S
C1169  O1237   1.389   .     S
C1169  C1179   1.397   .     A
C1169  C1173   1.390   .     A
C1170  C1180   1.398   .     A
C1170  O1242   1.384   .     S
C1170  C1174   1.412   .     A
C1171  C1175   1.381   .     A
C1171  C1180   1.402   .     A
C1171  O1247   1.386   .     S
C1172  C1176   1.400   .     A
C1172  O1252   1.384   .     S
C1172  C1179   1.404   .     A
C1173  O1257   1.374   .     S
C1173  C1177   1.407   .     A
C1174  O1262   1.396   .     S
C1174  C1178   1.428   .     A
C1175  C1178   1.402   .     A
C1175  O1267   1.372   .     S
C1176  O1272   1.386   .     S
C1176  C1177   1.413   .     A
C1179  C1324   1.448   1_455 S
C1180  C1323   1.448   .     S
N1181  Zn1192  2.037   .     S
N1182  Zn1191  2.037   .     S
O1183  Zn1191  2.012   .     S
O1184  Zn1192  2.012   .     S
O1185  Zn1191  2.016   .     S
O1186  Zn1192  2.016   .     S
O1187  Zn1191  1.962   .     S
O1188  Zn1192  1.962   .     S
O1189  Zn1191  1.959   .     S
O1190  Zn1192  1.959   .     S
C1193  C1194   1.406   .     A
C1193  C1198   1.430   .     A
C1194  C1195   1.399   .     A
C1194  H1199   1.026   .     S
C1195  C1196   1.384   .     A
C1195  H1200   1.083   .     S
C1196  C1197   1.384   .     A
C1197  C1198   1.398   .     A
C1198  H1203   1.066   .     S
H1201  C44     1.081   1_556 S
H1202  C45     1.083   1_556 S
C1204  C1205   1.400   .     A
C1204  C1209   1.403   .     A
C1205  H1210   1.071   .     S
C1205  C1206   1.396   .     A
C1206  C1207   1.395   .     A
C1206  H59     1.080   1_556 S
C1207  C1208   1.393   .     A
C1207  H60     1.081   1_556 S
C1208  H1213   1.081   .     S
C1208  C1209   1.397   .     A
C1209  H1214   1.078   .     S
C1215  C1220   1.406   .     A
C1215  C1216   1.402   .     A
C1216  H1221   1.072   .     S
C1216  C1217   1.396   .     A
C1217  H1222   1.083   .     S
C1217  C66     1.394   1_556 S
C1218  C1219   1.396   .     A
C1218  H1223   1.079   .     S
C1219  H1224   1.077   .     S
C1220  H1225   1.080   .     S
C1220  C67     1.396   1_556 S
C1226  C1227   1.413   .     A
C1226  C1231   1.397   .     A
C1227  H1232   1.082   .     S
C1228  H1233   1.078   .     S
C1228  C1229   1.393   .     A
C1228  C75     1.398   1_556 S
C1229  H1234   1.081   .     S
C1229  C78     1.391   1_556 S
C1230  H1235   1.083   .     S
C1230  C1231   1.397   .     A
C1231  H1236   1.049   .     S
O1237  C1238   1.413   .     S
C1238  H1240   1.110   .     S
C1238  H1239   1.115   .     S
C1238  H1385   1.109   1_455 S
H1241  C1382   1.109   .     S
O1242  C1243   1.410   .     S
C1243  H1244   1.112   .     S
C1243  H1245   1.111   .     S
C1243  H1246   1.109   .     S
O1247  C1392   1.411   .     S
C1248  H1251   1.110   .     S
C1248  H1250   1.109   .     S
C1248  O1391   1.411   1_455 S
C1248  H1393   1.114   1_455 S
H1249  C1392   1.114   .     S
O1252  C1253   1.410   .     S
C1253  H1254   1.114   .     S
C1253  H1255   1.109   .     S
C1253  H1400   1.110   1_455 S
H1256  C1397   1.110   .     S
O1257  C1258   1.410   .     S
C1258  H1259   1.112   .     S
C1258  H1260   1.107   .     S
C1258  H1261   1.112   .     S
O1262  C1263   1.415   .     S
C1263  H1265   1.109   .     S
C1263  H1264   1.115   .     S
C1263  H1266   1.109   .     S
O1267  C1268   1.408   .     S
C1268  H1269   1.108   .     S
C1268  H1271   1.109   .     S
C1268  H1270   1.113   .     S
O1272  C1273   1.413   .     S
C1273  H1276   1.109   .     S
C1273  H1274   1.114   .     S
C1273  H1275   1.110   .     S
O1277  C1278   1.407   .     S
C1278  H1280   1.111   .     S
C1278  H1281   1.109   .     S
C1278  H1279   1.110   .     S
O1282  C1283   1.415   .     S
C1283  H1286   1.109   .     S
C1283  H1285   1.115   .     S
C1283  H1572   1.108   .     S
H1284  C1571   1.108   1_545 S
O1287  C1288   1.409   .     S
C1288  H1291   1.107   .     S
C1288  H1290   1.112   .     S
C1288  H1577   1.109   1_545 S
H1289  C1576   1.109   .     S
O1292  C1293   1.412   .     S
C1293  H1295   1.115   .     S
C1293  H1296   1.109   .     S
C1293  H1582   1.110   .     S
H1294  C1581   1.110   1_545 S
C1297  O1327   1.307   .     A
C1297  C1321   1.458   .     S
C1297  O1330   1.300   .     A
C1298  O1328   1.293   .     A
C1298  O1329   1.320   .     A
C1298  C1322   1.473   .     S
C1299  C1303   1.427   .     A
C1299  N1325   1.415   .     A
C1299  C1337   1.555   .     S
C1300  C1304   1.431   .     A
C1300  C1348   1.487   .     S
C1300  N1326   1.400   .     A
C1301  C1359   1.477   .     S
C1301  N1325   1.390   .     A
C1301  C1305   1.427   .     A
C1302  C1370   1.502   .     S
C1302  N1326   1.390   .     A
C1302  C1306   1.423   .     A
C1303  O1421   1.383   .     S
C1303  C1309   1.399   .     A
C1304  O1426   1.389   .     S
C1304  C1310   1.405   .     A
C1305  C1309   1.409   .     A
C1305  O1431   1.381   .     S
C1306  O1436   1.384   .     S
C1306  C1310   1.411   .     A
C1307  C1311   1.376   .     S
C1307  O1334   1.290   .     A
C1307  O1331   1.290   .     A
C1308  O1333   1.289   .     A
C1308  C1312   1.376   .     S
C1308  O1332   1.291   .     A
C1309  C1598   1.527   1_545 S
C1310  C1597   1.527   .     S
C1312  C159    1.171   1_556 S
C1313  O1381   1.389   .     S
C1313  C1323   1.397   .     A
C1313  C1317   1.390   .     A
C1314  C1324   1.398   .     A
C1314  O1386   1.384   .     S
C1314  C1318   1.412   .     A
C1315  C1319   1.381   .     A
C1315  C1324   1.402   .     A
C1315  O1391   1.386   .     S
C1316  C1320   1.400   .     A
C1316  O1396   1.384   .     S
C1316  C1323   1.404   .     A
C1317  O1401   1.374   .     S
C1317  C1321   1.407   .     A
C1318  O1406   1.396   .     S
C1318  C1322   1.428   .     A
C1319  C1322   1.402   .     A
C1319  O1411   1.372   .     S
C1320  O1416   1.386   .     S
C1320  C1321   1.413   .     A
C1324  C1179   1.448   1_655 S
N1325  Zn1336  2.037   .     S
N1326  Zn1335  2.037   .     S
O1327  Zn1335  2.012   .     S
O1328  Zn1336  2.012   .     S
O1329  Zn1335  2.016   .     S
O1330  Zn1336  2.016   .     S
O1331  Zn1335  1.962   .     S
O1332  Zn1336  1.962   .     S
O1333  Zn1335  1.959   .     S
O1334  Zn1336  1.959   .     S
C1337  C1338   1.406   .     A
C1337  C1342   1.430   .     A
C1338  C1339   1.399   .     A
C1338  H1343   1.026   .     S
C1339  C1340   1.384   .     A
C1339  H1344   1.083   .     S
C1340  C1341   1.384   .     A
C1341  C1342   1.398   .     A
C1342  H1347   1.066   .     S
H1345  C188    1.081   1_556 S
H1346  C189    1.083   1_556 S
C1348  C1349   1.400   .     A
C1348  C1353   1.403   .     A
C1349  H1354   1.071   .     S
C1349  C1350   1.396   .     A
C1350  C1351   1.395   .     A
C1350  H203    1.080   1_556 S
C1351  C1352   1.393   .     A
C1351  H204    1.081   1_556 S
C1352  H1357   1.081   .     S
C1352  C1353   1.397   .     A
C1353  H1358   1.078   .     S
C1359  C1364   1.406   .     A
C1359  C1360   1.402   .     A
C1360  H1365   1.072   .     S
C1360  C1361   1.396   .     A
C1361  H1366   1.083   .     S
C1361  C210    1.394   1_556 S
C1362  C1363   1.396   .     A
C1362  H1367   1.079   .     S
C1363  H1368   1.077   .     S
C1364  H1369   1.080   .     S
C1364  C211    1.396   1_556 S
C1370  C1371   1.413   .     A
C1370  C1375   1.397   .     A
C1371  H1376   1.082   .     S
C1372  H1377   1.078   .     S
C1372  C1373   1.393   .     A
C1372  C219    1.398   1_556 S
C1373  H1378   1.081   .     S
C1373  C222    1.391   1_556 S
C1374  H1379   1.083   .     S
C1374  C1375   1.397   .     A
C1375  H1380   1.049   .     S
O1381  C1382   1.413   .     S
C1382  H1384   1.110   .     S
C1382  H1383   1.115   .     S
H1385  C1238   1.109   1_655 S
O1386  C1387   1.410   .     S
C1387  H1388   1.112   .     S
C1387  H1389   1.111   .     S
C1387  H1390   1.109   .     S
O1391  C1248   1.411   1_655 S
C1392  H1395   1.110   .     S
C1392  H1394   1.109   .     S
H1393  C1248   1.114   1_655 S
O1396  C1397   1.410   .     S
C1397  H1398   1.114   .     S
C1397  H1399   1.109   .     S
H1400  C1253   1.110   1_655 S
O1401  C1402   1.410   .     S
C1402  H1403   1.112   .     S
C1402  H1404   1.107   .     S
C1402  H1405   1.112   .     S
O1406  C1407   1.415   .     S
C1407  H1409   1.109   .     S
C1407  H1408   1.115   .     S
C1407  H1410   1.109   .     S
O1411  C1412   1.408   .     S
C1412  H1413   1.108   .     S
C1412  H1415   1.109   .     S
C1412  H1414   1.113   .     S
O1416  C1417   1.413   .     S
C1417  H1420   1.109   .     S
C1417  H1418   1.114   .     S
C1417  H1419   1.110   .     S
O1421  C1422   1.407   .     S
C1422  H1424   1.111   .     S
C1422  H1425   1.109   .     S
C1422  H1423   1.110   .     S
O1426  C1427   1.415   .     S
C1427  H1430   1.109   .     S
C1427  H1429   1.115   .     S
C1427  H1716   1.108   .     S
H1428  C1715   1.108   1_545 S
O1431  C1432   1.409   .     S
C1432  H1435   1.107   .     S
C1432  H1434   1.112   .     S
C1432  H1721   1.109   1_545 S
H1433  C1720   1.109   .     S
O1436  C1437   1.412   .     S
C1437  H1439   1.115   .     S
C1437  H1440   1.109   .     S
C1437  H1726   1.110   .     S
H1438  C1725   1.110   1_545 S
C1441  O1471   1.307   .     A
C1441  C1465   1.458   .     S
C1441  O1474   1.300   .     A
C1442  O1472   1.293   .     A
C1442  O1473   1.320   .     A
C1442  C1466   1.473   .     S
C1443  C1447   1.427   .     A
C1443  N1469   1.415   .     A
C1443  C1481   1.555   .     S
C1444  C1448   1.431   .     A
C1444  C1492   1.487   .     S
C1444  N1470   1.400   .     A
C1445  C1503   1.477   .     S
C1445  N1469   1.390   .     A
C1445  C1449   1.427   .     A
C1446  C1514   1.502   .     S
C1446  N1470   1.390   .     A
C1446  C1450   1.423   .     A
C1447  O1565   1.383   .     S
C1447  C1453   1.399   .     A
C1448  O1570   1.389   .     S
C1448  C1454   1.405   .     A
C1449  C1453   1.409   .     A
C1449  O1575   1.381   .     S
C1450  O1580   1.384   .     S
C1450  C1454   1.411   .     A
C1451  C1455   1.376   .     S
C1451  O1478   1.290   .     A
C1451  O1475   1.290   .     A
C1452  O1477   1.289   .     A
C1452  C1456   1.376   .     S
C1452  O1476   1.291   .     A
C1454  C1165   1.527   1_565 S
C1456  C303    1.171   1_556 S
C1457  O1525   1.389   .     S
C1457  C1467   1.397   .     A
C1457  C1461   1.390   .     A
C1458  C1468   1.398   .     A
C1458  O1530   1.384   .     S
C1458  C1462   1.412   .     A
C1459  C1463   1.381   .     A
C1459  C1468   1.402   .     A
C1459  O1535   1.386   .     S
C1460  C1464   1.400   .     A
C1460  O1540   1.384   .     S
C1460  C1467   1.404   .     A
C1461  O1545   1.374   .     S
C1461  C1465   1.407   .     A
C1462  O1550   1.396   .     S
C1462  C1466   1.428   .     A
C1463  C1466   1.402   .     A
C1463  O1555   1.372   .     S
C1464  O1560   1.386   .     S
C1464  C1465   1.413   .     A
C1467  C1612   1.448   1_455 S
C1468  C1611   1.448   .     S
N1469  Zn1480  2.037   .     S
N1470  Zn1479  2.037   .     S
O1471  Zn1479  2.012   .     S
O1472  Zn1480  2.012   .     S
O1473  Zn1479  2.016   .     S
O1474  Zn1480  2.016   .     S
O1475  Zn1479  1.962   .     S
O1476  Zn1480  1.962   .     S
O1477  Zn1479  1.959   .     S
O1478  Zn1480  1.959   .     S
C1481  C1482   1.406   .     A
C1481  C1486   1.430   .     A
C1482  C1483   1.399   .     A
C1482  H1487   1.026   .     S
C1483  C1484   1.384   .     A
C1483  H1488   1.083   .     S
C1484  C1485   1.384   .     A
C1485  C1486   1.398   .     A
C1486  H1491   1.066   .     S
H1489  C332    1.081   1_556 S
H1490  C333    1.083   1_556 S
C1492  C1493   1.400   .     A
C1492  C1497   1.403   .     A
C1493  H1498   1.071   .     S
C1493  C1494   1.396   .     A
C1494  C1495   1.395   .     A
C1494  H347    1.080   1_556 S
C1495  C1496   1.393   .     A
C1495  H348    1.081   1_556 S
C1496  H1501   1.081   .     S
C1496  C1497   1.397   .     A
C1497  H1502   1.078   .     S
C1503  C1508   1.406   .     A
C1503  C1504   1.402   .     A
C1504  H1509   1.072   .     S
C1504  C1505   1.396   .     A
C1505  H1510   1.083   .     S
C1505  C354    1.394   1_556 S
C1506  C1507   1.396   .     A
C1506  H1511   1.079   .     S
C1507  H1512   1.077   .     S
C1508  H1513   1.080   .     S
C1508  C355    1.396   1_556 S
C1514  C1515   1.413   .     A
C1514  C1519   1.397   .     A
C1515  H1520   1.082   .     S
C1516  H1521   1.078   .     S
C1516  C1517   1.393   .     A
C1516  C363    1.398   1_556 S
C1517  H1522   1.081   .     S
C1517  C366    1.391   1_556 S
C1518  H1523   1.083   .     S
C1518  C1519   1.397   .     A
C1519  H1524   1.049   .     S
O1525  C1526   1.413   .     S
C1526  H1528   1.110   .     S
C1526  H1527   1.115   .     S
C1526  H1673   1.109   1_455 S
H1529  C1670   1.109   .     S
O1530  C1531   1.410   .     S
C1531  H1532   1.112   .     S
C1531  H1533   1.111   .     S
C1531  H1534   1.109   .     S
O1535  C1680   1.411   .     S
C1536  H1539   1.110   .     S
C1536  H1538   1.109   .     S
C1536  O1679   1.411   1_455 S
C1536  H1681   1.114   1_455 S
H1537  C1680   1.114   .     S
O1540  C1541   1.410   .     S
C1541  H1542   1.114   .     S
C1541  H1543   1.109   .     S
C1541  H1688   1.110   1_455 S
H1544  C1685   1.110   .     S
O1545  C1546   1.410   .     S
C1546  H1547   1.112   .     S
C1546  H1548   1.107   .     S
C1546  H1549   1.112   .     S
O1550  C1551   1.415   .     S
C1551  H1553   1.109   .     S
C1551  H1552   1.115   .     S
C1551  H1554   1.109   .     S
O1555  C1556   1.408   .     S
C1556  H1557   1.108   .     S
C1556  H1559   1.109   .     S
C1556  H1558   1.113   .     S
O1560  C1561   1.413   .     S
C1561  H1564   1.109   .     S
C1561  H1562   1.114   .     S
C1561  H1563   1.110   .     S
O1565  C1566   1.407   .     S
C1566  H1568   1.111   .     S
C1566  H1569   1.109   .     S
C1566  H1567   1.110   .     S
O1570  C1571   1.415   .     S
C1571  H1574   1.109   .     S
C1571  H1573   1.115   .     S
C1571  H1284   1.108   1_565 S
O1575  C1576   1.409   .     S
C1576  H1579   1.107   .     S
C1576  H1578   1.112   .     S
H1577  C1288   1.109   1_565 S
O1580  C1581   1.412   .     S
C1581  H1583   1.115   .     S
C1581  H1584   1.109   .     S
C1581  H1294   1.110   1_565 S
C1585  O1615   1.307   .     A
C1585  C1609   1.458   .     S
C1585  O1618   1.300   .     A
C1586  O1616   1.293   .     A
C1586  O1617   1.320   .     A
C1586  C1610   1.473   .     S
C1587  C1591   1.427   .     A
C1587  N1613   1.415   .     A
C1587  C1625   1.555   .     S
C1588  C1592   1.431   .     A
C1588  C1636   1.487   .     S
C1588  N1614   1.400   .     A
C1589  C1647   1.477   .     S
C1589  N1613   1.390   .     A
C1589  C1593   1.427   .     A
C1590  C1658   1.502   .     S
C1590  N1614   1.390   .     A
C1590  C1594   1.423   .     A
C1591  O1709   1.383   .     S
C1591  C1597   1.399   .     A
C1592  O1714   1.389   .     S
C1592  C1598   1.405   .     A
C1593  C1597   1.409   .     A
C1593  O1719   1.381   .     S
C1594  O1724   1.384   .     S
C1594  C1598   1.411   .     A
C1595  C1599   1.376   .     S
C1595  O1622   1.290   .     A
C1595  O1619   1.290   .     A
C1596  O1621   1.289   .     A
C1596  C1600   1.376   .     S
C1596  O1620   1.291   .     A
C1598  C1309   1.527   1_565 S
C1600  C447    1.171   1_556 S
C1601  O1669   1.389   .     S
C1601  C1611   1.397   .     A
C1601  C1605   1.390   .     A
C1602  C1612   1.398   .     A
C1602  O1674   1.384   .     S
C1602  C1606   1.412   .     A
C1603  C1607   1.381   .     A
C1603  C1612   1.402   .     A
C1603  O1679   1.386   .     S
C1604  C1608   1.400   .     A
C1604  O1684   1.384   .     S
C1604  C1611   1.404   .     A
C1605  O1689   1.374   .     S
C1605  C1609   1.407   .     A
C1606  O1694   1.396   .     S
C1606  C1610   1.428   .     A
C1607  C1610   1.402   .     A
C1607  O1699   1.372   .     S
C1608  O1704   1.386   .     S
C1608  C1609   1.413   .     A
C1612  C1467   1.448   1_655 S
N1613  Zn1624  2.037   .     S
N1614  Zn1623  2.037   .     S
O1615  Zn1623  2.012   .     S
O1616  Zn1624  2.012   .     S
O1617  Zn1623  2.016   .     S
O1618  Zn1624  2.016   .     S
O1619  Zn1623  1.962   .     S
O1620  Zn1624  1.962   .     S
O1621  Zn1623  1.959   .     S
O1622  Zn1624  1.959   .     S
C1625  C1626   1.406   .     A
C1625  C1630   1.430   .     A
C1626  C1627   1.399   .     A
C1626  H1631   1.026   .     S
C1627  C1628   1.384   .     A
C1627  H1632   1.083   .     S
C1628  C1629   1.384   .     A
C1629  C1630   1.398   .     A
C1630  H1635   1.066   .     S
H1633  C476    1.081   1_556 S
H1634  C477    1.083   1_556 S
C1636  C1637   1.400   .     A
C1636  C1641   1.403   .     A
C1637  H1642   1.071   .     S
C1637  C1638   1.396   .     A
C1638  C1639   1.395   .     A
C1638  H491    1.080   1_556 S
C1639  C1640   1.393   .     A
C1639  H492    1.081   1_556 S
C1640  H1645   1.081   .     S
C1640  C1641   1.397   .     A
C1641  H1646   1.078   .     S
C1647  C1652   1.406   .     A
C1647  C1648   1.402   .     A
C1648  H1653   1.072   .     S
C1648  C1649   1.396   .     A
C1649  H1654   1.083   .     S
C1649  C498    1.394   1_556 S
C1650  C1651   1.396   .     A
C1650  H1655   1.079   .     S
C1651  H1656   1.077   .     S
C1652  H1657   1.080   .     S
C1652  C499    1.396   1_556 S
C1658  C1659   1.413   .     A
C1658  C1663   1.397   .     A
C1659  H1664   1.082   .     S
C1660  H1665   1.078   .     S
C1660  C1661   1.393   .     A
C1660  C507    1.398   1_556 S
C1661  H1666   1.081   .     S
C1661  C510    1.391   1_556 S
C1662  H1667   1.083   .     S
C1662  C1663   1.397   .     A
C1663  H1668   1.049   .     S
O1669  C1670   1.413   .     S
C1670  H1672   1.110   .     S
C1670  H1671   1.115   .     S
H1673  C1526   1.109   1_655 S
O1674  C1675   1.410   .     S
C1675  H1676   1.112   .     S
C1675  H1677   1.111   .     S
C1675  H1678   1.109   .     S
O1679  C1536   1.411   1_655 S
C1680  H1683   1.110   .     S
C1680  H1682   1.109   .     S
H1681  C1536   1.114   1_655 S
O1684  C1685   1.410   .     S
C1685  H1686   1.114   .     S
C1685  H1687   1.109   .     S
H1688  C1541   1.110   1_655 S
O1689  C1690   1.410   .     S
C1690  H1691   1.112   .     S
C1690  H1692   1.107   .     S
C1690  H1693   1.112   .     S
O1694  C1695   1.415   .     S
C1695  H1697   1.109   .     S
C1695  H1696   1.115   .     S
C1695  H1698   1.109   .     S
O1699  C1700   1.408   .     S
C1700  H1701   1.108   .     S
C1700  H1703   1.109   .     S
C1700  H1702   1.113   .     S
O1704  C1705   1.413   .     S
C1705  H1708   1.109   .     S
C1705  H1706   1.114   .     S
C1705  H1707   1.110   .     S
O1709  C1710   1.407   .     S
C1710  H1712   1.111   .     S
C1710  H1713   1.109   .     S
C1710  H1711   1.110   .     S
O1714  C1715   1.415   .     S
C1715  H1718   1.109   .     S
C1715  H1717   1.115   .     S
C1715  H1428   1.108   1_565 S
O1719  C1720   1.409   .     S
C1720  H1723   1.107   .     S
C1720  H1722   1.112   .     S
H1721  C1432   1.109   1_565 S
O1724  C1725   1.412   .     S
C1725  H1727   1.115   .     S
C1725  H1728   1.109   .     S
C1725  H1438   1.110   1_565 S
