data_str_m3_o1_o16_pcu_sym.249
_audit_creation_date              2020-01-03
_audit_creation_method            'Materials Studio'
_symmetry_space_group_name_H-M    'P1'
_symmetry_Int_Tables_number       1
_symmetry_cell_setting            triclinic
loop_
_symmetry_equiv_pos_as_xyz
  x,y,z
_cell_length_a                    29.6701
_cell_length_b                    31.9767
_cell_length_c                    26.1402
_cell_angle_alpha                 90.2911
_cell_angle_beta                  70.1161
_cell_angle_gamma                 90.5649
loop_
_atom_site_label
_atom_site_type_symbol
_atom_site_fract_x
_atom_site_fract_y
_atom_site_fract_z
_atom_site_U_iso_or_equiv
_atom_site_adp_type
_atom_site_occupancy
O1     O     0.12846   0.22775   0.25000   0.00000  Uiso   1.00
O2     O     0.20490   0.22774   0.25000   0.00000  Uiso   1.00
C3     C     0.16731   0.24660   0.24844   0.00000  Uiso   1.00
O4     O     0.10947   0.16666   0.32681   0.00000  Uiso   1.00
O5     O     0.18591   0.16665   0.32681   0.00000  Uiso   1.00
C6     C     0.13997   0.16564   0.35218   0.00000  Uiso   1.00
Zn7    Zn    0.11562   0.16667   0.25000   0.00000  Uiso   1.00
Zn8    Zn    0.21771   0.16666   0.25000   0.00000  Uiso   1.00
O9     O     0.12843   0.10559   0.25000   0.00000  Uiso   1.00
O10    O     0.20488   0.10558   0.25000   0.00000  Uiso   1.00
O11    O     0.14742   0.16668   0.17319   0.00000  Uiso   1.00
O12    O     0.22387   0.16667   0.17319   0.00000  Uiso   1.00
C13    C     0.16654   0.08676   0.24993   0.00000  Uiso   1.00
C14    C     0.19322   0.16632   0.14783   0.00000  Uiso   1.00
C15    C     0.24719   0.11100   0.01608   0.00000  Uiso   1.00
H16    H     0.26777   0.11807   0.08679   0.00000  Uiso   1.00
H17    H     0.27521   0.08854   0.49784   0.00000  Uiso   1.00
C18    C     0.20869   0.15823   0.08986   0.00000  Uiso   1.00
C19    C     0.08142   0.18883   0.43889   0.00000  Uiso   1.00
C20    C     0.06745   0.19418   0.49475   0.00000  Uiso   1.00
C21    C     0.09575   0.17896   0.02368   0.00000  Uiso   1.00
C22    C     0.13992   0.15849   0.49492   0.00000  Uiso   1.00
C23    C     0.14881   0.14670   0.44041   0.00000  Uiso   1.00
C24    C     0.17619   0.14996   0.01725   0.00000  Uiso   1.00
C25    C     0.21304   0.12090   0.49160   0.00000  Uiso   1.00
C26    C     0.21557   0.10274   0.44184   0.00000  Uiso   1.00
C27    C     0.18390   0.11637   0.41612   0.00000  Uiso   1.00
C28    C     0.17827   0.17133   0.06297   0.00000  Uiso   1.00
C29    C     0.24420   0.12882   0.06586   0.00000  Uiso   1.00
C30    C     0.12215   0.16546   0.41145   0.00000  Uiso   1.00
H31    H     0.15451   0.19702   0.08030   0.00000  Uiso   1.00
H32    H     0.06034   0.20303   0.41706   0.00000  Uiso   1.00
H33    H     0.03415   0.21007   0.01568   0.00000  Uiso   1.00
H34    H     0.18575   0.10222   0.37780   0.00000  Uiso   1.00
C35    C     0.21008   0.31280   0.21615   0.00000  Uiso   1.00
C36    C     0.20926   0.02255   0.21879   0.00000  Uiso   1.00
H37    H     0.24095   0.04040   0.19601   0.00000  Uiso   1.00
C38    C     0.16693   0.04269   0.24861   0.00000  Uiso   1.00
C39    C     0.12517   0.02086   0.27673   0.00000  Uiso   1.00
H40    H     0.09260   0.03686   0.30020   0.00000  Uiso   1.00
C41    C     0.12580   0.31140   0.27568   0.00000  Uiso   1.00
H42    H     0.09359   0.29436   0.29880   0.00000  Uiso   1.00
C43    C     0.16804   0.29082   0.24603   0.00000  Uiso   1.00
C44    C     0.30965   0.13018   0.24684   0.00000  Uiso   1.00
H45    H     0.29154   0.10094   0.24547   0.00000  Uiso   1.00
C46    C     0.02421   0.12984   0.24663   0.00000  Uiso   1.00
N47    N     0.04760   0.16668   0.25002   0.00000  Uiso   1.00
C48    C     0.02354   0.20330   0.25247   0.00000  Uiso   1.00
H49    H     0.04094   0.23276   0.25467   0.00000  Uiso   1.00
C50    C     0.30907   0.20327   0.25257   0.00000  Uiso   1.00
H51    H     0.29090   0.23270   0.25480   0.00000  Uiso   1.00
N52    N     0.28573   0.16665   0.25000   0.00000  Uiso   1.00
O53    O     0.04476   0.09187   0.24971   0.00000  Uiso   1.00
C54    C     0.05803   0.07173   0.19863   0.00000  Uiso   1.00
H55    H     0.06918   0.03940   0.20343   0.00000  Uiso   1.00
H56    H     0.08942   0.08781   0.16908   0.00000  Uiso   1.00
H57    H     0.02802   0.06920   0.18231   0.00000  Uiso   1.00
O58    O     0.24756   0.07047   0.42059   0.00000  Uiso   1.00
C59    C     0.27773   0.08005   0.36727   0.00000  Uiso   1.00
H60    H     0.29041   0.11320   0.36315   0.00000  Uiso   1.00
H61    H     0.25948   0.07255   0.33763   0.00000  Uiso   1.00
H62    H     0.30994   0.06004   0.35707   0.00000  Uiso   1.00
N63    N     0.07579   0.17952   0.08203   0.00000  Uiso   1.00
O64    O     0.07672   0.14588   0.10936   0.00000  Uiso   1.00
O65    O     0.05001   0.21097   0.10720   0.00000  Uiso   1.00
N66    N     0.25253   0.29226   0.18160   0.00000  Uiso   1.00
O67    O     0.24919   0.26233   0.14912   0.00000  Uiso   1.00
O68    O     0.29466   0.30770   0.17615   0.00000  Uiso   1.00
O69    O     0.46179   0.22775   0.25000   0.00000  Uiso   1.00
O70    O     0.53823   0.22774   0.25000   0.00000  Uiso   1.00
C71    C     0.50065   0.24660   0.24844   0.00000  Uiso   1.00
O72    O     0.44280   0.16666   0.32681   0.00000  Uiso   1.00
O73    O     0.51924   0.16665   0.32681   0.00000  Uiso   1.00
C74    C     0.47330   0.16564   0.35218   0.00000  Uiso   1.00
Zn75   Zn    0.44896   0.16667   0.25000   0.00000  Uiso   1.00
Zn76   Zn    0.55104   0.16666   0.25000   0.00000  Uiso   1.00
O77    O     0.46177   0.10559   0.25000   0.00000  Uiso   1.00
O78    O     0.53821   0.10558   0.25000   0.00000  Uiso   1.00
O79    O     0.48076   0.16668   0.17319   0.00000  Uiso   1.00
O80    O     0.55720   0.16667   0.17319   0.00000  Uiso   1.00
C81    C     0.49988   0.08676   0.24993   0.00000  Uiso   1.00
C82    C     0.52655   0.16632   0.14783   0.00000  Uiso   1.00
C83    C     0.58052   0.11100   0.01608   0.00000  Uiso   1.00
H84    H     0.60111   0.11807   0.08679   0.00000  Uiso   1.00
H85    H     0.60854   0.08854   0.49784   0.00000  Uiso   1.00
C86    C     0.54203   0.15823   0.08986   0.00000  Uiso   1.00
C87    C     0.41475   0.18883   0.43889   0.00000  Uiso   1.00
C88    C     0.40079   0.19418   0.49475   0.00000  Uiso   1.00
C89    C     0.42908   0.17896   0.02368   0.00000  Uiso   1.00
C90    C     0.47326   0.15849   0.49492   0.00000  Uiso   1.00
C91    C     0.48214   0.14670   0.44041   0.00000  Uiso   1.00
C92    C     0.50953   0.14996   0.01725   0.00000  Uiso   1.00
C93    C     0.54638   0.12090   0.49160   0.00000  Uiso   1.00
C94    C     0.54890   0.10274   0.44184   0.00000  Uiso   1.00
C95    C     0.51723   0.11637   0.41612   0.00000  Uiso   1.00
C96    C     0.51160   0.17133   0.06297   0.00000  Uiso   1.00
C97    C     0.57754   0.12882   0.06586   0.00000  Uiso   1.00
C98    C     0.45549   0.16546   0.41145   0.00000  Uiso   1.00
H99    H     0.48785   0.19702   0.08030   0.00000  Uiso   1.00
H100   H     0.39367   0.20303   0.41706   0.00000  Uiso   1.00
H101   H     0.36749   0.21007   0.01568   0.00000  Uiso   1.00
H102   H     0.51909   0.10222   0.37780   0.00000  Uiso   1.00
C103   C     0.54342   0.31280   0.21615   0.00000  Uiso   1.00
C104   C     0.54259   0.02255   0.21879   0.00000  Uiso   1.00
H105   H     0.57428   0.04040   0.19601   0.00000  Uiso   1.00
C106   C     0.50026   0.04269   0.24861   0.00000  Uiso   1.00
C107   C     0.45851   0.02086   0.27673   0.00000  Uiso   1.00
H108   H     0.42594   0.03686   0.30020   0.00000  Uiso   1.00
C109   C     0.45913   0.31140   0.27568   0.00000  Uiso   1.00
H110   H     0.42692   0.29436   0.29880   0.00000  Uiso   1.00
C111   C     0.50138   0.29082   0.24603   0.00000  Uiso   1.00
C112   C     0.64298   0.13018   0.24684   0.00000  Uiso   1.00
H113   H     0.62487   0.10094   0.24547   0.00000  Uiso   1.00
C114   C     0.35754   0.12984   0.24663   0.00000  Uiso   1.00
N115   N     0.38093   0.16668   0.25002   0.00000  Uiso   1.00
C116   C     0.35687   0.20330   0.25247   0.00000  Uiso   1.00
H117   H     0.37427   0.23276   0.25467   0.00000  Uiso   1.00
C118   C     0.64240   0.20327   0.25257   0.00000  Uiso   1.00
H119   H     0.62423   0.23270   0.25480   0.00000  Uiso   1.00
N120   N     0.61906   0.16665   0.25000   0.00000  Uiso   1.00
O121   O     0.37809   0.09187   0.24971   0.00000  Uiso   1.00
C122   C     0.39137   0.07173   0.19863   0.00000  Uiso   1.00
H123   H     0.40252   0.03940   0.20343   0.00000  Uiso   1.00
H124   H     0.42275   0.08781   0.16908   0.00000  Uiso   1.00
H125   H     0.36135   0.06920   0.18231   0.00000  Uiso   1.00
O126   O     0.58089   0.07047   0.42059   0.00000  Uiso   1.00
C127   C     0.61106   0.08005   0.36727   0.00000  Uiso   1.00
H128   H     0.62374   0.11320   0.36315   0.00000  Uiso   1.00
H129   H     0.59281   0.07255   0.33763   0.00000  Uiso   1.00
H130   H     0.64327   0.06004   0.35707   0.00000  Uiso   1.00
N131   N     0.40912   0.17952   0.08203   0.00000  Uiso   1.00
O132   O     0.41005   0.14588   0.10936   0.00000  Uiso   1.00
O133   O     0.38334   0.21097   0.10720   0.00000  Uiso   1.00
N134   N     0.58587   0.29226   0.18160   0.00000  Uiso   1.00
O135   O     0.58252   0.26233   0.14912   0.00000  Uiso   1.00
O136   O     0.62799   0.30770   0.17615   0.00000  Uiso   1.00
O137   O     0.79512   0.22775   0.25000   0.00000  Uiso   1.00
O138   O     0.87157   0.22774   0.25000   0.00000  Uiso   1.00
C139   C     0.83398   0.24660   0.24844   0.00000  Uiso   1.00
O140   O     0.77613   0.16666   0.32681   0.00000  Uiso   1.00
O141   O     0.85258   0.16665   0.32681   0.00000  Uiso   1.00
C142   C     0.80663   0.16564   0.35218   0.00000  Uiso   1.00
Zn143  Zn    0.78229   0.16667   0.25000   0.00000  Uiso   1.00
Zn144  Zn    0.88438   0.16666   0.25000   0.00000  Uiso   1.00
O145   O     0.79510   0.10559   0.25000   0.00000  Uiso   1.00
O146   O     0.87154   0.10558   0.25000   0.00000  Uiso   1.00
O147   O     0.81409   0.16668   0.17319   0.00000  Uiso   1.00
O148   O     0.89053   0.16667   0.17319   0.00000  Uiso   1.00
C149   C     0.83321   0.08676   0.24993   0.00000  Uiso   1.00
C150   C     0.85989   0.16632   0.14783   0.00000  Uiso   1.00
C151   C     0.91385   0.11100   0.01608   0.00000  Uiso   1.00
H152   H     0.93444   0.11807   0.08679   0.00000  Uiso   1.00
H153   H     0.94188   0.08854   0.49784   0.00000  Uiso   1.00
C154   C     0.87536   0.15823   0.08986   0.00000  Uiso   1.00
C155   C     0.74809   0.18883   0.43889   0.00000  Uiso   1.00
C156   C     0.73412   0.19418   0.49475   0.00000  Uiso   1.00
C157   C     0.76242   0.17896   0.02368   0.00000  Uiso   1.00
C158   C     0.80659   0.15849   0.49492   0.00000  Uiso   1.00
C159   C     0.81548   0.14670   0.44041   0.00000  Uiso   1.00
C160   C     0.84286   0.14996   0.01725   0.00000  Uiso   1.00
C161   C     0.87971   0.12090   0.49160   0.00000  Uiso   1.00
C162   C     0.88223   0.10274   0.44184   0.00000  Uiso   1.00
C163   C     0.85057   0.11637   0.41612   0.00000  Uiso   1.00
C164   C     0.84493   0.17133   0.06297   0.00000  Uiso   1.00
C165   C     0.91087   0.12882   0.06586   0.00000  Uiso   1.00
C166   C     0.78882   0.16546   0.41145   0.00000  Uiso   1.00
H167   H     0.82118   0.19702   0.08030   0.00000  Uiso   1.00
H168   H     0.72701   0.20303   0.41706   0.00000  Uiso   1.00
H169   H     0.70082   0.21007   0.01568   0.00000  Uiso   1.00
H170   H     0.85242   0.10222   0.37780   0.00000  Uiso   1.00
C171   C     0.87675   0.31280   0.21615   0.00000  Uiso   1.00
C172   C     0.87593   0.02255   0.21879   0.00000  Uiso   1.00
H173   H     0.90762   0.04040   0.19601   0.00000  Uiso   1.00
C174   C     0.83359   0.04269   0.24861   0.00000  Uiso   1.00
C175   C     0.79184   0.02086   0.27673   0.00000  Uiso   1.00
H176   H     0.75927   0.03686   0.30020   0.00000  Uiso   1.00
C177   C     0.79247   0.31140   0.27568   0.00000  Uiso   1.00
H178   H     0.76025   0.29436   0.29880   0.00000  Uiso   1.00
C179   C     0.83471   0.29082   0.24603   0.00000  Uiso   1.00
C180   C     0.97632   0.13018   0.24684   0.00000  Uiso   1.00
H181   H     0.95820   0.10094   0.24547   0.00000  Uiso   1.00
C182   C     0.69088   0.12984   0.24663   0.00000  Uiso   1.00
N183   N     0.71426   0.16668   0.25002   0.00000  Uiso   1.00
C184   C     0.69020   0.20330   0.25247   0.00000  Uiso   1.00
H185   H     0.70761   0.23276   0.25467   0.00000  Uiso   1.00
C186   C     0.97574   0.20327   0.25257   0.00000  Uiso   1.00
H187   H     0.95756   0.23270   0.25480   0.00000  Uiso   1.00
N188   N     0.95239   0.16665   0.25000   0.00000  Uiso   1.00
O189   O     0.71142   0.09187   0.24971   0.00000  Uiso   1.00
C190   C     0.72470   0.07173   0.19863   0.00000  Uiso   1.00
H191   H     0.73585   0.03940   0.20343   0.00000  Uiso   1.00
H192   H     0.75609   0.08781   0.16908   0.00000  Uiso   1.00
H193   H     0.69468   0.06920   0.18231   0.00000  Uiso   1.00
O194   O     0.91423   0.07047   0.42059   0.00000  Uiso   1.00
C195   C     0.94440   0.08005   0.36727   0.00000  Uiso   1.00
H196   H     0.95708   0.11320   0.36315   0.00000  Uiso   1.00
H197   H     0.92614   0.07255   0.33763   0.00000  Uiso   1.00
H198   H     0.97661   0.06004   0.35707   0.00000  Uiso   1.00
N199   N     0.74245   0.17952   0.08203   0.00000  Uiso   1.00
O200   O     0.74338   0.14588   0.10936   0.00000  Uiso   1.00
O201   O     0.71668   0.21097   0.10720   0.00000  Uiso   1.00
N202   N     0.91920   0.29226   0.18160   0.00000  Uiso   1.00
O203   O     0.91586   0.26233   0.14912   0.00000  Uiso   1.00
O204   O     0.96133   0.30770   0.17615   0.00000  Uiso   1.00
O205   O     0.12846   0.56108   0.25000   0.00000  Uiso   1.00
O206   O     0.20490   0.56107   0.25000   0.00000  Uiso   1.00
C207   C     0.16731   0.57993   0.24844   0.00000  Uiso   1.00
O208   O     0.10947   0.50000   0.32681   0.00000  Uiso   1.00
O209   O     0.18591   0.49999   0.32681   0.00000  Uiso   1.00
C210   C     0.13997   0.49898   0.35218   0.00000  Uiso   1.00
Zn211  Zn    0.11562   0.50001   0.25000   0.00000  Uiso   1.00
Zn212  Zn    0.21771   0.49999   0.25000   0.00000  Uiso   1.00
O213   O     0.12843   0.43893   0.25000   0.00000  Uiso   1.00
O214   O     0.20488   0.43892   0.25000   0.00000  Uiso   1.00
O215   O     0.14742   0.50001   0.17319   0.00000  Uiso   1.00
O216   O     0.22387   0.50000   0.17319   0.00000  Uiso   1.00
C217   C     0.16654   0.42009   0.24993   0.00000  Uiso   1.00
C218   C     0.19322   0.49965   0.14783   0.00000  Uiso   1.00
C219   C     0.24719   0.44434   0.01608   0.00000  Uiso   1.00
H220   H     0.26777   0.45140   0.08679   0.00000  Uiso   1.00
H221   H     0.27521   0.42188   0.49784   0.00000  Uiso   1.00
C222   C     0.20869   0.49156   0.08986   0.00000  Uiso   1.00
C223   C     0.08142   0.52216   0.43889   0.00000  Uiso   1.00
C224   C     0.06745   0.52751   0.49475   0.00000  Uiso   1.00
C225   C     0.09575   0.51229   0.02368   0.00000  Uiso   1.00
C226   C     0.13992   0.49182   0.49492   0.00000  Uiso   1.00
C227   C     0.14881   0.48004   0.44041   0.00000  Uiso   1.00
C228   C     0.17619   0.48329   0.01725   0.00000  Uiso   1.00
C229   C     0.21304   0.45424   0.49160   0.00000  Uiso   1.00
C230   C     0.21557   0.43607   0.44184   0.00000  Uiso   1.00
C231   C     0.18390   0.44970   0.41612   0.00000  Uiso   1.00
C232   C     0.17827   0.50466   0.06297   0.00000  Uiso   1.00
C233   C     0.24420   0.46216   0.06586   0.00000  Uiso   1.00
C234   C     0.12215   0.49879   0.41145   0.00000  Uiso   1.00
H235   H     0.15451   0.53035   0.08030   0.00000  Uiso   1.00
H236   H     0.06034   0.53637   0.41706   0.00000  Uiso   1.00
H237   H     0.03415   0.54340   0.01568   0.00000  Uiso   1.00
H238   H     0.18575   0.43555   0.37780   0.00000  Uiso   1.00
C239   C     0.21008   0.64614   0.21615   0.00000  Uiso   1.00
C240   C     0.20926   0.35588   0.21879   0.00000  Uiso   1.00
H241   H     0.24095   0.37373   0.19601   0.00000  Uiso   1.00
C242   C     0.16693   0.37603   0.24861   0.00000  Uiso   1.00
C243   C     0.12517   0.35419   0.27673   0.00000  Uiso   1.00
H244   H     0.09260   0.37019   0.30020   0.00000  Uiso   1.00
C245   C     0.12580   0.64474   0.27568   0.00000  Uiso   1.00
H246   H     0.09359   0.62769   0.29880   0.00000  Uiso   1.00
C247   C     0.16804   0.62415   0.24603   0.00000  Uiso   1.00
C248   C     0.30965   0.46351   0.24684   0.00000  Uiso   1.00
H249   H     0.29154   0.43428   0.24547   0.00000  Uiso   1.00
C250   C     0.02421   0.46317   0.24663   0.00000  Uiso   1.00
N251   N     0.04760   0.50001   0.25002   0.00000  Uiso   1.00
C252   C     0.02354   0.53663   0.25247   0.00000  Uiso   1.00
H253   H     0.04094   0.56609   0.25467   0.00000  Uiso   1.00
C254   C     0.30907   0.53660   0.25257   0.00000  Uiso   1.00
H255   H     0.29090   0.56603   0.25480   0.00000  Uiso   1.00
N256   N     0.28573   0.49998   0.25000   0.00000  Uiso   1.00
O257   O     0.04476   0.42521   0.24971   0.00000  Uiso   1.00
C258   C     0.05803   0.40507   0.19863   0.00000  Uiso   1.00
H259   H     0.06918   0.37274   0.20343   0.00000  Uiso   1.00
H260   H     0.08942   0.42114   0.16908   0.00000  Uiso   1.00
H261   H     0.02802   0.40254   0.18231   0.00000  Uiso   1.00
O262   O     0.24756   0.40380   0.42059   0.00000  Uiso   1.00
C263   C     0.27773   0.41338   0.36727   0.00000  Uiso   1.00
H264   H     0.29041   0.44653   0.36315   0.00000  Uiso   1.00
H265   H     0.25948   0.40588   0.33763   0.00000  Uiso   1.00
H266   H     0.30994   0.39337   0.35707   0.00000  Uiso   1.00
N267   N     0.07579   0.51285   0.08203   0.00000  Uiso   1.00
O268   O     0.07672   0.47922   0.10936   0.00000  Uiso   1.00
O269   O     0.05001   0.54430   0.10720   0.00000  Uiso   1.00
N270   N     0.25253   0.62559   0.18160   0.00000  Uiso   1.00
O271   O     0.24919   0.59566   0.14912   0.00000  Uiso   1.00
O272   O     0.29466   0.64103   0.17615   0.00000  Uiso   1.00
O273   O     0.46179   0.56108   0.25000   0.00000  Uiso   1.00
O274   O     0.53823   0.56107   0.25000   0.00000  Uiso   1.00
C275   C     0.50065   0.57993   0.24844   0.00000  Uiso   1.00
O276   O     0.44280   0.50000   0.32681   0.00000  Uiso   1.00
O277   O     0.51924   0.49999   0.32681   0.00000  Uiso   1.00
C278   C     0.47330   0.49898   0.35218   0.00000  Uiso   1.00
Zn279  Zn    0.44896   0.50001   0.25000   0.00000  Uiso   1.00
Zn280  Zn    0.55104   0.49999   0.25000   0.00000  Uiso   1.00
O281   O     0.46177   0.43893   0.25000   0.00000  Uiso   1.00
O282   O     0.53821   0.43892   0.25000   0.00000  Uiso   1.00
O283   O     0.48076   0.50001   0.17319   0.00000  Uiso   1.00
O284   O     0.55720   0.50000   0.17319   0.00000  Uiso   1.00
C285   C     0.49988   0.42009   0.24993   0.00000  Uiso   1.00
C286   C     0.52655   0.49965   0.14783   0.00000  Uiso   1.00
C287   C     0.58052   0.44434   0.01608   0.00000  Uiso   1.00
H288   H     0.60111   0.45140   0.08679   0.00000  Uiso   1.00
H289   H     0.60854   0.42188   0.49784   0.00000  Uiso   1.00
C290   C     0.54203   0.49156   0.08986   0.00000  Uiso   1.00
C291   C     0.41475   0.52216   0.43889   0.00000  Uiso   1.00
C292   C     0.40079   0.52751   0.49475   0.00000  Uiso   1.00
C293   C     0.42908   0.51229   0.02368   0.00000  Uiso   1.00
C294   C     0.47326   0.49182   0.49492   0.00000  Uiso   1.00
C295   C     0.48214   0.48004   0.44041   0.00000  Uiso   1.00
C296   C     0.50953   0.48329   0.01725   0.00000  Uiso   1.00
C297   C     0.54638   0.45424   0.49160   0.00000  Uiso   1.00
C298   C     0.54890   0.43607   0.44184   0.00000  Uiso   1.00
C299   C     0.51723   0.44970   0.41612   0.00000  Uiso   1.00
C300   C     0.51160   0.50466   0.06297   0.00000  Uiso   1.00
C301   C     0.57754   0.46216   0.06586   0.00000  Uiso   1.00
C302   C     0.45549   0.49879   0.41145   0.00000  Uiso   1.00
H303   H     0.48785   0.53035   0.08030   0.00000  Uiso   1.00
H304   H     0.39367   0.53637   0.41706   0.00000  Uiso   1.00
H305   H     0.36749   0.54340   0.01568   0.00000  Uiso   1.00
H306   H     0.51909   0.43555   0.37780   0.00000  Uiso   1.00
C307   C     0.54342   0.64614   0.21615   0.00000  Uiso   1.00
C308   C     0.54259   0.35588   0.21879   0.00000  Uiso   1.00
H309   H     0.57428   0.37373   0.19601   0.00000  Uiso   1.00
C310   C     0.50026   0.37603   0.24861   0.00000  Uiso   1.00
C311   C     0.45851   0.35419   0.27673   0.00000  Uiso   1.00
H312   H     0.42594   0.37019   0.30020   0.00000  Uiso   1.00
C313   C     0.45913   0.64474   0.27568   0.00000  Uiso   1.00
H314   H     0.42692   0.62769   0.29880   0.00000  Uiso   1.00
C315   C     0.50138   0.62415   0.24603   0.00000  Uiso   1.00
C316   C     0.64298   0.46351   0.24684   0.00000  Uiso   1.00
H317   H     0.62487   0.43428   0.24547   0.00000  Uiso   1.00
C318   C     0.35754   0.46317   0.24663   0.00000  Uiso   1.00
N319   N     0.38093   0.50001   0.25002   0.00000  Uiso   1.00
C320   C     0.35687   0.53663   0.25247   0.00000  Uiso   1.00
H321   H     0.37427   0.56609   0.25467   0.00000  Uiso   1.00
C322   C     0.64240   0.53660   0.25257   0.00000  Uiso   1.00
H323   H     0.62423   0.56603   0.25480   0.00000  Uiso   1.00
N324   N     0.61906   0.49998   0.25000   0.00000  Uiso   1.00
O325   O     0.37809   0.42521   0.24971   0.00000  Uiso   1.00
C326   C     0.39137   0.40507   0.19863   0.00000  Uiso   1.00
H327   H     0.40252   0.37274   0.20343   0.00000  Uiso   1.00
H328   H     0.42275   0.42114   0.16908   0.00000  Uiso   1.00
H329   H     0.36135   0.40254   0.18231   0.00000  Uiso   1.00
O330   O     0.58089   0.40380   0.42059   0.00000  Uiso   1.00
C331   C     0.61106   0.41338   0.36727   0.00000  Uiso   1.00
H332   H     0.62374   0.44653   0.36315   0.00000  Uiso   1.00
H333   H     0.59281   0.40588   0.33763   0.00000  Uiso   1.00
H334   H     0.64327   0.39337   0.35707   0.00000  Uiso   1.00
N335   N     0.40912   0.51285   0.08203   0.00000  Uiso   1.00
O336   O     0.41005   0.47922   0.10936   0.00000  Uiso   1.00
O337   O     0.38334   0.54430   0.10720   0.00000  Uiso   1.00
N338   N     0.58587   0.62559   0.18160   0.00000  Uiso   1.00
O339   O     0.58252   0.59566   0.14912   0.00000  Uiso   1.00
O340   O     0.62799   0.64103   0.17615   0.00000  Uiso   1.00
O341   O     0.79512   0.56108   0.25000   0.00000  Uiso   1.00
O342   O     0.87157   0.56107   0.25000   0.00000  Uiso   1.00
C343   C     0.83398   0.57993   0.24844   0.00000  Uiso   1.00
O344   O     0.77613   0.50000   0.32681   0.00000  Uiso   1.00
O345   O     0.85258   0.49999   0.32681   0.00000  Uiso   1.00
C346   C     0.80663   0.49898   0.35218   0.00000  Uiso   1.00
Zn347  Zn    0.78229   0.50001   0.25000   0.00000  Uiso   1.00
Zn348  Zn    0.88438   0.49999   0.25000   0.00000  Uiso   1.00
O349   O     0.79510   0.43893   0.25000   0.00000  Uiso   1.00
O350   O     0.87154   0.43892   0.25000   0.00000  Uiso   1.00
O351   O     0.81409   0.50001   0.17319   0.00000  Uiso   1.00
O352   O     0.89053   0.50000   0.17319   0.00000  Uiso   1.00
C353   C     0.83321   0.42009   0.24993   0.00000  Uiso   1.00
C354   C     0.85989   0.49965   0.14783   0.00000  Uiso   1.00
C355   C     0.91385   0.44434   0.01608   0.00000  Uiso   1.00
H356   H     0.93444   0.45140   0.08679   0.00000  Uiso   1.00
H357   H     0.94188   0.42188   0.49784   0.00000  Uiso   1.00
C358   C     0.87536   0.49156   0.08986   0.00000  Uiso   1.00
C359   C     0.74809   0.52216   0.43889   0.00000  Uiso   1.00
C360   C     0.73412   0.52751   0.49475   0.00000  Uiso   1.00
C361   C     0.76242   0.51229   0.02368   0.00000  Uiso   1.00
C362   C     0.80659   0.49182   0.49492   0.00000  Uiso   1.00
C363   C     0.81548   0.48004   0.44041   0.00000  Uiso   1.00
C364   C     0.84286   0.48329   0.01725   0.00000  Uiso   1.00
C365   C     0.87971   0.45424   0.49160   0.00000  Uiso   1.00
C366   C     0.88223   0.43607   0.44184   0.00000  Uiso   1.00
C367   C     0.85057   0.44970   0.41612   0.00000  Uiso   1.00
C368   C     0.84493   0.50466   0.06297   0.00000  Uiso   1.00
C369   C     0.91087   0.46216   0.06586   0.00000  Uiso   1.00
C370   C     0.78882   0.49879   0.41145   0.00000  Uiso   1.00
H371   H     0.82118   0.53035   0.08030   0.00000  Uiso   1.00
H372   H     0.72701   0.53637   0.41706   0.00000  Uiso   1.00
H373   H     0.70082   0.54340   0.01568   0.00000  Uiso   1.00
H374   H     0.85242   0.43555   0.37780   0.00000  Uiso   1.00
C375   C     0.87675   0.64614   0.21615   0.00000  Uiso   1.00
C376   C     0.87593   0.35588   0.21879   0.00000  Uiso   1.00
H377   H     0.90762   0.37373   0.19601   0.00000  Uiso   1.00
C378   C     0.83359   0.37603   0.24861   0.00000  Uiso   1.00
C379   C     0.79184   0.35419   0.27673   0.00000  Uiso   1.00
H380   H     0.75927   0.37019   0.30020   0.00000  Uiso   1.00
C381   C     0.79247   0.64474   0.27568   0.00000  Uiso   1.00
H382   H     0.76025   0.62769   0.29880   0.00000  Uiso   1.00
C383   C     0.83471   0.62415   0.24603   0.00000  Uiso   1.00
C384   C     0.97632   0.46351   0.24684   0.00000  Uiso   1.00
H385   H     0.95820   0.43428   0.24547   0.00000  Uiso   1.00
C386   C     0.69088   0.46317   0.24663   0.00000  Uiso   1.00
N387   N     0.71426   0.50001   0.25002   0.00000  Uiso   1.00
C388   C     0.69020   0.53663   0.25247   0.00000  Uiso   1.00
H389   H     0.70761   0.56609   0.25467   0.00000  Uiso   1.00
C390   C     0.97574   0.53660   0.25257   0.00000  Uiso   1.00
H391   H     0.95756   0.56603   0.25480   0.00000  Uiso   1.00
N392   N     0.95239   0.49998   0.25000   0.00000  Uiso   1.00
O393   O     0.71142   0.42521   0.24971   0.00000  Uiso   1.00
C394   C     0.72470   0.40507   0.19863   0.00000  Uiso   1.00
H395   H     0.73585   0.37274   0.20343   0.00000  Uiso   1.00
H396   H     0.75609   0.42114   0.16908   0.00000  Uiso   1.00
H397   H     0.69468   0.40254   0.18231   0.00000  Uiso   1.00
O398   O     0.91423   0.40380   0.42059   0.00000  Uiso   1.00
C399   C     0.94440   0.41338   0.36727   0.00000  Uiso   1.00
H400   H     0.95708   0.44653   0.36315   0.00000  Uiso   1.00
H401   H     0.92614   0.40588   0.33763   0.00000  Uiso   1.00
H402   H     0.97661   0.39337   0.35707   0.00000  Uiso   1.00
N403   N     0.74245   0.51285   0.08203   0.00000  Uiso   1.00
O404   O     0.74338   0.47922   0.10936   0.00000  Uiso   1.00
O405   O     0.71668   0.54430   0.10720   0.00000  Uiso   1.00
N406   N     0.91920   0.62559   0.18160   0.00000  Uiso   1.00
O407   O     0.91586   0.59566   0.14912   0.00000  Uiso   1.00
O408   O     0.96133   0.64103   0.17615   0.00000  Uiso   1.00
O409   O     0.12846   0.89442   0.25000   0.00000  Uiso   1.00
O410   O     0.20490   0.89441   0.25000   0.00000  Uiso   1.00
C411   C     0.16731   0.91327   0.24844   0.00000  Uiso   1.00
O412   O     0.10947   0.83333   0.32681   0.00000  Uiso   1.00
O413   O     0.18591   0.83332   0.32681   0.00000  Uiso   1.00
C414   C     0.13997   0.83231   0.35218   0.00000  Uiso   1.00
Zn415  Zn    0.11562   0.83334   0.25000   0.00000  Uiso   1.00
Zn416  Zn    0.21771   0.83333   0.25000   0.00000  Uiso   1.00
O417   O     0.12843   0.77226   0.25000   0.00000  Uiso   1.00
O418   O     0.20488   0.77225   0.25000   0.00000  Uiso   1.00
O419   O     0.14742   0.83335   0.17319   0.00000  Uiso   1.00
O420   O     0.22387   0.83334   0.17319   0.00000  Uiso   1.00
C421   C     0.16654   0.75342   0.24993   0.00000  Uiso   1.00
C422   C     0.19322   0.83298   0.14783   0.00000  Uiso   1.00
C423   C     0.24719   0.77767   0.01608   0.00000  Uiso   1.00
H424   H     0.26777   0.78473   0.08679   0.00000  Uiso   1.00
H425   H     0.27521   0.75521   0.49784   0.00000  Uiso   1.00
C426   C     0.20869   0.82489   0.08986   0.00000  Uiso   1.00
C427   C     0.08142   0.85550   0.43889   0.00000  Uiso   1.00
C428   C     0.06745   0.86085   0.49475   0.00000  Uiso   1.00
C429   C     0.09575   0.84562   0.02368   0.00000  Uiso   1.00
C430   C     0.13992   0.82515   0.49492   0.00000  Uiso   1.00
C431   C     0.14881   0.81337   0.44041   0.00000  Uiso   1.00
C432   C     0.17619   0.81663   0.01725   0.00000  Uiso   1.00
C433   C     0.21304   0.78757   0.49160   0.00000  Uiso   1.00
C434   C     0.21557   0.76941   0.44184   0.00000  Uiso   1.00
C435   C     0.18390   0.78303   0.41612   0.00000  Uiso   1.00
C436   C     0.17827   0.83799   0.06297   0.00000  Uiso   1.00
C437   C     0.24420   0.79549   0.06586   0.00000  Uiso   1.00
C438   C     0.12215   0.83213   0.41145   0.00000  Uiso   1.00
H439   H     0.15451   0.86369   0.08030   0.00000  Uiso   1.00
H440   H     0.06034   0.86970   0.41706   0.00000  Uiso   1.00
H441   H     0.03415   0.87673   0.01568   0.00000  Uiso   1.00
H442   H     0.18575   0.76889   0.37780   0.00000  Uiso   1.00
C443   C     0.21008   0.97947   0.21615   0.00000  Uiso   1.00
C444   C     0.20926   0.68921   0.21879   0.00000  Uiso   1.00
H445   H     0.24095   0.70706   0.19601   0.00000  Uiso   1.00
C446   C     0.16693   0.70936   0.24861   0.00000  Uiso   1.00
C447   C     0.12517   0.68753   0.27673   0.00000  Uiso   1.00
H448   H     0.09260   0.70352   0.30020   0.00000  Uiso   1.00
C449   C     0.12580   0.97807   0.27568   0.00000  Uiso   1.00
H450   H     0.09359   0.96103   0.29880   0.00000  Uiso   1.00
C451   C     0.16804   0.95749   0.24603   0.00000  Uiso   1.00
C452   C     0.30965   0.79685   0.24684   0.00000  Uiso   1.00
H453   H     0.29154   0.76761   0.24547   0.00000  Uiso   1.00
C454   C     0.02421   0.79650   0.24663   0.00000  Uiso   1.00
N455   N     0.04760   0.83334   0.25002   0.00000  Uiso   1.00
C456   C     0.02354   0.86996   0.25247   0.00000  Uiso   1.00
H457   H     0.04094   0.89943   0.25467   0.00000  Uiso   1.00
C458   C     0.30907   0.86993   0.25257   0.00000  Uiso   1.00
H459   H     0.29090   0.89937   0.25480   0.00000  Uiso   1.00
N460   N     0.28573   0.83331   0.25000   0.00000  Uiso   1.00
O461   O     0.04476   0.75854   0.24971   0.00000  Uiso   1.00
C462   C     0.05803   0.73840   0.19863   0.00000  Uiso   1.00
H463   H     0.06918   0.70607   0.20343   0.00000  Uiso   1.00
H464   H     0.08942   0.75447   0.16908   0.00000  Uiso   1.00
H465   H     0.02802   0.73587   0.18231   0.00000  Uiso   1.00
O466   O     0.24756   0.73714   0.42059   0.00000  Uiso   1.00
C467   C     0.27773   0.74671   0.36727   0.00000  Uiso   1.00
H468   H     0.29041   0.77987   0.36315   0.00000  Uiso   1.00
H469   H     0.25948   0.73922   0.33763   0.00000  Uiso   1.00
H470   H     0.30994   0.72671   0.35707   0.00000  Uiso   1.00
N471   N     0.07579   0.84619   0.08203   0.00000  Uiso   1.00
O472   O     0.07672   0.81255   0.10936   0.00000  Uiso   1.00
O473   O     0.05001   0.87764   0.10720   0.00000  Uiso   1.00
N474   N     0.25253   0.95892   0.18160   0.00000  Uiso   1.00
O475   O     0.24919   0.92899   0.14912   0.00000  Uiso   1.00
O476   O     0.29466   0.97436   0.17615   0.00000  Uiso   1.00
O477   O     0.46179   0.89442   0.25000   0.00000  Uiso   1.00
O478   O     0.53823   0.89441   0.25000   0.00000  Uiso   1.00
C479   C     0.50065   0.91327   0.24844   0.00000  Uiso   1.00
O480   O     0.44280   0.83333   0.32681   0.00000  Uiso   1.00
O481   O     0.51924   0.83332   0.32681   0.00000  Uiso   1.00
C482   C     0.47330   0.83231   0.35218   0.00000  Uiso   1.00
Zn483  Zn    0.44896   0.83334   0.25000   0.00000  Uiso   1.00
Zn484  Zn    0.55104   0.83333   0.25000   0.00000  Uiso   1.00
O485   O     0.46177   0.77226   0.25000   0.00000  Uiso   1.00
O486   O     0.53821   0.77225   0.25000   0.00000  Uiso   1.00
O487   O     0.48076   0.83335   0.17319   0.00000  Uiso   1.00
O488   O     0.55720   0.83334   0.17319   0.00000  Uiso   1.00
C489   C     0.49988   0.75342   0.24993   0.00000  Uiso   1.00
C490   C     0.52655   0.83298   0.14783   0.00000  Uiso   1.00
C491   C     0.58052   0.77767   0.01608   0.00000  Uiso   1.00
H492   H     0.60111   0.78473   0.08679   0.00000  Uiso   1.00
H493   H     0.60854   0.75521   0.49784   0.00000  Uiso   1.00
C494   C     0.54203   0.82489   0.08986   0.00000  Uiso   1.00
C495   C     0.41475   0.85550   0.43889   0.00000  Uiso   1.00
C496   C     0.40079   0.86085   0.49475   0.00000  Uiso   1.00
C497   C     0.42908   0.84562   0.02368   0.00000  Uiso   1.00
C498   C     0.47326   0.82515   0.49492   0.00000  Uiso   1.00
C499   C     0.48214   0.81337   0.44041   0.00000  Uiso   1.00
C500   C     0.50953   0.81663   0.01725   0.00000  Uiso   1.00
C501   C     0.54638   0.78757   0.49160   0.00000  Uiso   1.00
C502   C     0.54890   0.76941   0.44184   0.00000  Uiso   1.00
C503   C     0.51723   0.78303   0.41612   0.00000  Uiso   1.00
C504   C     0.51160   0.83799   0.06297   0.00000  Uiso   1.00
C505   C     0.57754   0.79549   0.06586   0.00000  Uiso   1.00
C506   C     0.45549   0.83213   0.41145   0.00000  Uiso   1.00
H507   H     0.48785   0.86369   0.08030   0.00000  Uiso   1.00
H508   H     0.39367   0.86970   0.41706   0.00000  Uiso   1.00
H509   H     0.36749   0.87673   0.01568   0.00000  Uiso   1.00
H510   H     0.51909   0.76889   0.37780   0.00000  Uiso   1.00
C511   C     0.54342   0.97947   0.21615   0.00000  Uiso   1.00
C512   C     0.54259   0.68921   0.21879   0.00000  Uiso   1.00
H513   H     0.57428   0.70706   0.19601   0.00000  Uiso   1.00
C514   C     0.50026   0.70936   0.24861   0.00000  Uiso   1.00
C515   C     0.45851   0.68753   0.27673   0.00000  Uiso   1.00
H516   H     0.42594   0.70352   0.30020   0.00000  Uiso   1.00
C517   C     0.45913   0.97807   0.27568   0.00000  Uiso   1.00
H518   H     0.42692   0.96103   0.29880   0.00000  Uiso   1.00
C519   C     0.50138   0.95749   0.24603   0.00000  Uiso   1.00
C520   C     0.64298   0.79685   0.24684   0.00000  Uiso   1.00
H521   H     0.62487   0.76761   0.24547   0.00000  Uiso   1.00
C522   C     0.35754   0.79650   0.24663   0.00000  Uiso   1.00
N523   N     0.38093   0.83334   0.25002   0.00000  Uiso   1.00
C524   C     0.35687   0.86996   0.25247   0.00000  Uiso   1.00
H525   H     0.37427   0.89943   0.25467   0.00000  Uiso   1.00
C526   C     0.64240   0.86993   0.25257   0.00000  Uiso   1.00
H527   H     0.62423   0.89937   0.25480   0.00000  Uiso   1.00
N528   N     0.61906   0.83331   0.25000   0.00000  Uiso   1.00
O529   O     0.37809   0.75854   0.24971   0.00000  Uiso   1.00
C530   C     0.39137   0.73840   0.19863   0.00000  Uiso   1.00
H531   H     0.40252   0.70607   0.20343   0.00000  Uiso   1.00
H532   H     0.42275   0.75447   0.16908   0.00000  Uiso   1.00
H533   H     0.36135   0.73587   0.18231   0.00000  Uiso   1.00
O534   O     0.58089   0.73714   0.42059   0.00000  Uiso   1.00
C535   C     0.61106   0.74671   0.36727   0.00000  Uiso   1.00
H536   H     0.62374   0.77987   0.36315   0.00000  Uiso   1.00
H537   H     0.59281   0.73922   0.33763   0.00000  Uiso   1.00
H538   H     0.64327   0.72671   0.35707   0.00000  Uiso   1.00
N539   N     0.40912   0.84619   0.08203   0.00000  Uiso   1.00
O540   O     0.41005   0.81255   0.10936   0.00000  Uiso   1.00
O541   O     0.38334   0.87764   0.10720   0.00000  Uiso   1.00
N542   N     0.58587   0.95892   0.18160   0.00000  Uiso   1.00
O543   O     0.58252   0.92899   0.14912   0.00000  Uiso   1.00
O544   O     0.62799   0.97436   0.17615   0.00000  Uiso   1.00
O545   O     0.79512   0.89442   0.25000   0.00000  Uiso   1.00
O546   O     0.87157   0.89441   0.25000   0.00000  Uiso   1.00
C547   C     0.83398   0.91327   0.24844   0.00000  Uiso   1.00
O548   O     0.77613   0.83333   0.32681   0.00000  Uiso   1.00
O549   O     0.85258   0.83332   0.32681   0.00000  Uiso   1.00
C550   C     0.80663   0.83231   0.35218   0.00000  Uiso   1.00
Zn551  Zn    0.78229   0.83334   0.25000   0.00000  Uiso   1.00
Zn552  Zn    0.88438   0.83333   0.25000   0.00000  Uiso   1.00
O553   O     0.79510   0.77226   0.25000   0.00000  Uiso   1.00
O554   O     0.87154   0.77225   0.25000   0.00000  Uiso   1.00
O555   O     0.81409   0.83335   0.17319   0.00000  Uiso   1.00
O556   O     0.89053   0.83334   0.17319   0.00000  Uiso   1.00
C557   C     0.83321   0.75342   0.24993   0.00000  Uiso   1.00
C558   C     0.85989   0.83298   0.14783   0.00000  Uiso   1.00
C559   C     0.91385   0.77767   0.01608   0.00000  Uiso   1.00
H560   H     0.93444   0.78473   0.08679   0.00000  Uiso   1.00
H561   H     0.94188   0.75521   0.49784   0.00000  Uiso   1.00
C562   C     0.87536   0.82489   0.08986   0.00000  Uiso   1.00
C563   C     0.74809   0.85550   0.43889   0.00000  Uiso   1.00
C564   C     0.73412   0.86085   0.49475   0.00000  Uiso   1.00
C565   C     0.76242   0.84562   0.02368   0.00000  Uiso   1.00
C566   C     0.80659   0.82515   0.49492   0.00000  Uiso   1.00
C567   C     0.81548   0.81337   0.44041   0.00000  Uiso   1.00
C568   C     0.84286   0.81663   0.01725   0.00000  Uiso   1.00
C569   C     0.87971   0.78757   0.49160   0.00000  Uiso   1.00
C570   C     0.88223   0.76941   0.44184   0.00000  Uiso   1.00
C571   C     0.85057   0.78303   0.41612   0.00000  Uiso   1.00
C572   C     0.84493   0.83799   0.06297   0.00000  Uiso   1.00
C573   C     0.91087   0.79549   0.06586   0.00000  Uiso   1.00
C574   C     0.78882   0.83213   0.41145   0.00000  Uiso   1.00
H575   H     0.82118   0.86369   0.08030   0.00000  Uiso   1.00
H576   H     0.72701   0.86970   0.41706   0.00000  Uiso   1.00
H577   H     0.70082   0.87673   0.01568   0.00000  Uiso   1.00
H578   H     0.85242   0.76889   0.37780   0.00000  Uiso   1.00
C579   C     0.87675   0.97947   0.21615   0.00000  Uiso   1.00
C580   C     0.87593   0.68921   0.21879   0.00000  Uiso   1.00
H581   H     0.90762   0.70706   0.19601   0.00000  Uiso   1.00
C582   C     0.83359   0.70936   0.24861   0.00000  Uiso   1.00
C583   C     0.79184   0.68753   0.27673   0.00000  Uiso   1.00
H584   H     0.75927   0.70352   0.30020   0.00000  Uiso   1.00
C585   C     0.79247   0.97807   0.27568   0.00000  Uiso   1.00
H586   H     0.76025   0.96103   0.29880   0.00000  Uiso   1.00
C587   C     0.83471   0.95749   0.24603   0.00000  Uiso   1.00
C588   C     0.97632   0.79685   0.24684   0.00000  Uiso   1.00
H589   H     0.95820   0.76761   0.24547   0.00000  Uiso   1.00
C590   C     0.69088   0.79650   0.24663   0.00000  Uiso   1.00
N591   N     0.71426   0.83334   0.25002   0.00000  Uiso   1.00
C592   C     0.69020   0.86996   0.25247   0.00000  Uiso   1.00
H593   H     0.70761   0.89943   0.25467   0.00000  Uiso   1.00
C594   C     0.97574   0.86993   0.25257   0.00000  Uiso   1.00
H595   H     0.95756   0.89937   0.25480   0.00000  Uiso   1.00
N596   N     0.95239   0.83331   0.25000   0.00000  Uiso   1.00
O597   O     0.71142   0.75854   0.24971   0.00000  Uiso   1.00
C598   C     0.72470   0.73840   0.19863   0.00000  Uiso   1.00
H599   H     0.73585   0.70607   0.20343   0.00000  Uiso   1.00
H600   H     0.75609   0.75447   0.16908   0.00000  Uiso   1.00
H601   H     0.69468   0.73587   0.18231   0.00000  Uiso   1.00
O602   O     0.91423   0.73714   0.42059   0.00000  Uiso   1.00
C603   C     0.94440   0.74671   0.36727   0.00000  Uiso   1.00
H604   H     0.95708   0.77987   0.36315   0.00000  Uiso   1.00
H605   H     0.92614   0.73922   0.33763   0.00000  Uiso   1.00
H606   H     0.97661   0.72671   0.35707   0.00000  Uiso   1.00
N607   N     0.74245   0.84619   0.08203   0.00000  Uiso   1.00
O608   O     0.74338   0.81255   0.10936   0.00000  Uiso   1.00
O609   O     0.71668   0.87764   0.10720   0.00000  Uiso   1.00
N610   N     0.91920   0.95892   0.18160   0.00000  Uiso   1.00
O611   O     0.91586   0.92899   0.14912   0.00000  Uiso   1.00
O612   O     0.96133   0.97436   0.17615   0.00000  Uiso   1.00
O613   O     0.12846   0.22775   0.75000   0.00000  Uiso   1.00
O614   O     0.20490   0.22774   0.75000   0.00000  Uiso   1.00
C615   C     0.16731   0.24660   0.74844   0.00000  Uiso   1.00
O616   O     0.10947   0.16666   0.82681   0.00000  Uiso   1.00
O617   O     0.18591   0.16665   0.82681   0.00000  Uiso   1.00
C618   C     0.13997   0.16564   0.85218   0.00000  Uiso   1.00
Zn619  Zn    0.11562   0.16667   0.75000   0.00000  Uiso   1.00
Zn620  Zn    0.21771   0.16666   0.75000   0.00000  Uiso   1.00
O621   O     0.12843   0.10559   0.75000   0.00000  Uiso   1.00
O622   O     0.20488   0.10558   0.75000   0.00000  Uiso   1.00
O623   O     0.14742   0.16668   0.67319   0.00000  Uiso   1.00
O624   O     0.22387   0.16667   0.67319   0.00000  Uiso   1.00
C625   C     0.16654   0.08676   0.74993   0.00000  Uiso   1.00
C626   C     0.19322   0.16632   0.64783   0.00000  Uiso   1.00
C627   C     0.24719   0.11100   0.51608   0.00000  Uiso   1.00
H628   H     0.26777   0.11807   0.58679   0.00000  Uiso   1.00
H629   H     0.27521   0.08854   0.99784   0.00000  Uiso   1.00
C630   C     0.20869   0.15823   0.58986   0.00000  Uiso   1.00
C631   C     0.08142   0.18883   0.93889   0.00000  Uiso   1.00
C632   C     0.06745   0.19418   0.99475   0.00000  Uiso   1.00
C633   C     0.09575   0.17896   0.52368   0.00000  Uiso   1.00
C634   C     0.13992   0.15849   0.99492   0.00000  Uiso   1.00
C635   C     0.14881   0.14670   0.94041   0.00000  Uiso   1.00
C636   C     0.17619   0.14996   0.51725   0.00000  Uiso   1.00
C637   C     0.21304   0.12090   0.99160   0.00000  Uiso   1.00
C638   C     0.21557   0.10274   0.94184   0.00000  Uiso   1.00
C639   C     0.18390   0.11637   0.91612   0.00000  Uiso   1.00
C640   C     0.17827   0.17133   0.56297   0.00000  Uiso   1.00
C641   C     0.24420   0.12882   0.56586   0.00000  Uiso   1.00
C642   C     0.12215   0.16546   0.91145   0.00000  Uiso   1.00
H643   H     0.15451   0.19702   0.58030   0.00000  Uiso   1.00
H644   H     0.06034   0.20303   0.91706   0.00000  Uiso   1.00
H645   H     0.03415   0.21007   0.51568   0.00000  Uiso   1.00
H646   H     0.18575   0.10222   0.87780   0.00000  Uiso   1.00
C647   C     0.21008   0.31280   0.71615   0.00000  Uiso   1.00
C648   C     0.20926   0.02255   0.71879   0.00000  Uiso   1.00
H649   H     0.24095   0.04040   0.69601   0.00000  Uiso   1.00
C650   C     0.16693   0.04269   0.74861   0.00000  Uiso   1.00
C651   C     0.12517   0.02086   0.77673   0.00000  Uiso   1.00
H652   H     0.09260   0.03686   0.80020   0.00000  Uiso   1.00
C653   C     0.12580   0.31140   0.77568   0.00000  Uiso   1.00
H654   H     0.09359   0.29436   0.79880   0.00000  Uiso   1.00
C655   C     0.16804   0.29082   0.74603   0.00000  Uiso   1.00
C656   C     0.30965   0.13018   0.74684   0.00000  Uiso   1.00
H657   H     0.29154   0.10094   0.74547   0.00000  Uiso   1.00
C658   C     0.02421   0.12984   0.74663   0.00000  Uiso   1.00
N659   N     0.04760   0.16668   0.75002   0.00000  Uiso   1.00
C660   C     0.02354   0.20330   0.75247   0.00000  Uiso   1.00
H661   H     0.04094   0.23276   0.75467   0.00000  Uiso   1.00
C662   C     0.30907   0.20327   0.75257   0.00000  Uiso   1.00
H663   H     0.29090   0.23270   0.75480   0.00000  Uiso   1.00
N664   N     0.28573   0.16665   0.75000   0.00000  Uiso   1.00
O665   O     0.04476   0.09187   0.74971   0.00000  Uiso   1.00
C666   C     0.05803   0.07173   0.69863   0.00000  Uiso   1.00
H667   H     0.06918   0.03940   0.70343   0.00000  Uiso   1.00
H668   H     0.08942   0.08781   0.66908   0.00000  Uiso   1.00
H669   H     0.02802   0.06920   0.68231   0.00000  Uiso   1.00
O670   O     0.24756   0.07047   0.92059   0.00000  Uiso   1.00
C671   C     0.27773   0.08005   0.86727   0.00000  Uiso   1.00
H672   H     0.29041   0.11320   0.86315   0.00000  Uiso   1.00
H673   H     0.25948   0.07255   0.83763   0.00000  Uiso   1.00
H674   H     0.30994   0.06004   0.85707   0.00000  Uiso   1.00
N675   N     0.07579   0.17952   0.58203   0.00000  Uiso   1.00
O676   O     0.07672   0.14588   0.60936   0.00000  Uiso   1.00
O677   O     0.05001   0.21097   0.60720   0.00000  Uiso   1.00
N678   N     0.25253   0.29226   0.68160   0.00000  Uiso   1.00
O679   O     0.24919   0.26233   0.64912   0.00000  Uiso   1.00
O680   O     0.29466   0.30770   0.67615   0.00000  Uiso   1.00
O681   O     0.46179   0.22775   0.75000   0.00000  Uiso   1.00
O682   O     0.53823   0.22774   0.75000   0.00000  Uiso   1.00
C683   C     0.50065   0.24660   0.74844   0.00000  Uiso   1.00
O684   O     0.44280   0.16666   0.82681   0.00000  Uiso   1.00
O685   O     0.51924   0.16665   0.82681   0.00000  Uiso   1.00
C686   C     0.47330   0.16564   0.85218   0.00000  Uiso   1.00
Zn687  Zn    0.44896   0.16667   0.75000   0.00000  Uiso   1.00
Zn688  Zn    0.55104   0.16666   0.75000   0.00000  Uiso   1.00
O689   O     0.46177   0.10559   0.75000   0.00000  Uiso   1.00
O690   O     0.53821   0.10558   0.75000   0.00000  Uiso   1.00
O691   O     0.48076   0.16668   0.67319   0.00000  Uiso   1.00
O692   O     0.55720   0.16667   0.67319   0.00000  Uiso   1.00
C693   C     0.49988   0.08676   0.74993   0.00000  Uiso   1.00
C694   C     0.52655   0.16632   0.64783   0.00000  Uiso   1.00
C695   C     0.58052   0.11100   0.51608   0.00000  Uiso   1.00
H696   H     0.60111   0.11807   0.58679   0.00000  Uiso   1.00
H697   H     0.60854   0.08854   0.99784   0.00000  Uiso   1.00
C698   C     0.54203   0.15823   0.58986   0.00000  Uiso   1.00
C699   C     0.41475   0.18883   0.93889   0.00000  Uiso   1.00
C700   C     0.40079   0.19418   0.99475   0.00000  Uiso   1.00
C701   C     0.42908   0.17896   0.52368   0.00000  Uiso   1.00
C702   C     0.47326   0.15849   0.99492   0.00000  Uiso   1.00
C703   C     0.48214   0.14670   0.94041   0.00000  Uiso   1.00
C704   C     0.50953   0.14996   0.51725   0.00000  Uiso   1.00
C705   C     0.54638   0.12090   0.99160   0.00000  Uiso   1.00
C706   C     0.54890   0.10274   0.94184   0.00000  Uiso   1.00
C707   C     0.51723   0.11637   0.91612   0.00000  Uiso   1.00
C708   C     0.51160   0.17133   0.56297   0.00000  Uiso   1.00
C709   C     0.57754   0.12882   0.56586   0.00000  Uiso   1.00
C710   C     0.45549   0.16546   0.91145   0.00000  Uiso   1.00
H711   H     0.48785   0.19702   0.58030   0.00000  Uiso   1.00
H712   H     0.39367   0.20303   0.91706   0.00000  Uiso   1.00
H713   H     0.36749   0.21007   0.51568   0.00000  Uiso   1.00
H714   H     0.51909   0.10222   0.87780   0.00000  Uiso   1.00
C715   C     0.54342   0.31280   0.71615   0.00000  Uiso   1.00
C716   C     0.54259   0.02255   0.71879   0.00000  Uiso   1.00
H717   H     0.57428   0.04040   0.69601   0.00000  Uiso   1.00
C718   C     0.50026   0.04269   0.74861   0.00000  Uiso   1.00
C719   C     0.45851   0.02086   0.77673   0.00000  Uiso   1.00
H720   H     0.42594   0.03686   0.80020   0.00000  Uiso   1.00
C721   C     0.45913   0.31140   0.77568   0.00000  Uiso   1.00
H722   H     0.42692   0.29436   0.79880   0.00000  Uiso   1.00
C723   C     0.50138   0.29082   0.74603   0.00000  Uiso   1.00
C724   C     0.64298   0.13018   0.74684   0.00000  Uiso   1.00
H725   H     0.62487   0.10094   0.74547   0.00000  Uiso   1.00
C726   C     0.35754   0.12984   0.74663   0.00000  Uiso   1.00
N727   N     0.38093   0.16668   0.75002   0.00000  Uiso   1.00
C728   C     0.35687   0.20330   0.75247   0.00000  Uiso   1.00
H729   H     0.37427   0.23276   0.75467   0.00000  Uiso   1.00
C730   C     0.64240   0.20327   0.75257   0.00000  Uiso   1.00
H731   H     0.62423   0.23270   0.75480   0.00000  Uiso   1.00
N732   N     0.61906   0.16665   0.75000   0.00000  Uiso   1.00
O733   O     0.37809   0.09187   0.74971   0.00000  Uiso   1.00
C734   C     0.39137   0.07173   0.69863   0.00000  Uiso   1.00
H735   H     0.40252   0.03940   0.70343   0.00000  Uiso   1.00
H736   H     0.42275   0.08781   0.66908   0.00000  Uiso   1.00
H737   H     0.36135   0.06920   0.68231   0.00000  Uiso   1.00
O738   O     0.58089   0.07047   0.92059   0.00000  Uiso   1.00
C739   C     0.61106   0.08005   0.86727   0.00000  Uiso   1.00
H740   H     0.62374   0.11320   0.86315   0.00000  Uiso   1.00
H741   H     0.59281   0.07255   0.83763   0.00000  Uiso   1.00
H742   H     0.64327   0.06004   0.85707   0.00000  Uiso   1.00
N743   N     0.40912   0.17952   0.58203   0.00000  Uiso   1.00
O744   O     0.41005   0.14588   0.60936   0.00000  Uiso   1.00
O745   O     0.38334   0.21097   0.60720   0.00000  Uiso   1.00
N746   N     0.58587   0.29226   0.68160   0.00000  Uiso   1.00
O747   O     0.58252   0.26233   0.64912   0.00000  Uiso   1.00
O748   O     0.62799   0.30770   0.67615   0.00000  Uiso   1.00
O749   O     0.79512   0.22775   0.75000   0.00000  Uiso   1.00
O750   O     0.87157   0.22774   0.75000   0.00000  Uiso   1.00
C751   C     0.83398   0.24660   0.74844   0.00000  Uiso   1.00
O752   O     0.77613   0.16666   0.82681   0.00000  Uiso   1.00
O753   O     0.85258   0.16665   0.82681   0.00000  Uiso   1.00
C754   C     0.80663   0.16564   0.85218   0.00000  Uiso   1.00
Zn755  Zn    0.78229   0.16667   0.75000   0.00000  Uiso   1.00
Zn756  Zn    0.88438   0.16666   0.75000   0.00000  Uiso   1.00
O757   O     0.79510   0.10559   0.75000   0.00000  Uiso   1.00
O758   O     0.87154   0.10558   0.75000   0.00000  Uiso   1.00
O759   O     0.81409   0.16668   0.67319   0.00000  Uiso   1.00
O760   O     0.89053   0.16667   0.67319   0.00000  Uiso   1.00
C761   C     0.83321   0.08676   0.74993   0.00000  Uiso   1.00
C762   C     0.85989   0.16632   0.64783   0.00000  Uiso   1.00
C763   C     0.91385   0.11100   0.51608   0.00000  Uiso   1.00
H764   H     0.93444   0.11807   0.58679   0.00000  Uiso   1.00
H765   H     0.94188   0.08854   0.99784   0.00000  Uiso   1.00
C766   C     0.87536   0.15823   0.58986   0.00000  Uiso   1.00
C767   C     0.74809   0.18883   0.93889   0.00000  Uiso   1.00
C768   C     0.73412   0.19418   0.99475   0.00000  Uiso   1.00
C769   C     0.76242   0.17896   0.52368   0.00000  Uiso   1.00
C770   C     0.80659   0.15849   0.99492   0.00000  Uiso   1.00
C771   C     0.81548   0.14670   0.94041   0.00000  Uiso   1.00
C772   C     0.84286   0.14996   0.51725   0.00000  Uiso   1.00
C773   C     0.87971   0.12090   0.99160   0.00000  Uiso   1.00
C774   C     0.88223   0.10274   0.94184   0.00000  Uiso   1.00
C775   C     0.85057   0.11637   0.91612   0.00000  Uiso   1.00
C776   C     0.84493   0.17133   0.56297   0.00000  Uiso   1.00
C777   C     0.91087   0.12882   0.56586   0.00000  Uiso   1.00
C778   C     0.78882   0.16546   0.91145   0.00000  Uiso   1.00
H779   H     0.82118   0.19702   0.58030   0.00000  Uiso   1.00
H780   H     0.72701   0.20303   0.91706   0.00000  Uiso   1.00
H781   H     0.70082   0.21007   0.51568   0.00000  Uiso   1.00
H782   H     0.85242   0.10222   0.87780   0.00000  Uiso   1.00
C783   C     0.87675   0.31280   0.71615   0.00000  Uiso   1.00
C784   C     0.87593   0.02255   0.71879   0.00000  Uiso   1.00
H785   H     0.90762   0.04040   0.69601   0.00000  Uiso   1.00
C786   C     0.83359   0.04269   0.74861   0.00000  Uiso   1.00
C787   C     0.79184   0.02086   0.77673   0.00000  Uiso   1.00
H788   H     0.75927   0.03686   0.80020   0.00000  Uiso   1.00
C789   C     0.79247   0.31140   0.77568   0.00000  Uiso   1.00
H790   H     0.76025   0.29436   0.79880   0.00000  Uiso   1.00
C791   C     0.83471   0.29082   0.74603   0.00000  Uiso   1.00
C792   C     0.97632   0.13018   0.74684   0.00000  Uiso   1.00
H793   H     0.95820   0.10094   0.74547   0.00000  Uiso   1.00
C794   C     0.69088   0.12984   0.74663   0.00000  Uiso   1.00
N795   N     0.71426   0.16668   0.75002   0.00000  Uiso   1.00
C796   C     0.69020   0.20330   0.75247   0.00000  Uiso   1.00
H797   H     0.70761   0.23276   0.75467   0.00000  Uiso   1.00
C798   C     0.97574   0.20327   0.75257   0.00000  Uiso   1.00
H799   H     0.95756   0.23270   0.75480   0.00000  Uiso   1.00
N800   N     0.95239   0.16665   0.75000   0.00000  Uiso   1.00
O801   O     0.71142   0.09187   0.74971   0.00000  Uiso   1.00
C802   C     0.72470   0.07173   0.69863   0.00000  Uiso   1.00
H803   H     0.73585   0.03940   0.70343   0.00000  Uiso   1.00
H804   H     0.75609   0.08781   0.66908   0.00000  Uiso   1.00
H805   H     0.69468   0.06920   0.68231   0.00000  Uiso   1.00
O806   O     0.91423   0.07047   0.92059   0.00000  Uiso   1.00
C807   C     0.94440   0.08005   0.86727   0.00000  Uiso   1.00
H808   H     0.95708   0.11320   0.86315   0.00000  Uiso   1.00
H809   H     0.92614   0.07255   0.83763   0.00000  Uiso   1.00
H810   H     0.97661   0.06004   0.85707   0.00000  Uiso   1.00
N811   N     0.74245   0.17952   0.58203   0.00000  Uiso   1.00
O812   O     0.74338   0.14588   0.60936   0.00000  Uiso   1.00
O813   O     0.71668   0.21097   0.60720   0.00000  Uiso   1.00
N814   N     0.91920   0.29226   0.68160   0.00000  Uiso   1.00
O815   O     0.91586   0.26233   0.64912   0.00000  Uiso   1.00
O816   O     0.96133   0.30770   0.67615   0.00000  Uiso   1.00
O817   O     0.12846   0.56108   0.75000   0.00000  Uiso   1.00
O818   O     0.20490   0.56107   0.75000   0.00000  Uiso   1.00
C819   C     0.16731   0.57993   0.74844   0.00000  Uiso   1.00
O820   O     0.10947   0.50000   0.82681   0.00000  Uiso   1.00
O821   O     0.18591   0.49999   0.82681   0.00000  Uiso   1.00
C822   C     0.13997   0.49898   0.85218   0.00000  Uiso   1.00
Zn823  Zn    0.11562   0.50001   0.75000   0.00000  Uiso   1.00
Zn824  Zn    0.21771   0.49999   0.75000   0.00000  Uiso   1.00
O825   O     0.12843   0.43893   0.75000   0.00000  Uiso   1.00
O826   O     0.20488   0.43892   0.75000   0.00000  Uiso   1.00
O827   O     0.14742   0.50001   0.67319   0.00000  Uiso   1.00
O828   O     0.22387   0.50000   0.67319   0.00000  Uiso   1.00
C829   C     0.16654   0.42009   0.74993   0.00000  Uiso   1.00
C830   C     0.19322   0.49965   0.64783   0.00000  Uiso   1.00
C831   C     0.24719   0.44434   0.51608   0.00000  Uiso   1.00
H832   H     0.26777   0.45140   0.58679   0.00000  Uiso   1.00
H833   H     0.27521   0.42188   0.99784   0.00000  Uiso   1.00
C834   C     0.20869   0.49156   0.58986   0.00000  Uiso   1.00
C835   C     0.08142   0.52216   0.93889   0.00000  Uiso   1.00
C836   C     0.06745   0.52751   0.99475   0.00000  Uiso   1.00
C837   C     0.09575   0.51229   0.52368   0.00000  Uiso   1.00
C838   C     0.13992   0.49182   0.99492   0.00000  Uiso   1.00
C839   C     0.14881   0.48004   0.94041   0.00000  Uiso   1.00
C840   C     0.17619   0.48329   0.51725   0.00000  Uiso   1.00
C841   C     0.21304   0.45424   0.99160   0.00000  Uiso   1.00
C842   C     0.21557   0.43607   0.94184   0.00000  Uiso   1.00
C843   C     0.18390   0.44970   0.91612   0.00000  Uiso   1.00
C844   C     0.17827   0.50466   0.56297   0.00000  Uiso   1.00
C845   C     0.24420   0.46216   0.56586   0.00000  Uiso   1.00
C846   C     0.12215   0.49879   0.91145   0.00000  Uiso   1.00
H847   H     0.15451   0.53035   0.58030   0.00000  Uiso   1.00
H848   H     0.06034   0.53637   0.91706   0.00000  Uiso   1.00
H849   H     0.03415   0.54340   0.51568   0.00000  Uiso   1.00
H850   H     0.18575   0.43555   0.87780   0.00000  Uiso   1.00
C851   C     0.21008   0.64614   0.71615   0.00000  Uiso   1.00
C852   C     0.20926   0.35588   0.71879   0.00000  Uiso   1.00
H853   H     0.24095   0.37373   0.69601   0.00000  Uiso   1.00
C854   C     0.16693   0.37603   0.74861   0.00000  Uiso   1.00
C855   C     0.12517   0.35419   0.77673   0.00000  Uiso   1.00
H856   H     0.09260   0.37019   0.80020   0.00000  Uiso   1.00
C857   C     0.12580   0.64474   0.77568   0.00000  Uiso   1.00
H858   H     0.09359   0.62769   0.79880   0.00000  Uiso   1.00
C859   C     0.16804   0.62415   0.74603   0.00000  Uiso   1.00
C860   C     0.30965   0.46351   0.74684   0.00000  Uiso   1.00
H861   H     0.29154   0.43428   0.74547   0.00000  Uiso   1.00
C862   C     0.02421   0.46317   0.74663   0.00000  Uiso   1.00
N863   N     0.04760   0.50001   0.75002   0.00000  Uiso   1.00
C864   C     0.02354   0.53663   0.75247   0.00000  Uiso   1.00
H865   H     0.04094   0.56609   0.75467   0.00000  Uiso   1.00
C866   C     0.30907   0.53660   0.75257   0.00000  Uiso   1.00
H867   H     0.29090   0.56603   0.75480   0.00000  Uiso   1.00
N868   N     0.28573   0.49998   0.75000   0.00000  Uiso   1.00
O869   O     0.04476   0.42521   0.74971   0.00000  Uiso   1.00
C870   C     0.05803   0.40507   0.69863   0.00000  Uiso   1.00
H871   H     0.06918   0.37274   0.70343   0.00000  Uiso   1.00
H872   H     0.08942   0.42114   0.66908   0.00000  Uiso   1.00
H873   H     0.02802   0.40254   0.68231   0.00000  Uiso   1.00
O874   O     0.24756   0.40380   0.92059   0.00000  Uiso   1.00
C875   C     0.27773   0.41338   0.86727   0.00000  Uiso   1.00
H876   H     0.29041   0.44653   0.86315   0.00000  Uiso   1.00
H877   H     0.25948   0.40588   0.83763   0.00000  Uiso   1.00
H878   H     0.30994   0.39337   0.85707   0.00000  Uiso   1.00
N879   N     0.07579   0.51285   0.58203   0.00000  Uiso   1.00
O880   O     0.07672   0.47922   0.60936   0.00000  Uiso   1.00
O881   O     0.05001   0.54430   0.60720   0.00000  Uiso   1.00
N882   N     0.25253   0.62559   0.68160   0.00000  Uiso   1.00
O883   O     0.24919   0.59566   0.64912   0.00000  Uiso   1.00
O884   O     0.29466   0.64103   0.67615   0.00000  Uiso   1.00
O885   O     0.46179   0.56108   0.75000   0.00000  Uiso   1.00
O886   O     0.53823   0.56107   0.75000   0.00000  Uiso   1.00
C887   C     0.50065   0.57993   0.74844   0.00000  Uiso   1.00
O888   O     0.44280   0.50000   0.82681   0.00000  Uiso   1.00
O889   O     0.51924   0.49999   0.82681   0.00000  Uiso   1.00
C890   C     0.47330   0.49898   0.85218   0.00000  Uiso   1.00
Zn891  Zn    0.44896   0.50001   0.75000   0.00000  Uiso   1.00
Zn892  Zn    0.55104   0.49999   0.75000   0.00000  Uiso   1.00
O893   O     0.46177   0.43893   0.75000   0.00000  Uiso   1.00
O894   O     0.53821   0.43892   0.75000   0.00000  Uiso   1.00
O895   O     0.48076   0.50001   0.67319   0.00000  Uiso   1.00
O896   O     0.55720   0.50000   0.67319   0.00000  Uiso   1.00
C897   C     0.49988   0.42009   0.74993   0.00000  Uiso   1.00
C898   C     0.52655   0.49965   0.64783   0.00000  Uiso   1.00
C899   C     0.58052   0.44434   0.51608   0.00000  Uiso   1.00
H900   H     0.60111   0.45140   0.58679   0.00000  Uiso   1.00
H901   H     0.60854   0.42188   0.99784   0.00000  Uiso   1.00
C902   C     0.54203   0.49156   0.58986   0.00000  Uiso   1.00
C903   C     0.41475   0.52216   0.93889   0.00000  Uiso   1.00
C904   C     0.40079   0.52751   0.99475   0.00000  Uiso   1.00
C905   C     0.42908   0.51229   0.52368   0.00000  Uiso   1.00
C906   C     0.47326   0.49182   0.99492   0.00000  Uiso   1.00
C907   C     0.48214   0.48004   0.94041   0.00000  Uiso   1.00
C908   C     0.50953   0.48329   0.51725   0.00000  Uiso   1.00
C909   C     0.54638   0.45424   0.99160   0.00000  Uiso   1.00
C910   C     0.54890   0.43607   0.94184   0.00000  Uiso   1.00
C911   C     0.51723   0.44970   0.91612   0.00000  Uiso   1.00
C912   C     0.51160   0.50466   0.56297   0.00000  Uiso   1.00
C913   C     0.57754   0.46216   0.56586   0.00000  Uiso   1.00
C914   C     0.45549   0.49879   0.91145   0.00000  Uiso   1.00
H915   H     0.48785   0.53035   0.58030   0.00000  Uiso   1.00
H916   H     0.39367   0.53637   0.91706   0.00000  Uiso   1.00
H917   H     0.36749   0.54340   0.51568   0.00000  Uiso   1.00
H918   H     0.51909   0.43555   0.87780   0.00000  Uiso   1.00
C919   C     0.54342   0.64614   0.71615   0.00000  Uiso   1.00
C920   C     0.54259   0.35588   0.71879   0.00000  Uiso   1.00
H921   H     0.57428   0.37373   0.69601   0.00000  Uiso   1.00
C922   C     0.50026   0.37603   0.74861   0.00000  Uiso   1.00
C923   C     0.45851   0.35419   0.77673   0.00000  Uiso   1.00
H924   H     0.42594   0.37019   0.80020   0.00000  Uiso   1.00
C925   C     0.45913   0.64474   0.77568   0.00000  Uiso   1.00
H926   H     0.42692   0.62769   0.79880   0.00000  Uiso   1.00
C927   C     0.50138   0.62415   0.74603   0.00000  Uiso   1.00
C928   C     0.64298   0.46351   0.74684   0.00000  Uiso   1.00
H929   H     0.62487   0.43428   0.74547   0.00000  Uiso   1.00
C930   C     0.35754   0.46317   0.74663   0.00000  Uiso   1.00
N931   N     0.38093   0.50001   0.75002   0.00000  Uiso   1.00
C932   C     0.35687   0.53663   0.75247   0.00000  Uiso   1.00
H933   H     0.37427   0.56609   0.75467   0.00000  Uiso   1.00
C934   C     0.64240   0.53660   0.75257   0.00000  Uiso   1.00
H935   H     0.62423   0.56603   0.75480   0.00000  Uiso   1.00
N936   N     0.61906   0.49998   0.75000   0.00000  Uiso   1.00
O937   O     0.37809   0.42521   0.74971   0.00000  Uiso   1.00
C938   C     0.39137   0.40507   0.69863   0.00000  Uiso   1.00
H939   H     0.40252   0.37274   0.70343   0.00000  Uiso   1.00
H940   H     0.42275   0.42114   0.66908   0.00000  Uiso   1.00
H941   H     0.36135   0.40254   0.68231   0.00000  Uiso   1.00
O942   O     0.58089   0.40380   0.92059   0.00000  Uiso   1.00
C943   C     0.61106   0.41338   0.86727   0.00000  Uiso   1.00
H944   H     0.62374   0.44653   0.86315   0.00000  Uiso   1.00
H945   H     0.59281   0.40588   0.83763   0.00000  Uiso   1.00
H946   H     0.64327   0.39337   0.85707   0.00000  Uiso   1.00
N947   N     0.40912   0.51285   0.58203   0.00000  Uiso   1.00
O948   O     0.41005   0.47922   0.60936   0.00000  Uiso   1.00
O949   O     0.38334   0.54430   0.60720   0.00000  Uiso   1.00
N950   N     0.58587   0.62559   0.68160   0.00000  Uiso   1.00
O951   O     0.58252   0.59566   0.64912   0.00000  Uiso   1.00
O952   O     0.62799   0.64103   0.67615   0.00000  Uiso   1.00
O953   O     0.79512   0.56108   0.75000   0.00000  Uiso   1.00
O954   O     0.87157   0.56107   0.75000   0.00000  Uiso   1.00
C955   C     0.83398   0.57993   0.74844   0.00000  Uiso   1.00
O956   O     0.77613   0.50000   0.82681   0.00000  Uiso   1.00
O957   O     0.85258   0.49999   0.82681   0.00000  Uiso   1.00
C958   C     0.80663   0.49898   0.85218   0.00000  Uiso   1.00
Zn959  Zn    0.78229   0.50001   0.75000   0.00000  Uiso   1.00
Zn960  Zn    0.88438   0.49999   0.75000   0.00000  Uiso   1.00
O961   O     0.79510   0.43893   0.75000   0.00000  Uiso   1.00
O962   O     0.87154   0.43892   0.75000   0.00000  Uiso   1.00
O963   O     0.81409   0.50001   0.67319   0.00000  Uiso   1.00
O964   O     0.89053   0.50000   0.67319   0.00000  Uiso   1.00
C965   C     0.83321   0.42009   0.74993   0.00000  Uiso   1.00
C966   C     0.85989   0.49965   0.64783   0.00000  Uiso   1.00
C967   C     0.91385   0.44434   0.51608   0.00000  Uiso   1.00
H968   H     0.93444   0.45140   0.58679   0.00000  Uiso   1.00
H969   H     0.94188   0.42188   0.99784   0.00000  Uiso   1.00
C970   C     0.87536   0.49156   0.58986   0.00000  Uiso   1.00
C971   C     0.74809   0.52216   0.93889   0.00000  Uiso   1.00
C972   C     0.73412   0.52751   0.99475   0.00000  Uiso   1.00
C973   C     0.76242   0.51229   0.52368   0.00000  Uiso   1.00
C974   C     0.80659   0.49182   0.99492   0.00000  Uiso   1.00
C975   C     0.81548   0.48004   0.94041   0.00000  Uiso   1.00
C976   C     0.84286   0.48329   0.51725   0.00000  Uiso   1.00
C977   C     0.87971   0.45424   0.99160   0.00000  Uiso   1.00
C978   C     0.88223   0.43607   0.94184   0.00000  Uiso   1.00
C979   C     0.85057   0.44970   0.91612   0.00000  Uiso   1.00
C980   C     0.84493   0.50466   0.56297   0.00000  Uiso   1.00
C981   C     0.91087   0.46216   0.56586   0.00000  Uiso   1.00
C982   C     0.78882   0.49879   0.91145   0.00000  Uiso   1.00
H983   H     0.82118   0.53035   0.58030   0.00000  Uiso   1.00
H984   H     0.72701   0.53637   0.91706   0.00000  Uiso   1.00
H985   H     0.70082   0.54340   0.51568   0.00000  Uiso   1.00
H986   H     0.85242   0.43555   0.87780   0.00000  Uiso   1.00
C987   C     0.87675   0.64614   0.71615   0.00000  Uiso   1.00
C988   C     0.87593   0.35588   0.71879   0.00000  Uiso   1.00
H989   H     0.90762   0.37373   0.69601   0.00000  Uiso   1.00
C990   C     0.83359   0.37603   0.74861   0.00000  Uiso   1.00
C991   C     0.79184   0.35419   0.77673   0.00000  Uiso   1.00
H992   H     0.75927   0.37019   0.80020   0.00000  Uiso   1.00
C993   C     0.79247   0.64474   0.77568   0.00000  Uiso   1.00
H994   H     0.76025   0.62769   0.79880   0.00000  Uiso   1.00
C995   C     0.83471   0.62415   0.74603   0.00000  Uiso   1.00
C996   C     0.97632   0.46351   0.74684   0.00000  Uiso   1.00
H997   H     0.95820   0.43428   0.74547   0.00000  Uiso   1.00
C998   C     0.69088   0.46317   0.74663   0.00000  Uiso   1.00
N999   N     0.71426   0.50001   0.75002   0.00000  Uiso   1.00
C1000  C     0.69020   0.53663   0.75247   0.00000  Uiso   1.00
H1001  H     0.70761   0.56609   0.75467   0.00000  Uiso   1.00
C1002  C     0.97574   0.53660   0.75257   0.00000  Uiso   1.00
H1003  H     0.95756   0.56603   0.75480   0.00000  Uiso   1.00
N1004  N     0.95239   0.49998   0.75000   0.00000  Uiso   1.00
O1005  O     0.71142   0.42521   0.74971   0.00000  Uiso   1.00
C1006  C     0.72470   0.40507   0.69863   0.00000  Uiso   1.00
H1007  H     0.73585   0.37274   0.70343   0.00000  Uiso   1.00
H1008  H     0.75609   0.42114   0.66908   0.00000  Uiso   1.00
H1009  H     0.69468   0.40254   0.68231   0.00000  Uiso   1.00
O1010  O     0.91423   0.40380   0.92059   0.00000  Uiso   1.00
C1011  C     0.94440   0.41338   0.86727   0.00000  Uiso   1.00
H1012  H     0.95708   0.44653   0.86315   0.00000  Uiso   1.00
H1013  H     0.92614   0.40588   0.83763   0.00000  Uiso   1.00
H1014  H     0.97661   0.39337   0.85707   0.00000  Uiso   1.00
N1015  N     0.74245   0.51285   0.58203   0.00000  Uiso   1.00
O1016  O     0.74338   0.47922   0.60936   0.00000  Uiso   1.00
O1017  O     0.71668   0.54430   0.60720   0.00000  Uiso   1.00
N1018  N     0.91920   0.62559   0.68160   0.00000  Uiso   1.00
O1019  O     0.91586   0.59566   0.64912   0.00000  Uiso   1.00
O1020  O     0.96133   0.64103   0.67615   0.00000  Uiso   1.00
O1021  O     0.12846   0.89442   0.75000   0.00000  Uiso   1.00
O1022  O     0.20490   0.89441   0.75000   0.00000  Uiso   1.00
C1023  C     0.16731   0.91327   0.74844   0.00000  Uiso   1.00
O1024  O     0.10947   0.83333   0.82681   0.00000  Uiso   1.00
O1025  O     0.18591   0.83332   0.82681   0.00000  Uiso   1.00
C1026  C     0.13997   0.83231   0.85218   0.00000  Uiso   1.00
Zn1027 Zn    0.11562   0.83334   0.75000   0.00000  Uiso   1.00
Zn1028 Zn    0.21771   0.83333   0.75000   0.00000  Uiso   1.00
O1029  O     0.12843   0.77226   0.75000   0.00000  Uiso   1.00
O1030  O     0.20488   0.77225   0.75000   0.00000  Uiso   1.00
O1031  O     0.14742   0.83335   0.67319   0.00000  Uiso   1.00
O1032  O     0.22387   0.83334   0.67319   0.00000  Uiso   1.00
C1033  C     0.16654   0.75342   0.74993   0.00000  Uiso   1.00
C1034  C     0.19322   0.83298   0.64783   0.00000  Uiso   1.00
C1035  C     0.24719   0.77767   0.51608   0.00000  Uiso   1.00
H1036  H     0.26777   0.78473   0.58679   0.00000  Uiso   1.00
H1037  H     0.27521   0.75521   0.99784   0.00000  Uiso   1.00
C1038  C     0.20869   0.82489   0.58986   0.00000  Uiso   1.00
C1039  C     0.08142   0.85550   0.93889   0.00000  Uiso   1.00
C1040  C     0.06745   0.86085   0.99475   0.00000  Uiso   1.00
C1041  C     0.09575   0.84562   0.52368   0.00000  Uiso   1.00
C1042  C     0.13992   0.82515   0.99492   0.00000  Uiso   1.00
C1043  C     0.14881   0.81337   0.94041   0.00000  Uiso   1.00
C1044  C     0.17619   0.81663   0.51725   0.00000  Uiso   1.00
C1045  C     0.21304   0.78757   0.99160   0.00000  Uiso   1.00
C1046  C     0.21557   0.76941   0.94184   0.00000  Uiso   1.00
C1047  C     0.18390   0.78303   0.91612   0.00000  Uiso   1.00
C1048  C     0.17827   0.83799   0.56297   0.00000  Uiso   1.00
C1049  C     0.24420   0.79549   0.56586   0.00000  Uiso   1.00
C1050  C     0.12215   0.83213   0.91145   0.00000  Uiso   1.00
H1051  H     0.15451   0.86369   0.58030   0.00000  Uiso   1.00
H1052  H     0.06034   0.86970   0.91706   0.00000  Uiso   1.00
H1053  H     0.03415   0.87673   0.51568   0.00000  Uiso   1.00
H1054  H     0.18575   0.76889   0.87780   0.00000  Uiso   1.00
C1055  C     0.21008   0.97947   0.71615   0.00000  Uiso   1.00
C1056  C     0.20926   0.68921   0.71879   0.00000  Uiso   1.00
H1057  H     0.24095   0.70706   0.69601   0.00000  Uiso   1.00
C1058  C     0.16693   0.70936   0.74861   0.00000  Uiso   1.00
C1059  C     0.12517   0.68753   0.77673   0.00000  Uiso   1.00
H1060  H     0.09260   0.70352   0.80020   0.00000  Uiso   1.00
C1061  C     0.12580   0.97807   0.77568   0.00000  Uiso   1.00
H1062  H     0.09359   0.96103   0.79880   0.00000  Uiso   1.00
C1063  C     0.16804   0.95749   0.74603   0.00000  Uiso   1.00
C1064  C     0.30965   0.79685   0.74684   0.00000  Uiso   1.00
H1065  H     0.29154   0.76761   0.74547   0.00000  Uiso   1.00
C1066  C     0.02421   0.79650   0.74663   0.00000  Uiso   1.00
N1067  N     0.04760   0.83334   0.75002   0.00000  Uiso   1.00
C1068  C     0.02354   0.86996   0.75247   0.00000  Uiso   1.00
H1069  H     0.04094   0.89943   0.75467   0.00000  Uiso   1.00
C1070  C     0.30907   0.86993   0.75257   0.00000  Uiso   1.00
H1071  H     0.29090   0.89937   0.75480   0.00000  Uiso   1.00
N1072  N     0.28573   0.83331   0.75000   0.00000  Uiso   1.00
O1073  O     0.04476   0.75854   0.74971   0.00000  Uiso   1.00
C1074  C     0.05803   0.73840   0.69863   0.00000  Uiso   1.00
H1075  H     0.06918   0.70607   0.70343   0.00000  Uiso   1.00
H1076  H     0.08942   0.75447   0.66908   0.00000  Uiso   1.00
H1077  H     0.02802   0.73587   0.68231   0.00000  Uiso   1.00
O1078  O     0.24756   0.73714   0.92059   0.00000  Uiso   1.00
C1079  C     0.27773   0.74671   0.86727   0.00000  Uiso   1.00
H1080  H     0.29041   0.77987   0.86315   0.00000  Uiso   1.00
H1081  H     0.25948   0.73922   0.83763   0.00000  Uiso   1.00
H1082  H     0.30994   0.72671   0.85707   0.00000  Uiso   1.00
N1083  N     0.07579   0.84619   0.58203   0.00000  Uiso   1.00
O1084  O     0.07672   0.81255   0.60936   0.00000  Uiso   1.00
O1085  O     0.05001   0.87764   0.60720   0.00000  Uiso   1.00
N1086  N     0.25253   0.95892   0.68160   0.00000  Uiso   1.00
O1087  O     0.24919   0.92899   0.64912   0.00000  Uiso   1.00
O1088  O     0.29466   0.97436   0.67615   0.00000  Uiso   1.00
O1089  O     0.46179   0.89442   0.75000   0.00000  Uiso   1.00
O1090  O     0.53823   0.89441   0.75000   0.00000  Uiso   1.00
C1091  C     0.50065   0.91327   0.74844   0.00000  Uiso   1.00
O1092  O     0.44280   0.83333   0.82681   0.00000  Uiso   1.00
O1093  O     0.51924   0.83332   0.82681   0.00000  Uiso   1.00
C1094  C     0.47330   0.83231   0.85218   0.00000  Uiso   1.00
Zn1095 Zn    0.44896   0.83334   0.75000   0.00000  Uiso   1.00
Zn1096 Zn    0.55104   0.83333   0.75000   0.00000  Uiso   1.00
O1097  O     0.46177   0.77226   0.75000   0.00000  Uiso   1.00
O1098  O     0.53821   0.77225   0.75000   0.00000  Uiso   1.00
O1099  O     0.48076   0.83335   0.67319   0.00000  Uiso   1.00
O1100  O     0.55720   0.83334   0.67319   0.00000  Uiso   1.00
C1101  C     0.49988   0.75342   0.74993   0.00000  Uiso   1.00
C1102  C     0.52655   0.83298   0.64783   0.00000  Uiso   1.00
C1103  C     0.58052   0.77767   0.51608   0.00000  Uiso   1.00
H1104  H     0.60111   0.78473   0.58679   0.00000  Uiso   1.00
H1105  H     0.60854   0.75521   0.99784   0.00000  Uiso   1.00
C1106  C     0.54203   0.82489   0.58986   0.00000  Uiso   1.00
C1107  C     0.41475   0.85550   0.93889   0.00000  Uiso   1.00
C1108  C     0.40079   0.86085   0.99475   0.00000  Uiso   1.00
C1109  C     0.42908   0.84562   0.52368   0.00000  Uiso   1.00
C1110  C     0.47326   0.82515   0.99492   0.00000  Uiso   1.00
C1111  C     0.48214   0.81337   0.94041   0.00000  Uiso   1.00
C1112  C     0.50953   0.81663   0.51725   0.00000  Uiso   1.00
C1113  C     0.54638   0.78757   0.99160   0.00000  Uiso   1.00
C1114  C     0.54890   0.76941   0.94184   0.00000  Uiso   1.00
C1115  C     0.51723   0.78303   0.91612   0.00000  Uiso   1.00
C1116  C     0.51160   0.83799   0.56297   0.00000  Uiso   1.00
C1117  C     0.57754   0.79549   0.56586   0.00000  Uiso   1.00
C1118  C     0.45549   0.83213   0.91145   0.00000  Uiso   1.00
H1119  H     0.48785   0.86369   0.58030   0.00000  Uiso   1.00
H1120  H     0.39367   0.86970   0.91706   0.00000  Uiso   1.00
H1121  H     0.36749   0.87673   0.51568   0.00000  Uiso   1.00
H1122  H     0.51909   0.76889   0.87780   0.00000  Uiso   1.00
C1123  C     0.54342   0.97947   0.71615   0.00000  Uiso   1.00
C1124  C     0.54259   0.68921   0.71879   0.00000  Uiso   1.00
H1125  H     0.57428   0.70706   0.69601   0.00000  Uiso   1.00
C1126  C     0.50026   0.70936   0.74861   0.00000  Uiso   1.00
C1127  C     0.45851   0.68753   0.77673   0.00000  Uiso   1.00
H1128  H     0.42594   0.70352   0.80020   0.00000  Uiso   1.00
C1129  C     0.45913   0.97807   0.77568   0.00000  Uiso   1.00
H1130  H     0.42692   0.96103   0.79880   0.00000  Uiso   1.00
C1131  C     0.50138   0.95749   0.74603   0.00000  Uiso   1.00
C1132  C     0.64298   0.79685   0.74684   0.00000  Uiso   1.00
H1133  H     0.62487   0.76761   0.74547   0.00000  Uiso   1.00
C1134  C     0.35754   0.79650   0.74663   0.00000  Uiso   1.00
N1135  N     0.38093   0.83334   0.75002   0.00000  Uiso   1.00
C1136  C     0.35687   0.86996   0.75247   0.00000  Uiso   1.00
H1137  H     0.37427   0.89943   0.75467   0.00000  Uiso   1.00
C1138  C     0.64240   0.86993   0.75257   0.00000  Uiso   1.00
H1139  H     0.62423   0.89937   0.75480   0.00000  Uiso   1.00
N1140  N     0.61906   0.83331   0.75000   0.00000  Uiso   1.00
O1141  O     0.37809   0.75854   0.74971   0.00000  Uiso   1.00
C1142  C     0.39137   0.73840   0.69863   0.00000  Uiso   1.00
H1143  H     0.40252   0.70607   0.70343   0.00000  Uiso   1.00
H1144  H     0.42275   0.75447   0.66908   0.00000  Uiso   1.00
H1145  H     0.36135   0.73587   0.68231   0.00000  Uiso   1.00
O1146  O     0.58089   0.73714   0.92059   0.00000  Uiso   1.00
C1147  C     0.61106   0.74671   0.86727   0.00000  Uiso   1.00
H1148  H     0.62374   0.77987   0.86315   0.00000  Uiso   1.00
H1149  H     0.59281   0.73922   0.83763   0.00000  Uiso   1.00
H1150  H     0.64327   0.72671   0.85707   0.00000  Uiso   1.00
N1151  N     0.40912   0.84619   0.58203   0.00000  Uiso   1.00
O1152  O     0.41005   0.81255   0.60936   0.00000  Uiso   1.00
O1153  O     0.38334   0.87764   0.60720   0.00000  Uiso   1.00
N1154  N     0.58587   0.95892   0.68160   0.00000  Uiso   1.00
O1155  O     0.58252   0.92899   0.64912   0.00000  Uiso   1.00
O1156  O     0.62799   0.97436   0.67615   0.00000  Uiso   1.00
O1157  O     0.79512   0.89442   0.75000   0.00000  Uiso   1.00
O1158  O     0.87157   0.89441   0.75000   0.00000  Uiso   1.00
C1159  C     0.83398   0.91327   0.74844   0.00000  Uiso   1.00
O1160  O     0.77613   0.83333   0.82681   0.00000  Uiso   1.00
O1161  O     0.85258   0.83332   0.82681   0.00000  Uiso   1.00
C1162  C     0.80663   0.83231   0.85218   0.00000  Uiso   1.00
Zn1163 Zn    0.78229   0.83334   0.75000   0.00000  Uiso   1.00
Zn1164 Zn    0.88438   0.83333   0.75000   0.00000  Uiso   1.00
O1165  O     0.79510   0.77226   0.75000   0.00000  Uiso   1.00
O1166  O     0.87154   0.77225   0.75000   0.00000  Uiso   1.00
O1167  O     0.81409   0.83335   0.67319   0.00000  Uiso   1.00
O1168  O     0.89053   0.83334   0.67319   0.00000  Uiso   1.00
C1169  C     0.83321   0.75342   0.74993   0.00000  Uiso   1.00
C1170  C     0.85989   0.83298   0.64783   0.00000  Uiso   1.00
C1171  C     0.91385   0.77767   0.51608   0.00000  Uiso   1.00
H1172  H     0.93444   0.78473   0.58679   0.00000  Uiso   1.00
H1173  H     0.94188   0.75521   0.99784   0.00000  Uiso   1.00
C1174  C     0.87536   0.82489   0.58986   0.00000  Uiso   1.00
C1175  C     0.74809   0.85550   0.93889   0.00000  Uiso   1.00
C1176  C     0.73412   0.86085   0.99475   0.00000  Uiso   1.00
C1177  C     0.76242   0.84562   0.52368   0.00000  Uiso   1.00
C1178  C     0.80659   0.82515   0.99492   0.00000  Uiso   1.00
C1179  C     0.81548   0.81337   0.94041   0.00000  Uiso   1.00
C1180  C     0.84286   0.81663   0.51725   0.00000  Uiso   1.00
C1181  C     0.87971   0.78757   0.99160   0.00000  Uiso   1.00
C1182  C     0.88223   0.76941   0.94184   0.00000  Uiso   1.00
C1183  C     0.85057   0.78303   0.91612   0.00000  Uiso   1.00
C1184  C     0.84493   0.83799   0.56297   0.00000  Uiso   1.00
C1185  C     0.91087   0.79549   0.56586   0.00000  Uiso   1.00
C1186  C     0.78882   0.83213   0.91145   0.00000  Uiso   1.00
H1187  H     0.82118   0.86369   0.58030   0.00000  Uiso   1.00
H1188  H     0.72701   0.86970   0.91706   0.00000  Uiso   1.00
H1189  H     0.70082   0.87673   0.51568   0.00000  Uiso   1.00
H1190  H     0.85242   0.76889   0.87780   0.00000  Uiso   1.00
C1191  C     0.87675   0.97947   0.71615   0.00000  Uiso   1.00
C1192  C     0.87593   0.68921   0.71879   0.00000  Uiso   1.00
H1193  H     0.90762   0.70706   0.69601   0.00000  Uiso   1.00
C1194  C     0.83359   0.70936   0.74861   0.00000  Uiso   1.00
C1195  C     0.79184   0.68753   0.77673   0.00000  Uiso   1.00
H1196  H     0.75927   0.70352   0.80020   0.00000  Uiso   1.00
C1197  C     0.79247   0.97807   0.77568   0.00000  Uiso   1.00
H1198  H     0.76025   0.96103   0.79880   0.00000  Uiso   1.00
C1199  C     0.83471   0.95749   0.74603   0.00000  Uiso   1.00
C1200  C     0.97632   0.79685   0.74684   0.00000  Uiso   1.00
H1201  H     0.95820   0.76761   0.74547   0.00000  Uiso   1.00
C1202  C     0.69088   0.79650   0.74663   0.00000  Uiso   1.00
N1203  N     0.71426   0.83334   0.75002   0.00000  Uiso   1.00
C1204  C     0.69020   0.86996   0.75247   0.00000  Uiso   1.00
H1205  H     0.70761   0.89943   0.75467   0.00000  Uiso   1.00
C1206  C     0.97574   0.86993   0.75257   0.00000  Uiso   1.00
H1207  H     0.95756   0.89937   0.75480   0.00000  Uiso   1.00
N1208  N     0.95239   0.83331   0.75000   0.00000  Uiso   1.00
O1209  O     0.71142   0.75854   0.74971   0.00000  Uiso   1.00
C1210  C     0.72470   0.73840   0.69863   0.00000  Uiso   1.00
H1211  H     0.73585   0.70607   0.70343   0.00000  Uiso   1.00
H1212  H     0.75609   0.75447   0.66908   0.00000  Uiso   1.00
H1213  H     0.69468   0.73587   0.68231   0.00000  Uiso   1.00
O1214  O     0.91423   0.73714   0.92059   0.00000  Uiso   1.00
C1215  C     0.94440   0.74671   0.86727   0.00000  Uiso   1.00
H1216  H     0.95708   0.77987   0.86315   0.00000  Uiso   1.00
H1217  H     0.92614   0.73922   0.83763   0.00000  Uiso   1.00
H1218  H     0.97661   0.72671   0.85707   0.00000  Uiso   1.00
N1219  N     0.74245   0.84619   0.58203   0.00000  Uiso   1.00
O1220  O     0.74338   0.81255   0.60936   0.00000  Uiso   1.00
O1221  O     0.71668   0.87764   0.60720   0.00000  Uiso   1.00
N1222  N     0.91920   0.95892   0.68160   0.00000  Uiso   1.00
O1223  O     0.91586   0.92899   0.64912   0.00000  Uiso   1.00
O1224  O     0.96133   0.97436   0.67615   0.00000  Uiso   1.00
loop_
_geom_bond_atom_site_label_1
_geom_bond_atom_site_label_2
_geom_bond_distance
_geom_bond_site_symmetry_2
_ccdc_geom_bond_type
O1     C3      1.284   .     A
O1     Zn7     1.986   .     S
O2     C3      1.286   .     A
O2     Zn8     1.993   .     S
C3     C43     1.415   .     S
O4     Zn7     1.953   .     S
O4     C6      1.292   .     A
O5     Zn8     1.906   .     S
O5     C6      1.297   .     A
C6     C30     1.457   .     S
Zn7    O11     1.906   .     S
Zn7    O9      1.993   .     S
Zn7    N47     2.018   .     S
Zn8    O12     1.953   .     S
Zn8    O10     1.986   .     S
Zn8    N52     2.018   .     S
O9     C13     1.286   .     A
O10    C13     1.282   .     A
O11    C14     1.294   .     A
O12    C14     1.295   .     A
C13    C38     1.409   .     S
C14    C18     1.449   .     S
C15    C29     1.393   .     A
C15    H629    1.083   1_554 S
C15    C637    1.409   1_554 S
H16    C29     1.083   .     S
H17    C627    1.083   .     S
C18    C29     1.397   .     A
C18    C28     1.388   .     A
C19    C30     1.399   .     A
C19    H32     1.084   .     S
C19    C20     1.386   .     A
C20    C633    1.399   .     S
C20    H645    1.083   .     S
C21    N63     1.436   .     S
C21    C632    1.399   1_554 S
C21    C634    1.433   1_554 S
C22    C23     1.408   .     A
C22    C633    1.433   .     S
C22    C636    1.417   .     S
C23    C27     1.411   .     A
C23    C30     1.407   .     A
C24    C28     1.393   .     A
C24    C634    1.417   1_554 S
C24    C637    1.422   1_554 S
C25    C26     1.401   .     A
C25    C627    1.409   .     S
C25    C636    1.422   .     S
C26    C27     1.402   .     A
C26    O58     1.389   .     S
C27    H34     1.082   .     S
C28    H31     1.081   .     S
H33    C632    1.083   1_554 S
C35    C43     1.409   .     A
C35    N66     1.439   .     S
C35    C240    1.379   .     S
C36    C38     1.395   .     A
C36    H37     1.085   .     S
C36    C443    1.379   1_545 S
C38    C39     1.390   .     A
C39    H40     1.084   .     S
C39    C449    1.369   1_545 S
C41    H42     1.084   .     S
C41    C43     1.398   .     A
C41    C243    1.369   .     S
C44    N52     1.359   .     A
C44    H45     1.080   .     S
C44    C114    1.419   .     S
C46    O53     1.379   .     S
C46    N47     1.379   .     A
C46    C180    1.419   1_455 S
N47    C48     1.367   .     A
C48    H49     1.081   .     S
C48    C186    1.417   1_455 S
C50    N52     1.368   .     A
C50    H51     1.081   .     S
C50    C116    1.417   .     S
O53    C54     1.411   .     S
C54    H56     1.111   .     S
C54    H55     1.109   .     S
C54    H57     1.113   .     S
O58    C59     1.410   .     S
C59    H60     1.115   .     S
C59    H61     1.110   .     S
C59    H62     1.109   .     S
N63    O65     1.302   .     A
N63    O64     1.300   .     A
N66    O68     1.302   .     A
N66    O67     1.301   .     A
O69    C71     1.284   .     A
O69    Zn75    1.986   .     S
O70    C71     1.286   .     A
O70    Zn76    1.993   .     S
C71    C111    1.415   .     S
O72    Zn75    1.953   .     S
O72    C74     1.292   .     A
O73    Zn76    1.906   .     S
O73    C74     1.297   .     A
C74    C98     1.457   .     S
Zn75   O79     1.906   .     S
Zn75   O77     1.993   .     S
Zn75   N115    2.018   .     S
Zn76   O80     1.953   .     S
Zn76   O78     1.986   .     S
Zn76   N120    2.018   .     S
O77    C81     1.286   .     A
O78    C81     1.282   .     A
O79    C82     1.294   .     A
O80    C82     1.295   .     A
C81    C106    1.409   .     S
C82    C86     1.449   .     S
C83    C97     1.393   .     A
C83    H697    1.083   1_554 S
C83    C705    1.409   1_554 S
H84    C97     1.083   .     S
H85    C695    1.083   .     S
C86    C97     1.397   .     A
C86    C96     1.388   .     A
C87    C98     1.399   .     A
C87    H100    1.084   .     S
C87    C88     1.386   .     A
C88    C701    1.399   .     S
C88    H713    1.083   .     S
C89    N131    1.436   .     S
C89    C700    1.399   1_554 S
C89    C702    1.433   1_554 S
C90    C91     1.408   .     A
C90    C701    1.433   .     S
C90    C704    1.417   .     S
C91    C95     1.411   .     A
C91    C98     1.407   .     A
C92    C96     1.393   .     A
C92    C702    1.417   1_554 S
C92    C705    1.422   1_554 S
C93    C94     1.401   .     A
C93    C695    1.409   .     S
C93    C704    1.422   .     S
C94    C95     1.402   .     A
C94    O126    1.389   .     S
C95    H102    1.082   .     S
C96    H99     1.081   .     S
H101   C700    1.083   1_554 S
C103   C111    1.409   .     A
C103   N134    1.439   .     S
C103   C308    1.379   .     S
C104   C106    1.395   .     A
C104   H105    1.085   .     S
C104   C511    1.379   1_545 S
C106   C107    1.390   .     A
C107   H108    1.084   .     S
C107   C517    1.369   1_545 S
C109   H110    1.084   .     S
C109   C111    1.398   .     A
C109   C311    1.369   .     S
C112   N120    1.359   .     A
C112   H113    1.080   .     S
C112   C182    1.419   .     S
C114   O121    1.379   .     S
C114   N115    1.379   .     A
N115   C116    1.367   .     A
C116   H117    1.081   .     S
C118   N120    1.368   .     A
C118   H119    1.081   .     S
C118   C184    1.417   .     S
O121   C122    1.411   .     S
C122   H124    1.111   .     S
C122   H123    1.109   .     S
C122   H125    1.113   .     S
O126   C127    1.410   .     S
C127   H128    1.115   .     S
C127   H129    1.110   .     S
C127   H130    1.109   .     S
N131   O133    1.302   .     A
N131   O132    1.300   .     A
N134   O136    1.302   .     A
N134   O135    1.301   .     A
O137   C139    1.284   .     A
O137   Zn143   1.986   .     S
O138   C139    1.286   .     A
O138   Zn144   1.993   .     S
C139   C179    1.415   .     S
O140   Zn143   1.953   .     S
O140   C142    1.292   .     A
O141   Zn144   1.906   .     S
O141   C142    1.297   .     A
C142   C166    1.457   .     S
Zn143  O147    1.906   .     S
Zn143  O145    1.993   .     S
Zn143  N183    2.018   .     S
Zn144  O148    1.953   .     S
Zn144  O146    1.986   .     S
Zn144  N188    2.018   .     S
O145   C149    1.286   .     A
O146   C149    1.282   .     A
O147   C150    1.294   .     A
O148   C150    1.295   .     A
C149   C174    1.409   .     S
C150   C154    1.449   .     S
C151   C165    1.393   .     A
C151   H765    1.083   1_554 S
C151   C773    1.409   1_554 S
H152   C165    1.083   .     S
H153   C763    1.083   .     S
C154   C165    1.397   .     A
C154   C164    1.388   .     A
C155   C166    1.399   .     A
C155   H168    1.084   .     S
C155   C156    1.386   .     A
C156   C769    1.399   .     S
C156   H781    1.083   .     S
C157   N199    1.436   .     S
C157   C768    1.399   1_554 S
C157   C770    1.433   1_554 S
C158   C159    1.408   .     A
C158   C769    1.433   .     S
C158   C772    1.417   .     S
C159   C163    1.411   .     A
C159   C166    1.407   .     A
C160   C164    1.393   .     A
C160   C770    1.417   1_554 S
C160   C773    1.422   1_554 S
C161   C162    1.401   .     A
C161   C763    1.409   .     S
C161   C772    1.422   .     S
C162   C163    1.402   .     A
C162   O194    1.389   .     S
C163   H170    1.082   .     S
C164   H167    1.081   .     S
H169   C768    1.083   1_554 S
C171   C179    1.409   .     A
C171   N202    1.439   .     S
C171   C376    1.379   .     S
C172   C174    1.395   .     A
C172   H173    1.085   .     S
C172   C579    1.379   1_545 S
C174   C175    1.390   .     A
C175   H176    1.084   .     S
C175   C585    1.369   1_545 S
C177   H178    1.084   .     S
C177   C179    1.398   .     A
C177   C379    1.369   .     S
C180   N188    1.359   .     A
C180   H181    1.080   .     S
C180   C46     1.419   1_655 S
C182   O189    1.379   .     S
C182   N183    1.379   .     A
N183   C184    1.367   .     A
C184   H185    1.081   .     S
C186   N188    1.368   .     A
C186   H187    1.081   .     S
C186   C48     1.417   1_655 S
O189   C190    1.411   .     S
C190   H192    1.111   .     S
C190   H191    1.109   .     S
C190   H193    1.113   .     S
O194   C195    1.410   .     S
C195   H196    1.115   .     S
C195   H197    1.110   .     S
C195   H198    1.109   .     S
N199   O201    1.302   .     A
N199   O200    1.300   .     A
N202   O204    1.302   .     A
N202   O203    1.301   .     A
O205   C207    1.284   .     A
O205   Zn211   1.986   .     S
O206   C207    1.286   .     A
O206   Zn212   1.993   .     S
C207   C247    1.415   .     S
O208   Zn211   1.953   .     S
O208   C210    1.292   .     A
O209   Zn212   1.906   .     S
O209   C210    1.297   .     A
C210   C234    1.457   .     S
Zn211  O215    1.906   .     S
Zn211  O213    1.993   .     S
Zn211  N251    2.018   .     S
Zn212  O216    1.953   .     S
Zn212  O214    1.986   .     S
Zn212  N256    2.018   .     S
O213   C217    1.286   .     A
O214   C217    1.282   .     A
O215   C218    1.294   .     A
O216   C218    1.295   .     A
C217   C242    1.409   .     S
C218   C222    1.449   .     S
C219   C233    1.393   .     A
C219   H833    1.083   1_554 S
C219   C841    1.409   1_554 S
H220   C233    1.083   .     S
H221   C831    1.083   .     S
C222   C233    1.397   .     A
C222   C232    1.388   .     A
C223   C234    1.399   .     A
C223   H236    1.084   .     S
C223   C224    1.386   .     A
C224   C837    1.399   .     S
C224   H849    1.083   .     S
C225   N267    1.436   .     S
C225   C836    1.399   1_554 S
C225   C838    1.433   1_554 S
C226   C227    1.408   .     A
C226   C837    1.433   .     S
C226   C840    1.417   .     S
C227   C231    1.411   .     A
C227   C234    1.407   .     A
C228   C232    1.393   .     A
C228   C838    1.417   1_554 S
C228   C841    1.422   1_554 S
C229   C230    1.401   .     A
C229   C831    1.409   .     S
C229   C840    1.422   .     S
C230   C231    1.402   .     A
C230   O262    1.389   .     S
C231   H238    1.082   .     S
C232   H235    1.081   .     S
H237   C836    1.083   1_554 S
C239   C247    1.409   .     A
C239   N270    1.439   .     S
C239   C444    1.379   .     S
C240   C242    1.395   .     A
C240   H241    1.085   .     S
C242   C243    1.390   .     A
C243   H244    1.084   .     S
C245   H246    1.084   .     S
C245   C247    1.398   .     A
C245   C447    1.369   .     S
C248   N256    1.359   .     A
C248   H249    1.080   .     S
C248   C318    1.419   .     S
C250   O257    1.379   .     S
C250   N251    1.379   .     A
C250   C384    1.419   1_455 S
N251   C252    1.367   .     A
C252   H253    1.081   .     S
C252   C390    1.417   1_455 S
C254   N256    1.368   .     A
C254   H255    1.081   .     S
C254   C320    1.417   .     S
O257   C258    1.411   .     S
C258   H260    1.111   .     S
C258   H259    1.109   .     S
C258   H261    1.113   .     S
O262   C263    1.410   .     S
C263   H264    1.115   .     S
C263   H265    1.110   .     S
C263   H266    1.109   .     S
N267   O269    1.302   .     A
N267   O268    1.300   .     A
N270   O272    1.302   .     A
N270   O271    1.301   .     A
O273   C275    1.284   .     A
O273   Zn279   1.986   .     S
O274   C275    1.286   .     A
O274   Zn280   1.993   .     S
C275   C315    1.415   .     S
O276   Zn279   1.953   .     S
O276   C278    1.292   .     A
O277   Zn280   1.906   .     S
O277   C278    1.297   .     A
C278   C302    1.457   .     S
Zn279  O283    1.906   .     S
Zn279  O281    1.993   .     S
Zn279  N319    2.018   .     S
Zn280  O284    1.953   .     S
Zn280  O282    1.986   .     S
Zn280  N324    2.018   .     S
O281   C285    1.286   .     A
O282   C285    1.282   .     A
O283   C286    1.294   .     A
O284   C286    1.295   .     A
C285   C310    1.409   .     S
C286   C290    1.449   .     S
C287   C301    1.393   .     A
C287   H901    1.083   1_554 S
C287   C909    1.409   1_554 S
H288   C301    1.083   .     S
H289   C899    1.083   .     S
C290   C301    1.397   .     A
C290   C300    1.388   .     A
C291   C302    1.399   .     A
C291   H304    1.084   .     S
C291   C292    1.386   .     A
C292   C905    1.399   .     S
C292   H917    1.083   .     S
C293   N335    1.436   .     S
C293   C904    1.399   1_554 S
C293   C906    1.433   1_554 S
C294   C295    1.408   .     A
C294   C905    1.433   .     S
C294   C908    1.417   .     S
C295   C299    1.411   .     A
C295   C302    1.407   .     A
C296   C300    1.393   .     A
C296   C906    1.417   1_554 S
C296   C909    1.422   1_554 S
C297   C298    1.401   .     A
C297   C899    1.409   .     S
C297   C908    1.422   .     S
C298   C299    1.402   .     A
C298   O330    1.389   .     S
C299   H306    1.082   .     S
C300   H303    1.081   .     S
H305   C904    1.083   1_554 S
C307   C315    1.409   .     A
C307   N338    1.439   .     S
C307   C512    1.379   .     S
C308   C310    1.395   .     A
C308   H309    1.085   .     S
C310   C311    1.390   .     A
C311   H312    1.084   .     S
C313   H314    1.084   .     S
C313   C315    1.398   .     A
C313   C515    1.369   .     S
C316   N324    1.359   .     A
C316   H317    1.080   .     S
C316   C386    1.419   .     S
C318   O325    1.379   .     S
C318   N319    1.379   .     A
N319   C320    1.367   .     A
C320   H321    1.081   .     S
C322   N324    1.368   .     A
C322   H323    1.081   .     S
C322   C388    1.417   .     S
O325   C326    1.411   .     S
C326   H328    1.111   .     S
C326   H327    1.109   .     S
C326   H329    1.113   .     S
O330   C331    1.410   .     S
C331   H332    1.115   .     S
C331   H333    1.110   .     S
C331   H334    1.109   .     S
N335   O337    1.302   .     A
N335   O336    1.300   .     A
N338   O340    1.302   .     A
N338   O339    1.301   .     A
O341   C343    1.284   .     A
O341   Zn347   1.986   .     S
O342   C343    1.286   .     A
O342   Zn348   1.993   .     S
C343   C383    1.415   .     S
O344   Zn347   1.953   .     S
O344   C346    1.292   .     A
O345   Zn348   1.906   .     S
O345   C346    1.297   .     A
C346   C370    1.457   .     S
Zn347  O351    1.906   .     S
Zn347  O349    1.993   .     S
Zn347  N387    2.018   .     S
Zn348  O352    1.953   .     S
Zn348  O350    1.986   .     S
Zn348  N392    2.018   .     S
O349   C353    1.286   .     A
O350   C353    1.282   .     A
O351   C354    1.294   .     A
O352   C354    1.295   .     A
C353   C378    1.409   .     S
C354   C358    1.449   .     S
C355   C369    1.393   .     A
C355   H969    1.083   1_554 S
C355   C977    1.409   1_554 S
H356   C369    1.083   .     S
H357   C967    1.083   .     S
C358   C369    1.397   .     A
C358   C368    1.388   .     A
C359   C370    1.399   .     A
C359   H372    1.084   .     S
C359   C360    1.386   .     A
C360   C973    1.399   .     S
C360   H985    1.083   .     S
C361   N403    1.436   .     S
C361   C972    1.399   1_554 S
C361   C974    1.433   1_554 S
C362   C363    1.408   .     A
C362   C973    1.433   .     S
C362   C976    1.417   .     S
C363   C367    1.411   .     A
C363   C370    1.407   .     A
C364   C368    1.393   .     A
C364   C974    1.417   1_554 S
C364   C977    1.422   1_554 S
C365   C366    1.401   .     A
C365   C967    1.409   .     S
C365   C976    1.422   .     S
C366   C367    1.402   .     A
C366   O398    1.389   .     S
C367   H374    1.082   .     S
C368   H371    1.081   .     S
H373   C972    1.083   1_554 S
C375   C383    1.409   .     A
C375   N406    1.439   .     S
C375   C580    1.379   .     S
C376   C378    1.395   .     A
C376   H377    1.085   .     S
C378   C379    1.390   .     A
C379   H380    1.084   .     S
C381   H382    1.084   .     S
C381   C383    1.398   .     A
C381   C583    1.369   .     S
C384   N392    1.359   .     A
C384   H385    1.080   .     S
C384   C250    1.419   1_655 S
C386   O393    1.379   .     S
C386   N387    1.379   .     A
N387   C388    1.367   .     A
C388   H389    1.081   .     S
C390   N392    1.368   .     A
C390   H391    1.081   .     S
C390   C252    1.417   1_655 S
O393   C394    1.411   .     S
C394   H396    1.111   .     S
C394   H395    1.109   .     S
C394   H397    1.113   .     S
O398   C399    1.410   .     S
C399   H400    1.115   .     S
C399   H401    1.110   .     S
C399   H402    1.109   .     S
N403   O405    1.302   .     A
N403   O404    1.300   .     A
N406   O408    1.302   .     A
N406   O407    1.301   .     A
O409   C411    1.284   .     A
O409   Zn415   1.986   .     S
O410   C411    1.286   .     A
O410   Zn416   1.993   .     S
C411   C451    1.415   .     S
O412   Zn415   1.953   .     S
O412   C414    1.292   .     A
O413   Zn416   1.906   .     S
O413   C414    1.297   .     A
C414   C438    1.457   .     S
Zn415  O419    1.906   .     S
Zn415  O417    1.993   .     S
Zn415  N455    2.018   .     S
Zn416  O420    1.953   .     S
Zn416  O418    1.986   .     S
Zn416  N460    2.018   .     S
O417   C421    1.286   .     A
O418   C421    1.282   .     A
O419   C422    1.294   .     A
O420   C422    1.295   .     A
C421   C446    1.409   .     S
C422   C426    1.449   .     S
C423   C437    1.393   .     A
C423   H1037   1.083   1_554 S
C423   C1045   1.409   1_554 S
H424   C437    1.083   .     S
H425   C1035   1.083   .     S
C426   C437    1.397   .     A
C426   C436    1.388   .     A
C427   C438    1.399   .     A
C427   H440    1.084   .     S
C427   C428    1.386   .     A
C428   C1041   1.399   .     S
C428   H1053   1.083   .     S
C429   N471    1.436   .     S
C429   C1040   1.399   1_554 S
C429   C1042   1.433   1_554 S
C430   C431    1.408   .     A
C430   C1041   1.433   .     S
C430   C1044   1.417   .     S
C431   C435    1.411   .     A
C431   C438    1.407   .     A
C432   C436    1.393   .     A
C432   C1042   1.417   1_554 S
C432   C1045   1.422   1_554 S
C433   C434    1.401   .     A
C433   C1035   1.409   .     S
C433   C1044   1.422   .     S
C434   C435    1.402   .     A
C434   O466    1.389   .     S
C435   H442    1.082   .     S
C436   H439    1.081   .     S
H441   C1040   1.083   1_554 S
C443   C451    1.409   .     A
C443   N474    1.439   .     S
C443   C36     1.379   1_565 S
C444   C446    1.395   .     A
C444   H445    1.085   .     S
C446   C447    1.390   .     A
C447   H448    1.084   .     S
C449   H450    1.084   .     S
C449   C451    1.398   .     A
C449   C39     1.369   1_565 S
C452   N460    1.359   .     A
C452   H453    1.080   .     S
C452   C522    1.419   .     S
C454   O461    1.379   .     S
C454   N455    1.379   .     A
C454   C588    1.419   1_455 S
N455   C456    1.367   .     A
C456   H457    1.081   .     S
C456   C594    1.417   1_455 S
C458   N460    1.368   .     A
C458   H459    1.081   .     S
C458   C524    1.417   .     S
O461   C462    1.411   .     S
C462   H464    1.111   .     S
C462   H463    1.109   .     S
C462   H465    1.113   .     S
O466   C467    1.410   .     S
C467   H468    1.115   .     S
C467   H469    1.110   .     S
C467   H470    1.109   .     S
N471   O473    1.302   .     A
N471   O472    1.300   .     A
N474   O476    1.302   .     A
N474   O475    1.301   .     A
O477   C479    1.284   .     A
O477   Zn483   1.986   .     S
O478   C479    1.286   .     A
O478   Zn484   1.993   .     S
C479   C519    1.415   .     S
O480   Zn483   1.953   .     S
O480   C482    1.292   .     A
O481   Zn484   1.906   .     S
O481   C482    1.297   .     A
C482   C506    1.457   .     S
Zn483  O487    1.906   .     S
Zn483  O485    1.993   .     S
Zn483  N523    2.018   .     S
Zn484  O488    1.953   .     S
Zn484  O486    1.986   .     S
Zn484  N528    2.018   .     S
O485   C489    1.286   .     A
O486   C489    1.282   .     A
O487   C490    1.294   .     A
O488   C490    1.295   .     A
C489   C514    1.409   .     S
C490   C494    1.449   .     S
C491   C505    1.393   .     A
C491   H1105   1.083   1_554 S
C491   C1113   1.409   1_554 S
H492   C505    1.083   .     S
H493   C1103   1.083   .     S
C494   C505    1.397   .     A
C494   C504    1.388   .     A
C495   C506    1.399   .     A
C495   H508    1.084   .     S
C495   C496    1.386   .     A
C496   C1109   1.399   .     S
C496   H1121   1.083   .     S
C497   N539    1.436   .     S
C497   C1108   1.399   1_554 S
C497   C1110   1.433   1_554 S
C498   C499    1.408   .     A
C498   C1109   1.433   .     S
C498   C1112   1.417   .     S
C499   C503    1.411   .     A
C499   C506    1.407   .     A
C500   C504    1.393   .     A
C500   C1110   1.417   1_554 S
C500   C1113   1.422   1_554 S
C501   C502    1.401   .     A
C501   C1103   1.409   .     S
C501   C1112   1.422   .     S
C502   C503    1.402   .     A
C502   O534    1.389   .     S
C503   H510    1.082   .     S
C504   H507    1.081   .     S
H509   C1108   1.083   1_554 S
C511   C519    1.409   .     A
C511   N542    1.439   .     S
C511   C104    1.379   1_565 S
C512   C514    1.395   .     A
C512   H513    1.085   .     S
C514   C515    1.390   .     A
C515   H516    1.084   .     S
C517   H518    1.084   .     S
C517   C519    1.398   .     A
C517   C107    1.369   1_565 S
C520   N528    1.359   .     A
C520   H521    1.080   .     S
C520   C590    1.419   .     S
C522   O529    1.379   .     S
C522   N523    1.379   .     A
N523   C524    1.367   .     A
C524   H525    1.081   .     S
C526   N528    1.368   .     A
C526   H527    1.081   .     S
C526   C592    1.417   .     S
O529   C530    1.411   .     S
C530   H532    1.111   .     S
C530   H531    1.109   .     S
C530   H533    1.113   .     S
O534   C535    1.410   .     S
C535   H536    1.115   .     S
C535   H537    1.110   .     S
C535   H538    1.109   .     S
N539   O541    1.302   .     A
N539   O540    1.300   .     A
N542   O544    1.302   .     A
N542   O543    1.301   .     A
O545   C547    1.284   .     A
O545   Zn551   1.986   .     S
O546   C547    1.286   .     A
O546   Zn552   1.993   .     S
C547   C587    1.415   .     S
O548   Zn551   1.953   .     S
O548   C550    1.292   .     A
O549   Zn552   1.906   .     S
O549   C550    1.297   .     A
C550   C574    1.457   .     S
Zn551  O555    1.906   .     S
Zn551  O553    1.993   .     S
Zn551  N591    2.018   .     S
Zn552  O556    1.953   .     S
Zn552  O554    1.986   .     S
Zn552  N596    2.018   .     S
O553   C557    1.286   .     A
O554   C557    1.282   .     A
O555   C558    1.294   .     A
O556   C558    1.295   .     A
C557   C582    1.409   .     S
C558   C562    1.449   .     S
C559   C573    1.393   .     A
C559   H1173   1.083   1_554 S
C559   C1181   1.409   1_554 S
H560   C573    1.083   .     S
H561   C1171   1.083   .     S
C562   C573    1.397   .     A
C562   C572    1.388   .     A
C563   C574    1.399   .     A
C563   H576    1.084   .     S
C563   C564    1.386   .     A
C564   C1177   1.399   .     S
C564   H1189   1.083   .     S
C565   N607    1.436   .     S
C565   C1176   1.399   1_554 S
C565   C1178   1.433   1_554 S
C566   C567    1.408   .     A
C566   C1177   1.433   .     S
C566   C1180   1.417   .     S
C567   C571    1.411   .     A
C567   C574    1.407   .     A
C568   C572    1.393   .     A
C568   C1178   1.417   1_554 S
C568   C1181   1.422   1_554 S
C569   C570    1.401   .     A
C569   C1171   1.409   .     S
C569   C1180   1.422   .     S
C570   C571    1.402   .     A
C570   O602    1.389   .     S
C571   H578    1.082   .     S
C572   H575    1.081   .     S
H577   C1176   1.083   1_554 S
C579   C587    1.409   .     A
C579   N610    1.439   .     S
C579   C172    1.379   1_565 S
C580   C582    1.395   .     A
C580   H581    1.085   .     S
C582   C583    1.390   .     A
C583   H584    1.084   .     S
C585   H586    1.084   .     S
C585   C587    1.398   .     A
C585   C175    1.369   1_565 S
C588   N596    1.359   .     A
C588   H589    1.080   .     S
C588   C454    1.419   1_655 S
C590   O597    1.379   .     S
C590   N591    1.379   .     A
N591   C592    1.367   .     A
C592   H593    1.081   .     S
C594   N596    1.368   .     A
C594   H595    1.081   .     S
C594   C456    1.417   1_655 S
O597   C598    1.411   .     S
C598   H600    1.111   .     S
C598   H599    1.109   .     S
C598   H601    1.113   .     S
O602   C603    1.410   .     S
C603   H604    1.115   .     S
C603   H605    1.110   .     S
C603   H606    1.109   .     S
N607   O609    1.302   .     A
N607   O608    1.300   .     A
N610   O612    1.302   .     A
N610   O611    1.301   .     A
O613   C615    1.284   .     A
O613   Zn619   1.986   .     S
O614   C615    1.286   .     A
O614   Zn620   1.993   .     S
C615   C655    1.415   .     S
O616   Zn619   1.953   .     S
O616   C618    1.292   .     A
O617   Zn620   1.906   .     S
O617   C618    1.297   .     A
C618   C642    1.457   .     S
Zn619  O623    1.906   .     S
Zn619  O621    1.993   .     S
Zn619  N659    2.018   .     S
Zn620  O624    1.953   .     S
Zn620  O622    1.986   .     S
Zn620  N664    2.018   .     S
O621   C625    1.286   .     A
O622   C625    1.282   .     A
O623   C626    1.294   .     A
O624   C626    1.295   .     A
C625   C650    1.409   .     S
C626   C630    1.449   .     S
C627   C641    1.393   .     A
H628   C641    1.083   .     S
H629   C15     1.083   1_556 S
C630   C641    1.397   .     A
C630   C640    1.388   .     A
C631   C642    1.399   .     A
C631   H644    1.084   .     S
C631   C632    1.386   .     A
C632   C21     1.399   1_556 S
C632   H33     1.083   1_556 S
C633   N675    1.436   .     S
C634   C635    1.408   .     A
C634   C21     1.433   1_556 S
C634   C24     1.417   1_556 S
C635   C639    1.411   .     A
C635   C642    1.407   .     A
C636   C640    1.393   .     A
C637   C638    1.401   .     A
C637   C15     1.409   1_556 S
C637   C24     1.422   1_556 S
C638   C639    1.402   .     A
C638   O670    1.389   .     S
C639   H646    1.082   .     S
C640   H643    1.081   .     S
C647   C655    1.409   .     A
C647   N678    1.439   .     S
C647   C852    1.379   .     S
C648   C650    1.395   .     A
C648   H649    1.085   .     S
C648   C1055   1.379   1_545 S
C650   C651    1.390   .     A
C651   H652    1.084   .     S
C651   C1061   1.369   1_545 S
C653   H654    1.084   .     S
C653   C655    1.398   .     A
C653   C855    1.369   .     S
C656   N664    1.359   .     A
C656   H657    1.080   .     S
C656   C726    1.419   .     S
C658   O665    1.379   .     S
C658   N659    1.379   .     A
C658   C792    1.419   1_455 S
N659   C660    1.367   .     A
C660   H661    1.081   .     S
C660   C798    1.417   1_455 S
C662   N664    1.368   .     A
C662   H663    1.081   .     S
C662   C728    1.417   .     S
O665   C666    1.411   .     S
C666   H668    1.111   .     S
C666   H667    1.109   .     S
C666   H669    1.113   .     S
O670   C671    1.410   .     S
C671   H672    1.115   .     S
C671   H673    1.110   .     S
C671   H674    1.109   .     S
N675   O677    1.302   .     A
N675   O676    1.300   .     A
N678   O680    1.302   .     A
N678   O679    1.301   .     A
O681   C683    1.284   .     A
O681   Zn687   1.986   .     S
O682   C683    1.286   .     A
O682   Zn688   1.993   .     S
C683   C723    1.415   .     S
O684   Zn687   1.953   .     S
O684   C686    1.292   .     A
O685   Zn688   1.906   .     S
O685   C686    1.297   .     A
C686   C710    1.457   .     S
Zn687  O691    1.906   .     S
Zn687  O689    1.993   .     S
Zn687  N727    2.018   .     S
Zn688  O692    1.953   .     S
Zn688  O690    1.986   .     S
Zn688  N732    2.018   .     S
O689   C693    1.286   .     A
O690   C693    1.282   .     A
O691   C694    1.294   .     A
O692   C694    1.295   .     A
C693   C718    1.409   .     S
C694   C698    1.449   .     S
C695   C709    1.393   .     A
H696   C709    1.083   .     S
H697   C83     1.083   1_556 S
C698   C709    1.397   .     A
C698   C708    1.388   .     A
C699   C710    1.399   .     A
C699   H712    1.084   .     S
C699   C700    1.386   .     A
C700   C89     1.399   1_556 S
C700   H101    1.083   1_556 S
C701   N743    1.436   .     S
C702   C703    1.408   .     A
C702   C89     1.433   1_556 S
C702   C92     1.417   1_556 S
C703   C707    1.411   .     A
C703   C710    1.407   .     A
C704   C708    1.393   .     A
C705   C706    1.401   .     A
C705   C83     1.409   1_556 S
C705   C92     1.422   1_556 S
C706   C707    1.402   .     A
C706   O738    1.389   .     S
C707   H714    1.082   .     S
C708   H711    1.081   .     S
C715   C723    1.409   .     A
C715   N746    1.439   .     S
C715   C920    1.379   .     S
C716   C718    1.395   .     A
C716   H717    1.085   .     S
C716   C1123   1.379   1_545 S
C718   C719    1.390   .     A
C719   H720    1.084   .     S
C719   C1129   1.369   1_545 S
C721   H722    1.084   .     S
C721   C723    1.398   .     A
C721   C923    1.369   .     S
C724   N732    1.359   .     A
C724   H725    1.080   .     S
C724   C794    1.419   .     S
C726   O733    1.379   .     S
C726   N727    1.379   .     A
N727   C728    1.367   .     A
C728   H729    1.081   .     S
C730   N732    1.368   .     A
C730   H731    1.081   .     S
C730   C796    1.417   .     S
O733   C734    1.411   .     S
C734   H736    1.111   .     S
C734   H735    1.109   .     S
C734   H737    1.113   .     S
O738   C739    1.410   .     S
C739   H740    1.115   .     S
C739   H741    1.110   .     S
C739   H742    1.109   .     S
N743   O745    1.302   .     A
N743   O744    1.300   .     A
N746   O748    1.302   .     A
N746   O747    1.301   .     A
O749   C751    1.284   .     A
O749   Zn755   1.986   .     S
O750   C751    1.286   .     A
O750   Zn756   1.993   .     S
C751   C791    1.415   .     S
O752   Zn755   1.953   .     S
O752   C754    1.292   .     A
O753   Zn756   1.906   .     S
O753   C754    1.297   .     A
C754   C778    1.457   .     S
Zn755  O759    1.906   .     S
Zn755  O757    1.993   .     S
Zn755  N795    2.018   .     S
Zn756  O760    1.953   .     S
Zn756  O758    1.986   .     S
Zn756  N800    2.018   .     S
O757   C761    1.286   .     A
O758   C761    1.282   .     A
O759   C762    1.294   .     A
O760   C762    1.295   .     A
C761   C786    1.409   .     S
C762   C766    1.449   .     S
C763   C777    1.393   .     A
H764   C777    1.083   .     S
H765   C151    1.083   1_556 S
C766   C777    1.397   .     A
C766   C776    1.388   .     A
C767   C778    1.399   .     A
C767   H780    1.084   .     S
C767   C768    1.386   .     A
C768   C157    1.399   1_556 S
C768   H169    1.083   1_556 S
C769   N811    1.436   .     S
C770   C771    1.408   .     A
C770   C157    1.433   1_556 S
C770   C160    1.417   1_556 S
C771   C775    1.411   .     A
C771   C778    1.407   .     A
C772   C776    1.393   .     A
C773   C774    1.401   .     A
C773   C151    1.409   1_556 S
C773   C160    1.422   1_556 S
C774   C775    1.402   .     A
C774   O806    1.389   .     S
C775   H782    1.082   .     S
C776   H779    1.081   .     S
C783   C791    1.409   .     A
C783   N814    1.439   .     S
C783   C988    1.379   .     S
C784   C786    1.395   .     A
C784   H785    1.085   .     S
C784   C1191   1.379   1_545 S
C786   C787    1.390   .     A
C787   H788    1.084   .     S
C787   C1197   1.369   1_545 S
C789   H790    1.084   .     S
C789   C791    1.398   .     A
C789   C991    1.369   .     S
C792   N800    1.359   .     A
C792   H793    1.080   .     S
C792   C658    1.419   1_655 S
C794   O801    1.379   .     S
C794   N795    1.379   .     A
N795   C796    1.367   .     A
C796   H797    1.081   .     S
C798   N800    1.368   .     A
C798   H799    1.081   .     S
C798   C660    1.417   1_655 S
O801   C802    1.411   .     S
C802   H804    1.111   .     S
C802   H803    1.109   .     S
C802   H805    1.113   .     S
O806   C807    1.410   .     S
C807   H808    1.115   .     S
C807   H809    1.110   .     S
C807   H810    1.109   .     S
N811   O813    1.302   .     A
N811   O812    1.300   .     A
N814   O816    1.302   .     A
N814   O815    1.301   .     A
O817   C819    1.284   .     A
O817   Zn823   1.986   .     S
O818   C819    1.286   .     A
O818   Zn824   1.993   .     S
C819   C859    1.415   .     S
O820   Zn823   1.953   .     S
O820   C822    1.292   .     A
O821   Zn824   1.906   .     S
O821   C822    1.297   .     A
C822   C846    1.457   .     S
Zn823  O827    1.906   .     S
Zn823  O825    1.993   .     S
Zn823  N863    2.018   .     S
Zn824  O828    1.953   .     S
Zn824  O826    1.986   .     S
Zn824  N868    2.018   .     S
O825   C829    1.286   .     A
O826   C829    1.282   .     A
O827   C830    1.294   .     A
O828   C830    1.295   .     A
C829   C854    1.409   .     S
C830   C834    1.449   .     S
C831   C845    1.393   .     A
H832   C845    1.083   .     S
H833   C219    1.083   1_556 S
C834   C845    1.397   .     A
C834   C844    1.388   .     A
C835   C846    1.399   .     A
C835   H848    1.084   .     S
C835   C836    1.386   .     A
C836   C225    1.399   1_556 S
C836   H237    1.083   1_556 S
C837   N879    1.436   .     S
C838   C839    1.408   .     A
C838   C225    1.433   1_556 S
C838   C228    1.417   1_556 S
C839   C843    1.411   .     A
C839   C846    1.407   .     A
C840   C844    1.393   .     A
C841   C842    1.401   .     A
C841   C219    1.409   1_556 S
C841   C228    1.422   1_556 S
C842   C843    1.402   .     A
C842   O874    1.389   .     S
C843   H850    1.082   .     S
C844   H847    1.081   .     S
C851   C859    1.409   .     A
C851   N882    1.439   .     S
C851   C1056   1.379   .     S
C852   C854    1.395   .     A
C852   H853    1.085   .     S
C854   C855    1.390   .     A
C855   H856    1.084   .     S
C857   H858    1.084   .     S
C857   C859    1.398   .     A
C857   C1059   1.369   .     S
C860   N868    1.359   .     A
C860   H861    1.080   .     S
C860   C930    1.419   .     S
C862   O869    1.379   .     S
C862   N863    1.379   .     A
C862   C996    1.419   1_455 S
N863   C864    1.367   .     A
C864   H865    1.081   .     S
C864   C1002   1.417   1_455 S
C866   N868    1.368   .     A
C866   H867    1.081   .     S
C866   C932    1.417   .     S
O869   C870    1.411   .     S
C870   H872    1.111   .     S
C870   H871    1.109   .     S
C870   H873    1.113   .     S
O874   C875    1.410   .     S
C875   H876    1.115   .     S
C875   H877    1.110   .     S
C875   H878    1.109   .     S
N879   O881    1.302   .     A
N879   O880    1.300   .     A
N882   O884    1.302   .     A
N882   O883    1.301   .     A
O885   C887    1.284   .     A
O885   Zn891   1.986   .     S
O886   C887    1.286   .     A
O886   Zn892   1.993   .     S
C887   C927    1.415   .     S
O888   Zn891   1.953   .     S
O888   C890    1.292   .     A
O889   Zn892   1.906   .     S
O889   C890    1.297   .     A
C890   C914    1.457   .     S
Zn891  O895    1.906   .     S
Zn891  O893    1.993   .     S
Zn891  N931    2.018   .     S
Zn892  O896    1.953   .     S
Zn892  O894    1.986   .     S
Zn892  N936    2.018   .     S
O893   C897    1.286   .     A
O894   C897    1.282   .     A
O895   C898    1.294   .     A
O896   C898    1.295   .     A
C897   C922    1.409   .     S
C898   C902    1.449   .     S
C899   C913    1.393   .     A
H900   C913    1.083   .     S
H901   C287    1.083   1_556 S
C902   C913    1.397   .     A
C902   C912    1.388   .     A
C903   C914    1.399   .     A
C903   H916    1.084   .     S
C903   C904    1.386   .     A
C904   C293    1.399   1_556 S
C904   H305    1.083   1_556 S
C905   N947    1.436   .     S
C906   C907    1.408   .     A
C906   C293    1.433   1_556 S
C906   C296    1.417   1_556 S
C907   C911    1.411   .     A
C907   C914    1.407   .     A
C908   C912    1.393   .     A
C909   C910    1.401   .     A
C909   C287    1.409   1_556 S
C909   C296    1.422   1_556 S
C910   C911    1.402   .     A
C910   O942    1.389   .     S
C911   H918    1.082   .     S
C912   H915    1.081   .     S
C919   C927    1.409   .     A
C919   N950    1.439   .     S
C919   C1124   1.379   .     S
C920   C922    1.395   .     A
C920   H921    1.085   .     S
C922   C923    1.390   .     A
C923   H924    1.084   .     S
C925   H926    1.084   .     S
C925   C927    1.398   .     A
C925   C1127   1.369   .     S
C928   N936    1.359   .     A
C928   H929    1.080   .     S
C928   C998    1.419   .     S
C930   O937    1.379   .     S
C930   N931    1.379   .     A
N931   C932    1.367   .     A
C932   H933    1.081   .     S
C934   N936    1.368   .     A
C934   H935    1.081   .     S
C934   C1000   1.417   .     S
O937   C938    1.411   .     S
C938   H940    1.111   .     S
C938   H939    1.109   .     S
C938   H941    1.113   .     S
O942   C943    1.410   .     S
C943   H944    1.115   .     S
C943   H945    1.110   .     S
C943   H946    1.109   .     S
N947   O949    1.302   .     A
N947   O948    1.300   .     A
N950   O952    1.302   .     A
N950   O951    1.301   .     A
O953   C955    1.284   .     A
O953   Zn959   1.986   .     S
O954   C955    1.286   .     A
O954   Zn960   1.993   .     S
C955   C995    1.415   .     S
O956   Zn959   1.953   .     S
O956   C958    1.292   .     A
O957   Zn960   1.906   .     S
O957   C958    1.297   .     A
C958   C982    1.457   .     S
Zn959  O963    1.906   .     S
Zn959  O961    1.993   .     S
Zn959  N999    2.018   .     S
Zn960  O964    1.953   .     S
Zn960  O962    1.986   .     S
Zn960  N1004   2.018   .     S
O961   C965    1.286   .     A
O962   C965    1.282   .     A
O963   C966    1.294   .     A
O964   C966    1.295   .     A
C965   C990    1.409   .     S
C966   C970    1.449   .     S
C967   C981    1.393   .     A
H968   C981    1.083   .     S
H969   C355    1.083   1_556 S
C970   C981    1.397   .     A
C970   C980    1.388   .     A
C971   C982    1.399   .     A
C971   H984    1.084   .     S
C971   C972    1.386   .     A
C972   C361    1.399   1_556 S
C972   H373    1.083   1_556 S
C973   N1015   1.436   .     S
C974   C975    1.408   .     A
C974   C361    1.433   1_556 S
C974   C364    1.417   1_556 S
C975   C979    1.411   .     A
C975   C982    1.407   .     A
C976   C980    1.393   .     A
C977   C978    1.401   .     A
C977   C355    1.409   1_556 S
C977   C364    1.422   1_556 S
C978   C979    1.402   .     A
C978   O1010   1.389   .     S
C979   H986    1.082   .     S
C980   H983    1.081   .     S
C987   C995    1.409   .     A
C987   N1018   1.439   .     S
C987   C1192   1.379   .     S
C988   C990    1.395   .     A
C988   H989    1.085   .     S
C990   C991    1.390   .     A
C991   H992    1.084   .     S
C993   H994    1.084   .     S
C993   C995    1.398   .     A
C993   C1195   1.369   .     S
C996   N1004   1.359   .     A
C996   H997    1.080   .     S
C996   C862    1.419   1_655 S
C998   O1005   1.379   .     S
C998   N999    1.379   .     A
N999   C1000   1.367   .     A
C1000  H1001   1.081   .     S
C1002  N1004   1.368   .     A
C1002  H1003   1.081   .     S
C1002  C864    1.417   1_655 S
O1005  C1006   1.411   .     S
C1006  H1008   1.111   .     S
C1006  H1007   1.109   .     S
C1006  H1009   1.113   .     S
O1010  C1011   1.410   .     S
C1011  H1012   1.115   .     S
C1011  H1013   1.110   .     S
C1011  H1014   1.109   .     S
N1015  O1017   1.302   .     A
N1015  O1016   1.300   .     A
N1018  O1020   1.302   .     A
N1018  O1019   1.301   .     A
O1021  C1023   1.284   .     A
O1021  Zn1027  1.986   .     S
O1022  C1023   1.286   .     A
O1022  Zn1028  1.993   .     S
C1023  C1063   1.415   .     S
O1024  Zn1027  1.953   .     S
O1024  C1026   1.292   .     A
O1025  Zn1028  1.906   .     S
O1025  C1026   1.297   .     A
C1026  C1050   1.457   .     S
Zn1027 O1031   1.906   .     S
Zn1027 O1029   1.993   .     S
Zn1027 N1067   2.018   .     S
Zn1028 O1032   1.953   .     S
Zn1028 O1030   1.986   .     S
Zn1028 N1072   2.018   .     S
O1029  C1033   1.286   .     A
O1030  C1033   1.282   .     A
O1031  C1034   1.294   .     A
O1032  C1034   1.295   .     A
C1033  C1058   1.409   .     S
C1034  C1038   1.449   .     S
C1035  C1049   1.393   .     A
H1036  C1049   1.083   .     S
H1037  C423    1.083   1_556 S
C1038  C1049   1.397   .     A
C1038  C1048   1.388   .     A
C1039  C1050   1.399   .     A
C1039  H1052   1.084   .     S
C1039  C1040   1.386   .     A
C1040  C429    1.399   1_556 S
C1040  H441    1.083   1_556 S
C1041  N1083   1.436   .     S
C1042  C1043   1.408   .     A
C1042  C429    1.433   1_556 S
C1042  C432    1.417   1_556 S
C1043  C1047   1.411   .     A
C1043  C1050   1.407   .     A
C1044  C1048   1.393   .     A
C1045  C1046   1.401   .     A
C1045  C423    1.409   1_556 S
C1045  C432    1.422   1_556 S
C1046  C1047   1.402   .     A
C1046  O1078   1.389   .     S
C1047  H1054   1.082   .     S
C1048  H1051   1.081   .     S
C1055  C1063   1.409   .     A
C1055  N1086   1.439   .     S
C1055  C648    1.379   1_565 S
C1056  C1058   1.395   .     A
C1056  H1057   1.085   .     S
C1058  C1059   1.390   .     A
C1059  H1060   1.084   .     S
C1061  H1062   1.084   .     S
C1061  C1063   1.398   .     A
C1061  C651    1.369   1_565 S
C1064  N1072   1.359   .     A
C1064  H1065   1.080   .     S
C1064  C1134   1.419   .     S
C1066  O1073   1.379   .     S
C1066  N1067   1.379   .     A
C1066  C1200   1.419   1_455 S
N1067  C1068   1.367   .     A
C1068  H1069   1.081   .     S
C1068  C1206   1.417   1_455 S
C1070  N1072   1.368   .     A
C1070  H1071   1.081   .     S
C1070  C1136   1.417   .     S
O1073  C1074   1.411   .     S
C1074  H1076   1.111   .     S
C1074  H1075   1.109   .     S
C1074  H1077   1.113   .     S
O1078  C1079   1.410   .     S
C1079  H1080   1.115   .     S
C1079  H1081   1.110   .     S
C1079  H1082   1.109   .     S
N1083  O1085   1.302   .     A
N1083  O1084   1.300   .     A
N1086  O1088   1.302   .     A
N1086  O1087   1.301   .     A
O1089  C1091   1.284   .     A
O1089  Zn1095  1.986   .     S
O1090  C1091   1.286   .     A
O1090  Zn1096  1.993   .     S
C1091  C1131   1.415   .     S
O1092  Zn1095  1.953   .     S
O1092  C1094   1.292   .     A
O1093  Zn1096  1.906   .     S
O1093  C1094   1.297   .     A
C1094  C1118   1.457   .     S
Zn1095 O1099   1.906   .     S
Zn1095 O1097   1.993   .     S
Zn1095 N1135   2.018   .     S
Zn1096 O1100   1.953   .     S
Zn1096 O1098   1.986   .     S
Zn1096 N1140   2.018   .     S
O1097  C1101   1.286   .     A
O1098  C1101   1.282   .     A
O1099  C1102   1.294   .     A
O1100  C1102   1.295   .     A
C1101  C1126   1.409   .     S
C1102  C1106   1.449   .     S
C1103  C1117   1.393   .     A
H1104  C1117   1.083   .     S
H1105  C491    1.083   1_556 S
C1106  C1117   1.397   .     A
C1106  C1116   1.388   .     A
C1107  C1118   1.399   .     A
C1107  H1120   1.084   .     S
C1107  C1108   1.386   .     A
C1108  C497    1.399   1_556 S
C1108  H509    1.083   1_556 S
C1109  N1151   1.436   .     S
C1110  C1111   1.408   .     A
C1110  C497    1.433   1_556 S
C1110  C500    1.417   1_556 S
C1111  C1115   1.411   .     A
C1111  C1118   1.407   .     A
C1112  C1116   1.393   .     A
C1113  C1114   1.401   .     A
C1113  C491    1.409   1_556 S
C1113  C500    1.422   1_556 S
C1114  C1115   1.402   .     A
C1114  O1146   1.389   .     S
C1115  H1122   1.082   .     S
C1116  H1119   1.081   .     S
C1123  C1131   1.409   .     A
C1123  N1154   1.439   .     S
C1123  C716    1.379   1_565 S
C1124  C1126   1.395   .     A
C1124  H1125   1.085   .     S
C1126  C1127   1.390   .     A
C1127  H1128   1.084   .     S
C1129  H1130   1.084   .     S
C1129  C1131   1.398   .     A
C1129  C719    1.369   1_565 S
C1132  N1140   1.359   .     A
C1132  H1133   1.080   .     S
C1132  C1202   1.419   .     S
C1134  O1141   1.379   .     S
C1134  N1135   1.379   .     A
N1135  C1136   1.367   .     A
C1136  H1137   1.081   .     S
C1138  N1140   1.368   .     A
C1138  H1139   1.081   .     S
C1138  C1204   1.417   .     S
O1141  C1142   1.411   .     S
C1142  H1144   1.111   .     S
C1142  H1143   1.109   .     S
C1142  H1145   1.113   .     S
O1146  C1147   1.410   .     S
C1147  H1148   1.115   .     S
C1147  H1149   1.110   .     S
C1147  H1150   1.109   .     S
N1151  O1153   1.302   .     A
N1151  O1152   1.300   .     A
N1154  O1156   1.302   .     A
N1154  O1155   1.301   .     A
O1157  C1159   1.284   .     A
O1157  Zn1163  1.986   .     S
O1158  C1159   1.286   .     A
O1158  Zn1164  1.993   .     S
C1159  C1199   1.415   .     S
O1160  Zn1163  1.953   .     S
O1160  C1162   1.292   .     A
O1161  Zn1164  1.906   .     S
O1161  C1162   1.297   .     A
C1162  C1186   1.457   .     S
Zn1163 O1167   1.906   .     S
Zn1163 O1165   1.993   .     S
Zn1163 N1203   2.018   .     S
Zn1164 O1168   1.953   .     S
Zn1164 O1166   1.986   .     S
Zn1164 N1208   2.018   .     S
O1165  C1169   1.286   .     A
O1166  C1169   1.282   .     A
O1167  C1170   1.294   .     A
O1168  C1170   1.295   .     A
C1169  C1194   1.409   .     S
C1170  C1174   1.449   .     S
C1171  C1185   1.393   .     A
H1172  C1185   1.083   .     S
H1173  C559    1.083   1_556 S
C1174  C1185   1.397   .     A
C1174  C1184   1.388   .     A
C1175  C1186   1.399   .     A
C1175  H1188   1.084   .     S
C1175  C1176   1.386   .     A
C1176  C565    1.399   1_556 S
C1176  H577    1.083   1_556 S
C1177  N1219   1.436   .     S
C1178  C1179   1.408   .     A
C1178  C565    1.433   1_556 S
C1178  C568    1.417   1_556 S
C1179  C1183   1.411   .     A
C1179  C1186   1.407   .     A
C1180  C1184   1.393   .     A
C1181  C1182   1.401   .     A
C1181  C559    1.409   1_556 S
C1181  C568    1.422   1_556 S
C1182  C1183   1.402   .     A
C1182  O1214   1.389   .     S
C1183  H1190   1.082   .     S
C1184  H1187   1.081   .     S
C1191  C1199   1.409   .     A
C1191  N1222   1.439   .     S
C1191  C784    1.379   1_565 S
C1192  C1194   1.395   .     A
C1192  H1193   1.085   .     S
C1194  C1195   1.390   .     A
C1195  H1196   1.084   .     S
C1197  H1198   1.084   .     S
C1197  C1199   1.398   .     A
C1197  C787    1.369   1_565 S
C1200  N1208   1.359   .     A
C1200  H1201   1.080   .     S
C1200  C1066   1.419   1_655 S
C1202  O1209   1.379   .     S
C1202  N1203   1.379   .     A
N1203  C1204   1.367   .     A
C1204  H1205   1.081   .     S
C1206  N1208   1.368   .     A
C1206  H1207   1.081   .     S
C1206  C1068   1.417   1_655 S
O1209  C1210   1.411   .     S
C1210  H1212   1.111   .     S
C1210  H1211   1.109   .     S
C1210  H1213   1.113   .     S
O1214  C1215   1.410   .     S
C1215  H1216   1.115   .     S
C1215  H1217   1.110   .     S
C1215  H1218   1.109   .     S
N1219  O1221   1.302   .     A
N1219  O1220   1.300   .     A
N1222  O1224   1.302   .     A
N1222  O1223   1.301   .     A
