data_str_m1_o1_o17_pcu_sym.85
_audit_creation_date              2020-01-03
_audit_creation_method            'Materials Studio'
_symmetry_space_group_name_H-M    'P1'
_symmetry_Int_Tables_number       1
_symmetry_cell_setting            triclinic
loop_
_symmetry_equiv_pos_as_xyz
  x,y,z
_cell_length_a                    36.7468
_cell_length_b                    36.6647
_cell_length_c                    34.3017
_cell_angle_alpha                 90.0011
_cell_angle_beta                  89.9891
_cell_angle_gamma                 90.6911
loop_
_atom_site_label
_atom_site_type_symbol
_atom_site_fract_x
_atom_site_fract_y
_atom_site_fract_z
_atom_site_U_iso_or_equiv
_atom_site_adp_type
_atom_site_occupancy
C1     C     0.46804   0.25788   0.41851   0.00000  Uiso   1.00
C2     C     0.28195   0.49224   0.08148   0.00000  Uiso   1.00
C3     C     0.22509   0.02209   0.54101   0.00000  Uiso   1.00
C4     C     0.46796   0.25928   0.45915   0.00000  Uiso   1.00
C5     C     0.03204   0.24073   0.54085   0.00000  Uiso   1.00
C6     C     0.22518   0.02216   0.45904   0.00000  Uiso   1.00
C7     C     0.27484   0.47785   0.54097   0.00000  Uiso   1.00
C8     C     0.28198   0.49054   0.95915   0.00000  Uiso   1.00
C9     C     0.21806   0.00966   0.04089   0.00000  Uiso   1.00
C10    C     0.02486   0.22784   0.95897   0.00000  Uiso   1.00
C11    C     0.47509   0.27206   0.04096   0.00000  Uiso   1.00
C12    C     0.21801   0.00944   0.95916   0.00000  Uiso   1.00
C13    C     0.47652   0.27288   0.91825   0.00000  Uiso   1.00
C14    C     0.28195   0.49034   0.04088   0.00000  Uiso   1.00
C15    C     0.47510   0.27212   0.95899   0.00000  Uiso   1.00
C16    C     0.02491   0.22794   0.04094   0.00000  Uiso   1.00
C17    C     0.09780   0.34830   0.25007   0.00000  Uiso   1.00
C18    C     0.40219   0.15170   0.74994   0.00000  Uiso   1.00
C19    C     0.15041   0.09687   0.25202   0.00000  Uiso   1.00
C20    C     0.34963   0.40318   0.74788   0.00000  Uiso   1.00
C21    C     0.40220   0.15169   0.25009   0.00000  Uiso   1.00
C22    C     0.09780   0.34830   0.74992   0.00000  Uiso   1.00
C23    C     0.34955   0.40309   0.25198   0.00000  Uiso   1.00
C24    C     0.02370   0.22735   0.08171   0.00000  Uiso   1.00
C25    C     0.15040   0.09686   0.74793   0.00000  Uiso   1.00
C26    C     0.09959   0.15313   0.75207   0.00000  Uiso   1.00
C27    C     0.40037   0.34681   0.24788   0.00000  Uiso   1.00
C28    C     0.15220   0.40170   0.75008   0.00000  Uiso   1.00
C29    C     0.34781   0.09829   0.24994   0.00000  Uiso   1.00
C30    C     0.40045   0.34691   0.75198   0.00000  Uiso   1.00
C31    C     0.09959   0.15314   0.24797   0.00000  Uiso   1.00
C32    C     0.34779   0.09831   0.75009   0.00000  Uiso   1.00
C33    C     0.15220   0.40170   0.24992   0.00000  Uiso   1.00
C34    C     0.49997   0.24987   0.47960   0.00000  Uiso   1.00
C35    C     0.28184   0.49178   0.91850   0.00000  Uiso   1.00
C36    C     0.00003   0.25013   0.52040   0.00000  Uiso   1.00
C37    C     0.25006   0.00005   0.47954   0.00000  Uiso   1.00
C38    C     0.24999   0.49999   0.52047   0.00000  Uiso   1.00
C39    C     0.25000   0.49999   0.97962   0.00000  Uiso   1.00
C40    C     0.25000  -0.00000   0.02042   0.00000  Uiso   1.00
C41    C     0.49998   0.24998   0.97950   0.00000  Uiso   1.00
C42    C     0.49999   0.24999   0.02043   0.00000  Uiso   1.00
C43    C     0.09145   0.18282   0.44712   0.00000  Uiso   1.00
C44    C     0.40850   0.31713   0.55293   0.00000  Uiso   1.00
C45    C     0.35470   0.45581   0.44597   0.00000  Uiso   1.00
C46    C     0.21806   0.00777   0.08150   0.00000  Uiso   1.00
C47    C     0.14546   0.04455   0.55422   0.00000  Uiso   1.00
C48    C     0.40424   0.31424   0.44846   0.00000  Uiso   1.00
C49    C     0.09583   0.18584   0.55157   0.00000  Uiso   1.00
C50    C     0.14434   0.04510   0.44945   0.00000  Uiso   1.00
C51    C     0.35560   0.45461   0.55071   0.00000  Uiso   1.00
C52    C     0.34581   0.43565   0.94854   0.00000  Uiso   1.00
C53    C     0.15856   0.06702   0.05302   0.00000  Uiso   1.00
C54    C     0.10450   0.20546   0.94572   0.00000  Uiso   1.00
C55    C     0.39428   0.29517   0.05063   0.00000  Uiso   1.00
C56    C     0.15413   0.06428   0.94856   0.00000  Uiso   1.00
C57    C     0.02345   0.22710   0.91824   0.00000  Uiso   1.00
C58    C     0.34148   0.43302   0.05301   0.00000  Uiso   1.00
C59    C     0.39540   0.29432   0.94588   0.00000  Uiso   1.00
C60    C     0.10575   0.20499   0.05048   0.00000  Uiso   1.00
C61    C     0.18305   0.38978   0.16796   0.00000  Uiso   1.00
C62    C     0.19121   0.40068   0.12604   0.00000  Uiso   1.00
C63    C     0.31706   0.11006   0.83214   0.00000  Uiso   1.00
C64    C     0.30898   0.09907   0.87404   0.00000  Uiso   1.00
C65    C     0.07849   0.14032   0.16179   0.00000  Uiso   1.00
C66    C     0.04987   0.13377   0.13044   0.00000  Uiso   1.00
C67    C     0.42167   0.36017   0.83810   0.00000  Uiso   1.00
C68    C     0.47630   0.27265   0.08172   0.00000  Uiso   1.00
C69    C     0.45040   0.36671   0.86934   0.00000  Uiso   1.00
C70    C     0.31704   0.11015   0.16794   0.00000  Uiso   1.00
C71    C     0.30894   0.09923   0.12601   0.00000  Uiso   1.00
C72    C     0.18287   0.38998   0.83214   0.00000  Uiso   1.00
C73    C     0.19092   0.40097   0.87405   0.00000  Uiso   1.00
C74    C     0.42167   0.35977   0.16179   0.00000  Uiso   1.00
C75    C     0.45036   0.36633   0.13052   0.00000  Uiso   1.00
C76    C     0.07814   0.13971   0.83809   0.00000  Uiso   1.00
C77    C     0.04931   0.13317   0.86922   0.00000  Uiso   1.00
C78    C     0.11957   0.05844   0.82984   0.00000  Uiso   1.00
C79    C     0.49995   0.24992   0.39830   0.00000  Uiso   1.00
C80    C     0.12277   0.01876   0.84245   0.00000  Uiso   1.00
C81    C     0.37985   0.44085   0.16953   0.00000  Uiso   1.00
C82    C     0.37665   0.48039   0.15644   0.00000  Uiso   1.00
C83    C     0.11522   0.32239   0.83676   0.00000  Uiso   1.00
C84    C     0.08945   0.29363   0.85356   0.00000  Uiso   1.00
C85    C     0.38462   0.17787   0.16348   0.00000  Uiso   1.00
C86    C     0.41038   0.20675   0.14691   0.00000  Uiso   1.00
C87    C     0.38030   0.44148   0.82991   0.00000  Uiso   1.00
C88    C     0.37714   0.48116   0.84257   0.00000  Uiso   1.00
C89    C     0.12025   0.05921   0.16948   0.00000  Uiso   1.00
C90    C     0.00005   0.25008   0.60170   0.00000  Uiso   1.00
C91    C     0.12343   0.01968   0.15635   0.00000  Uiso   1.00
C92    C     0.38474   0.17763   0.83677   0.00000  Uiso   1.00
C93    C     0.41051   0.20638   0.85359   0.00000  Uiso   1.00
C94    C     0.11545   0.32205   0.16351   0.00000  Uiso   1.00
C95    C     0.08968   0.29319   0.14692   0.00000  Uiso   1.00
C96    C     0.43292   0.13991   0.66789   0.00000  Uiso   1.00
C97    C     0.44100   0.15086   0.62597   0.00000  Uiso   1.00
C98    C     0.06696   0.36021   0.33205   0.00000  Uiso   1.00
C99    C     0.05881   0.34930   0.37397   0.00000  Uiso   1.00
C100   C     0.32831   0.39015   0.66181   0.00000  Uiso   1.00
C101   C     0.25000   0.00003   0.39816   0.00000  Uiso   1.00
C102   C     0.29960   0.38355   0.63057   0.00000  Uiso   1.00
C103   C     0.17154   0.10973   0.33820   0.00000  Uiso   1.00
C104   C     0.20015   0.11632   0.36955   0.00000  Uiso   1.00
C105   C     0.06712   0.36003   0.66787   0.00000  Uiso   1.00
C106   C     0.05906   0.34905   0.62596   0.00000  Uiso   1.00
C107   C     0.43297   0.13988   0.33209   0.00000  Uiso   1.00
C108   C     0.44108   0.15085   0.37400   0.00000  Uiso   1.00
C109   C     0.17185   0.11026   0.66191   0.00000  Uiso   1.00
C110   C     0.20071   0.11676   0.63079   0.00000  Uiso   1.00
C111   C     0.32835   0.38990   0.33812   0.00000  Uiso   1.00
C112   C     0.03196   0.24213   0.58149   0.00000  Uiso   1.00
C113   C     0.25001   0.49997   0.60184   0.00000  Uiso   1.00
C114   C     0.29963   0.38340   0.36938   0.00000  Uiso   1.00
C115   C     0.36973   0.30857   0.32996   0.00000  Uiso   1.00
C116   C     0.37288   0.26891   0.34265   0.00000  Uiso   1.00
C117   C     0.13044   0.19154   0.67015   0.00000  Uiso   1.00
C118   C     0.12725   0.23123   0.65754   0.00000  Uiso   1.00
C119   C     0.36529   0.07229   0.33672   0.00000  Uiso   1.00
C120   C     0.33952   0.04354   0.35354   0.00000  Uiso   1.00
C121   C     0.13477   0.42762   0.66325   0.00000  Uiso   1.00
C122   C     0.16054   0.45637   0.64643   0.00000  Uiso   1.00
C123   C     0.12975   0.19081   0.33050   0.00000  Uiso   1.00
C124   C     0.24999   0.49999   0.89830   0.00000  Uiso   1.00
C125   C     0.12657   0.23034   0.34362   0.00000  Uiso   1.00
C126   C     0.37012   0.30909   0.66959   0.00000  Uiso   1.00
C127   C     0.37334   0.26954   0.65653   0.00000  Uiso   1.00
C128   C     0.13456   0.42794   0.33649   0.00000  Uiso   1.00
C129   C     0.16032   0.45681   0.35307   0.00000  Uiso   1.00
C130   C     0.36534   0.07222   0.66343   0.00000  Uiso   1.00
C131   C     0.33958   0.04335   0.64684   0.00000  Uiso   1.00
C132   C     0.25001   0.00000   0.10170   0.00000  Uiso   1.00
C133   C     0.49999   0.25000   0.89815   0.00000  Uiso   1.00
C134   C     0.00000   0.25000   0.10183   0.00000  Uiso   1.00
C135   C     0.06327   0.22918   0.47957   0.00000  Uiso   1.00
C136   C     0.43672   0.27081   0.52043   0.00000  Uiso   1.00
C137   C     0.30065   0.45702   0.47955   0.00000  Uiso   1.00
C138   C     0.19943   0.04307   0.52046   0.00000  Uiso   1.00
C139   C     0.43653   0.27013   0.47955   0.00000  Uiso   1.00
C140   C     0.22642   0.02281   0.41828   0.00000  Uiso   1.00
C141   C     0.06348   0.22989   0.52045   0.00000  Uiso   1.00
C142   C     0.19943   0.04302   0.47956   0.00000  Uiso   1.00
C143   C     0.30058   0.45699   0.52045   0.00000  Uiso   1.00
C144   C     0.31345   0.47979   0.97953   0.00000  Uiso   1.00
C145   C     0.18670   0.02073   0.02044   0.00000  Uiso   1.00
C146   C     0.05056   0.20692   0.97952   0.00000  Uiso   1.00
C147   C     0.44936   0.29294   0.02046   0.00000  Uiso   1.00
C148   C     0.18655   0.02018   0.97956   0.00000  Uiso   1.00
C149   C     0.31330   0.47927   0.02041   0.00000  Uiso   1.00
C150   C     0.44939   0.29303   0.97955   0.00000  Uiso   1.00
C151   C     0.27358   0.47720   0.58172   0.00000  Uiso   1.00
C152   C     0.05063   0.20705   0.02042   0.00000  Uiso   1.00
C153   C     0.24997   0.00000   0.35586   0.00000  Uiso   1.00
C154   C     0.25003  -0.00000   0.64414   0.00000  Uiso   1.00
C155   C     0.49999   0.25003   0.35589   0.00000  Uiso   1.00
C156   C     0.00001   0.24997   0.64411   0.00000  Uiso   1.00
C157   C    -0.00000   0.25000   0.85586   0.00000  Uiso   1.00
C158   C     0.00000   0.25000   0.14413   0.00000  Uiso   1.00
C159   C     0.25000  -0.00000   0.85589   0.00000  Uiso   1.00
C160   C     0.25000   0.00000   0.14411   0.00000  Uiso   1.00
C161   C     0.17928   0.06947   0.25095   0.00000  Uiso   1.00
C162   C     0.03183   0.24189   0.41850   0.00000  Uiso   1.00
C163   C     0.32073   0.43055   0.74903   0.00000  Uiso   1.00
C164   C     0.42989   0.18014   0.24976   0.00000  Uiso   1.00
C165   C     0.07011   0.31986   0.75025   0.00000  Uiso   1.00
C166   C     0.32071   0.43052   0.25094   0.00000  Uiso   1.00
C167   C     0.17927   0.06946   0.74903   0.00000  Uiso   1.00
C168   C     0.07011   0.31986   0.24975   0.00000  Uiso   1.00
C169   C     0.42989   0.18014   0.75025   0.00000  Uiso   1.00
C170   C     0.17989   0.43014   0.74975   0.00000  Uiso   1.00
C171   C     0.32012   0.06986   0.25025   0.00000  Uiso   1.00
C172   C     0.42929   0.31948   0.75094   0.00000  Uiso   1.00
C173   C     0.46817   0.25811   0.58150   0.00000  Uiso   1.00
C174   C     0.07072   0.18053   0.24905   0.00000  Uiso   1.00
C175   C     0.32011   0.06986   0.74976   0.00000  Uiso   1.00
C176   C     0.17989   0.43014   0.25024   0.00000  Uiso   1.00
C177   C     0.07073   0.18054   0.75097   0.00000  Uiso   1.00
C178   C     0.42927   0.31945   0.24903   0.00000  Uiso   1.00
C179   C     0.13798   0.38903   0.21414   0.00000  Uiso   1.00
C180   C     0.36207   0.11092   0.78587   0.00000  Uiso   1.00
C181   C     0.09656   0.12280   0.22252   0.00000  Uiso   1.00
C182   C     0.40358   0.37736   0.77728   0.00000  Uiso   1.00
C183   C     0.36207   0.11093   0.21416   0.00000  Uiso   1.00
C184   C     0.27358   0.47726   0.41825   0.00000  Uiso   1.00
C185   C     0.13790   0.38910   0.78586   0.00000  Uiso   1.00
C186   C     0.40346   0.37720   0.22251   0.00000  Uiso   1.00
C187   C     0.09640   0.12263   0.77728   0.00000  Uiso   1.00
C188   C     0.12058   0.09364   0.77375   0.00000  Uiso   1.00
C189   C     0.37926   0.40619   0.22597   0.00000  Uiso   1.00
C190   C     0.11037   0.36254   0.78565   0.00000  Uiso   1.00
C191   C     0.38959   0.13750   0.21437   0.00000  Uiso   1.00
C192   C     0.37940   0.40636   0.77377   0.00000  Uiso   1.00
C193   C     0.12076   0.09381   0.22597   0.00000  Uiso   1.00
C194   C     0.38960   0.13748   0.78566   0.00000  Uiso   1.00
C195   C     0.22644   0.02277   0.58175   0.00000  Uiso   1.00
C196   C     0.11046   0.36246   0.21435   0.00000  Uiso   1.00
C197   C     0.38792   0.13910   0.71416   0.00000  Uiso   1.00
C198   C     0.11203   0.36096   0.28586   0.00000  Uiso   1.00
C199   C     0.34653   0.37277   0.72254   0.00000  Uiso   1.00
C200   C     0.15345   0.12721   0.27747   0.00000  Uiso   1.00
C201   C     0.11210   0.36090   0.71414   0.00000  Uiso   1.00
C202   C     0.38794   0.13906   0.28587   0.00000  Uiso   1.00
C203   C     0.15360   0.12736   0.72271   0.00000  Uiso   1.00
C204   C     0.34643   0.37266   0.27730   0.00000  Uiso   1.00
C205   C     0.37061   0.34365   0.27379   0.00000  Uiso   1.00
C206   C     0.21815   0.00820   0.91851   0.00000  Uiso   1.00
C207   C     0.12941   0.15636   0.72625   0.00000  Uiso   1.00
C208   C     0.36042   0.11249   0.28566   0.00000  Uiso   1.00
C209   C     0.13962   0.38747   0.71435   0.00000  Uiso   1.00
C210   C     0.12925   0.15620   0.27402   0.00000  Uiso   1.00
C211   C     0.37074   0.34379   0.72600   0.00000  Uiso   1.00
C212   C     0.13955   0.38753   0.28565   0.00000  Uiso   1.00
C213   C     0.36040   0.11253   0.71437   0.00000  Uiso   1.00
C214   C     0.03188   0.24015   0.45912   0.00000  Uiso   1.00
C215   C     0.46812   0.25985   0.54088   0.00000  Uiso   1.00
C216   C     0.27497   0.47796   0.45900   0.00000  Uiso   1.00
H217   H     0.44355   0.26399   0.40236   0.00000  Uiso   1.00
H218   H     0.30665   0.48721   0.09764   0.00000  Uiso   1.00
H219   H     0.07992   0.16951   0.83225   0.00000  Uiso   1.00
H220   H     0.10497   0.13124   0.84989   0.00000  Uiso   1.00
H221   H     0.05795   0.14614   0.89694   0.00000  Uiso   1.00
H222   H     0.02303   0.14496   0.85982   0.00000  Uiso   1.00
H223   H     0.04545   0.10348   0.87437   0.00000  Uiso   1.00
H224   H     0.09688   0.06986   0.84692   0.00000  Uiso   1.00
H225   H     0.14548   0.07305   0.83719   0.00000  Uiso   1.00
H226   H     0.09700   0.00376   0.83609   0.00000  Uiso   1.00
H227   H     0.14533   0.00531   0.82684   0.00000  Uiso   1.00
H228   H     0.12815   0.01733   0.87425   0.00000  Uiso   1.00
H229   H     0.45884   0.29042   0.90172   0.00000  Uiso   1.00
H230   H     0.35387   0.42620   0.16255   0.00000  Uiso   1.00
H231   H     0.40242   0.42924   0.15242   0.00000  Uiso   1.00
H232   H     0.37132   0.48143   0.12461   0.00000  Uiso   1.00
H233   H     0.35407   0.49399   0.17188   0.00000  Uiso   1.00
H234   H     0.40240   0.49546   0.16263   0.00000  Uiso   1.00
H235   H     0.13200   0.33345   0.86103   0.00000  Uiso   1.00
H236   H     0.13362   0.30852   0.81560   0.00000  Uiso   1.00
H237   H     0.07003   0.30638   0.87414   0.00000  Uiso   1.00
H238   H     0.07411   0.28003   0.82967   0.00000  Uiso   1.00
H239   H     0.10522   0.27267   0.86944   0.00000  Uiso   1.00
H240   H     0.04192   0.21024   0.09819   0.00000  Uiso   1.00
H241   H     0.36622   0.19159   0.18474   0.00000  Uiso   1.00
H242   H     0.36784   0.16698   0.13912   0.00000  Uiso   1.00
H243   H     0.39458   0.22789   0.13136   0.00000  Uiso   1.00
H244   H     0.42584   0.22009   0.17088   0.00000  Uiso   1.00
H245   H     0.42971   0.19418   0.12609   0.00000  Uiso   1.00
H246   H     0.40293   0.43001   0.84703   0.00000  Uiso   1.00
H247   H     0.35435   0.42690   0.83717   0.00000  Uiso   1.00
H248   H     0.40294   0.49612   0.83630   0.00000  Uiso   1.00
H249   H     0.35463   0.49466   0.82692   0.00000  Uiso   1.00
H250   H     0.37168   0.48255   0.87436   0.00000  Uiso   1.00
H251   H     0.30629   0.48552   0.90232   0.00000  Uiso   1.00
H252   H     0.14626   0.07383   0.16256   0.00000  Uiso   1.00
H253   H     0.09772   0.07086   0.15235   0.00000  Uiso   1.00
H254   H     0.12881   0.01866   0.12452   0.00000  Uiso   1.00
H255   H     0.14596   0.00603   0.17181   0.00000  Uiso   1.00
H256   H     0.09764   0.00463   0.16248   0.00000  Uiso   1.00
H257   H     0.36795   0.16658   0.86104   0.00000  Uiso   1.00
H258   H     0.36637   0.19151   0.81561   0.00000  Uiso   1.00
H259   H     0.42992   0.19362   0.87417   0.00000  Uiso   1.00
H260   H     0.42588   0.21997   0.82970   0.00000  Uiso   1.00
H261   H     0.39475   0.22734   0.86945   0.00000  Uiso   1.00
H262   H     0.19336   0.01279   0.09766   0.00000  Uiso   1.00
H263   H     0.13380   0.30833   0.18480   0.00000  Uiso   1.00
H264   H     0.13227   0.33292   0.13916   0.00000  Uiso   1.00
H265   H     0.10548   0.27202   0.13142   0.00000  Uiso   1.00
H266   H     0.07418   0.27988   0.17088   0.00000  Uiso   1.00
H267   H     0.07040   0.30576   0.12607   0.00000  Uiso   1.00
H268   H     0.43338   0.10961   0.66991   0.00000  Uiso   1.00
H269   H     0.45513   0.15114   0.68644   0.00000  Uiso   1.00
H270   H     0.41975   0.13947   0.60627   0.00000  Uiso   1.00
H271   H     0.44151   0.18106   0.62330   0.00000  Uiso   1.00
H272   H     0.46792   0.14022   0.61705   0.00000  Uiso   1.00
H273   H     0.04116   0.20958   0.90170   0.00000  Uiso   1.00
H274   H     0.04478   0.34895   0.31348   0.00000  Uiso   1.00
H275   H     0.06651   0.39050   0.32999   0.00000  Uiso   1.00
H276   H     0.03189   0.35996   0.38283   0.00000  Uiso   1.00
H277   H     0.05830   0.31911   0.37668   0.00000  Uiso   1.00
H278   H     0.08004   0.36071   0.39369   0.00000  Uiso   1.00
H279   H     0.35523   0.38194   0.65005   0.00000  Uiso   1.00
H280   H     0.32986   0.41992   0.66781   0.00000  Uiso   1.00
H281   H     0.29590   0.35386   0.62531   0.00000  Uiso   1.00
H282   H     0.27324   0.39519   0.63992   0.00000  Uiso   1.00
H283   H     0.30829   0.39663   0.60293   0.00000  Uiso   1.00
H284   H     0.45809   0.28976   0.09821   0.00000  Uiso   1.00
H285   H     0.17004   0.07996   0.33215   0.00000  Uiso   1.00
H286   H     0.14457   0.11789   0.34989   0.00000  Uiso   1.00
H287   H     0.19137   0.10324   0.39715   0.00000  Uiso   1.00
H288   H     0.22654   0.10468   0.36029   0.00000  Uiso   1.00
H289   H     0.20384   0.14601   0.37483   0.00000  Uiso   1.00
H290   H     0.06664   0.39033   0.66986   0.00000  Uiso   1.00
H291   H     0.04491   0.34881   0.68642   0.00000  Uiso   1.00
H292   H     0.08030   0.36044   0.60624   0.00000  Uiso   1.00
H293   H     0.05858   0.31884   0.62330   0.00000  Uiso   1.00
H294   H     0.03214   0.35966   0.61702   0.00000  Uiso   1.00
H295   H     0.11892   0.17059   0.44695   0.00000  Uiso   1.00
H296   H     0.45516   0.15112   0.31352   0.00000  Uiso   1.00
H297   H     0.43344   0.10959   0.33008   0.00000  Uiso   1.00
H298   H     0.46800   0.14022   0.38290   0.00000  Uiso   1.00
H299   H     0.44156   0.18105   0.37668   0.00000  Uiso   1.00
H300   H     0.41985   0.13944   0.39374   0.00000  Uiso   1.00
H301   H     0.14504   0.11875   0.65009   0.00000  Uiso   1.00
H302   H     0.17005   0.08047   0.66777   0.00000  Uiso   1.00
H303   H     0.22698   0.10499   0.64024   0.00000  Uiso   1.00
H304   H     0.19209   0.10375   0.60309   0.00000  Uiso   1.00
H305   H     0.20456   0.14644   0.62560   0.00000  Uiso   1.00
H306   H     0.08110   0.18186   0.41677   0.00000  Uiso   1.00
H307   H     0.33008   0.41968   0.33220   0.00000  Uiso   1.00
H308   H     0.35523   0.38146   0.34984   0.00000  Uiso   1.00
H309   H     0.30837   0.39642   0.39703   0.00000  Uiso   1.00
H310   H     0.27332   0.39517   0.36005   0.00000  Uiso   1.00
H311   H     0.29579   0.35372   0.37460   0.00000  Uiso   1.00
H312   H     0.34710   0.32007   0.34709   0.00000  Uiso   1.00
H313   H     0.39569   0.32315   0.33719   0.00000  Uiso   1.00
H314   H     0.34707   0.25395   0.33640   0.00000  Uiso   1.00
H315   H     0.39538   0.25539   0.32700   0.00000  Uiso   1.00
H316   H     0.37833   0.26753   0.37444   0.00000  Uiso   1.00
H317   H     0.07368   0.16523   0.46585   0.00000  Uiso   1.00
H318   H     0.10454   0.17693   0.66279   0.00000  Uiso   1.00
H319   H     0.15315   0.18013   0.65308   0.00000  Uiso   1.00
H320   H     0.12190   0.23265   0.62573   0.00000  Uiso   1.00
H321   H     0.10466   0.24467   0.67312   0.00000  Uiso   1.00
H322   H     0.15300   0.24624   0.66392   0.00000  Uiso   1.00
H323   H     0.38211   0.08332   0.36098   0.00000  Uiso   1.00
H324   H     0.38364   0.05842   0.31552   0.00000  Uiso   1.00
H325   H     0.32014   0.05629   0.37416   0.00000  Uiso   1.00
H326   H     0.32412   0.02998   0.32966   0.00000  Uiso   1.00
H327   H     0.35529   0.02255   0.36936   0.00000  Uiso   1.00
H328   H     0.05645   0.23601   0.59764   0.00000  Uiso   1.00
H329   H     0.41854   0.31803   0.58340   0.00000  Uiso   1.00
H330   H     0.11639   0.44149   0.68440   0.00000  Uiso   1.00
H331   H     0.11799   0.41656   0.63897   0.00000  Uiso   1.00
H332   H     0.14478   0.47734   0.63057   0.00000  Uiso   1.00
H333   H     0.17589   0.46997   0.67032   0.00000  Uiso   1.00
H334   H     0.17996   0.44362   0.62585   0.00000  Uiso   1.00
H335   H     0.15226   0.17917   0.34765   0.00000  Uiso   1.00
H336   H     0.10374   0.17619   0.33742   0.00000  Uiso   1.00
H337   H     0.15236   0.24539   0.33751   0.00000  Uiso   1.00
H338   H     0.10404   0.24399   0.32815   0.00000  Uiso   1.00
H339   H     0.12116   0.23137   0.37545   0.00000  Uiso   1.00
H340   H     0.38107   0.32943   0.55279   0.00000  Uiso   1.00
H341   H     0.39609   0.32374   0.66257   0.00000  Uiso   1.00
H342   H     0.34754   0.32067   0.65249   0.00000  Uiso   1.00
H343   H     0.37867   0.26848   0.62469   0.00000  Uiso   1.00
H344   H     0.39592   0.25596   0.67197   0.00000  Uiso   1.00
H345   H     0.34759   0.25447   0.66273   0.00000  Uiso   1.00
H346   H     0.11774   0.41707   0.36084   0.00000  Uiso   1.00
H347   H     0.11619   0.44166   0.31521   0.00000  Uiso   1.00
H348   H     0.17961   0.44424   0.37392   0.00000  Uiso   1.00
H349   H     0.17582   0.47012   0.32910   0.00000  Uiso   1.00
H350   H     0.14452   0.47798   0.36857   0.00000  Uiso   1.00
H351   H     0.42651   0.33469   0.53443   0.00000  Uiso   1.00
H352   H     0.38376   0.05848   0.68464   0.00000  Uiso   1.00
H353   H     0.38210   0.08315   0.63906   0.00000  Uiso   1.00
H354   H     0.35538   0.02224   0.63125   0.00000  Uiso   1.00
H355   H     0.32416   0.02997   0.67082   0.00000  Uiso   1.00
H356   H     0.32023   0.05593   0.62608   0.00000  Uiso   1.00
H357   H     0.35679   0.48409   0.45792   0.00000  Uiso   1.00
H358   H     0.35329   0.45738   0.41371   0.00000  Uiso   1.00
H359   H     0.38026   0.44162   0.45347   0.00000  Uiso   1.00
H360   H     0.14635   0.04411   0.58654   0.00000  Uiso   1.00
H361   H     0.14390   0.01583   0.54341   0.00000  Uiso   1.00
H362   H     0.11988   0.05818   0.54566   0.00000  Uiso   1.00
H363   H     0.38232   0.31796   0.42664   0.00000  Uiso   1.00
H364   H     0.20828   0.03999   0.40181   0.00000  Uiso   1.00
H365   H     0.43022   0.32331   0.43458   0.00000  Uiso   1.00
H366   H     0.39788   0.33202   0.47362   0.00000  Uiso   1.00
H367   H     0.06977   0.17665   0.56521   0.00000  Uiso   1.00
H368   H     0.11759   0.18222   0.57360   0.00000  Uiso   1.00
H369   H     0.10248   0.16808   0.52648   0.00000  Uiso   1.00
H370   H     0.15108   0.02086   0.43144   0.00000  Uiso   1.00
H371   H     0.12645   0.06271   0.43168   0.00000  Uiso   1.00
H372   H     0.12867   0.03640   0.47556   0.00000  Uiso   1.00
H373   H     0.37305   0.43709   0.56908   0.00000  Uiso   1.00
H374   H     0.34893   0.47922   0.56816   0.00000  Uiso   1.00
H375   H     0.29172   0.46001   0.59820   0.00000  Uiso   1.00
H376   H     0.37171   0.46267   0.52468   0.00000  Uiso   1.00
H377   H     0.36739   0.43201   0.92632   0.00000  Uiso   1.00
H378   H     0.31967   0.42630   0.93521   0.00000  Uiso   1.00
H379   H     0.35274   0.41804   0.97366   0.00000  Uiso   1.00
H380   H     0.16938   0.06793   0.08318   0.00000  Uiso   1.00
H381   H     0.13104   0.07912   0.05373   0.00000  Uiso   1.00
H382   H     0.17595   0.08472   0.03403   0.00000  Uiso   1.00
H383   H     0.10624   0.23407   0.95681   0.00000  Uiso   1.00
H384   H     0.10339   0.20618   0.91341   0.00000  Uiso   1.00
H385   H     0.13009   0.19167   0.95393   0.00000  Uiso   1.00
H386   H     0.05649   0.23671   0.40232   0.00000  Uiso   1.00
H387   H     0.37674   0.31264   0.06895   0.00000  Uiso   1.00
H388   H     0.40096   0.27057   0.06808   0.00000  Uiso   1.00
H389   H     0.37827   0.28708   0.02454   0.00000  Uiso   1.00
H390   H     0.13267   0.06784   0.92620   0.00000  Uiso   1.00
H391   H     0.18032   0.07372   0.93540   0.00000  Uiso   1.00
H392   H     0.14699   0.08188   0.97362   0.00000  Uiso   1.00
H393   H     0.33089   0.43216   0.08328   0.00000  Uiso   1.00
H394   H     0.36897   0.42086   0.05348   0.00000  Uiso   1.00
H395   H     0.32390   0.41533   0.03421   0.00000  Uiso   1.00
H396   H     0.39336   0.26596   0.95763   0.00000  Uiso   1.00
H397   H     0.44351   0.26329   0.59768   0.00000  Uiso   1.00
H398   H     0.39680   0.29294   0.91360   0.00000  Uiso   1.00
H399   H     0.36982   0.30842   0.95349   0.00000  Uiso   1.00
H400   H     0.12356   0.18747   0.06844   0.00000  Uiso   1.00
H401   H     0.09904   0.22938   0.06826   0.00000  Uiso   1.00
H402   H     0.12151   0.21346   0.02433   0.00000  Uiso   1.00
H403   H     0.18350   0.35949   0.17002   0.00000  Uiso   1.00
H404   H     0.20523   0.40103   0.18653   0.00000  Uiso   1.00
H405   H     0.16999   0.38927   0.10631   0.00000  Uiso   1.00
H406   H     0.19172   0.43088   0.12332   0.00000  Uiso   1.00
H407   H     0.21814   0.39003   0.11718   0.00000  Uiso   1.00
H408   H     0.29132   0.45978   0.40171   0.00000  Uiso   1.00
H409   H     0.29486   0.09883   0.81357   0.00000  Uiso   1.00
H410   H     0.31659   0.14036   0.83015   0.00000  Uiso   1.00
H411   H     0.28206   0.10969   0.88297   0.00000  Uiso   1.00
H412   H     0.30849   0.06887   0.87669   0.00000  Uiso   1.00
H413   H     0.33022   0.11046   0.89377   0.00000  Uiso   1.00
H414   H     0.10545   0.13214   0.15009   0.00000  Uiso   1.00
H415   H     0.08001   0.17008   0.16787   0.00000  Uiso   1.00
H416   H     0.04619   0.10409   0.12511   0.00000  Uiso   1.00
H417   H     0.02348   0.14539   0.13974   0.00000  Uiso   1.00
H418   H     0.05863   0.14691   0.10287   0.00000  Uiso   1.00
H419   H     0.20866   0.04021   0.59830   0.00000  Uiso   1.00
H420   H     0.41994   0.33038   0.83222   0.00000  Uiso   1.00
H421   H     0.39480   0.36862   0.84983   0.00000  Uiso   1.00
H422   H     0.44166   0.35373   0.89702   0.00000  Uiso   1.00
H423   H     0.47671   0.35491   0.86001   0.00000  Uiso   1.00
H424   H     0.45425   0.39639   0.87451   0.00000  Uiso   1.00
H425   H     0.31659   0.14044   0.16998   0.00000  Uiso   1.00
H426   H     0.29484   0.09890   0.18649   0.00000  Uiso   1.00
H427   H     0.33018   0.11063   0.10630   0.00000  Uiso   1.00
H428   H     0.30844   0.06903   0.12331   0.00000  Uiso   1.00
H429   H     0.28202   0.10987   0.11713   0.00000  Uiso   1.00
H430   H     0.19370   0.01446   0.90235   0.00000  Uiso   1.00
H431   H     0.20509   0.40120   0.81359   0.00000  Uiso   1.00
H432   H     0.18335   0.35968   0.83015   0.00000  Uiso   1.00
H433   H     0.21784   0.39035   0.88299   0.00000  Uiso   1.00
H434   H     0.19141   0.43117   0.87670   0.00000  Uiso   1.00
H435   H     0.16967   0.38958   0.89376   0.00000  Uiso   1.00
H436   H     0.39473   0.36797   0.15003   0.00000  Uiso   1.00
H437   H     0.42011   0.33000   0.16783   0.00000  Uiso   1.00
H438   H     0.45405   0.39601   0.12521   0.00000  Uiso   1.00
H439   H     0.47673   0.35472   0.13988   0.00000  Uiso   1.00
H440   H     0.44168   0.35320   0.10292   0.00000  Uiso   1.00
O441   O     0.25000  -0.00000   0.25000   0.00000  Uiso   1.00
O442   O     0.25000   0.46963   0.66245   0.00000  Uiso   1.00
O443   O     0.34491   0.10107   0.67954   0.00000  Uiso   1.00
O444   O     0.46964   0.25000   0.33755   0.00000  Uiso   1.00
O445   O     0.03037   0.25000   0.66245   0.00000  Uiso   1.00
O446   O     0.00000   0.21963   0.83755   0.00000  Uiso   1.00
O447   O     0.00000   0.28036   0.16245   0.00000  Uiso   1.00
O448   O     0.28037  -0.00000   0.83755   0.00000  Uiso   1.00
O449   O     0.21964  -0.00000   0.16245   0.00000  Uiso   1.00
O450   O     0.00000   0.28036   0.83755   0.00000  Uiso   1.00
O451   O     0.00000   0.21963   0.16245   0.00000  Uiso   1.00
O452   O     0.21964  -0.00000   0.83755   0.00000  Uiso   1.00
O453   O     0.25000  -0.00000   0.75000   0.00000  Uiso   1.00
O454   O     0.28037  -0.00000   0.16245   0.00000  Uiso   1.00
O455   O     0.20725   0.07307   0.27302   0.00000  Uiso   1.00
O456   O     0.29276   0.42692   0.72698   0.00000  Uiso   1.00
O457   O     0.42693   0.20724   0.27302   0.00000  Uiso   1.00
O458   O     0.07308   0.29275   0.72698   0.00000  Uiso   1.00
O459   O     0.29276   0.42692   0.27302   0.00000  Uiso   1.00
O460   O     0.20725   0.07307   0.72698   0.00000  Uiso   1.00
O461   O     0.07308   0.29275   0.27302   0.00000  Uiso   1.00
O462   O     0.42693   0.20724   0.72698   0.00000  Uiso   1.00
O463   O     0.20725   0.42692   0.72698   0.00000  Uiso   1.00
O464   O     0.00000   0.25000   0.25000   0.00000  Uiso   1.00
O465   O     0.29276   0.07307   0.27302   0.00000  Uiso   1.00
O466   O     0.42693   0.29275   0.72698   0.00000  Uiso   1.00
O467   O     0.07308   0.20724   0.27302   0.00000  Uiso   1.00
O468   O     0.29276   0.07307   0.72698   0.00000  Uiso   1.00
O469   O     0.20725   0.42692   0.27302   0.00000  Uiso   1.00
O470   O     0.07308   0.20724   0.72698   0.00000  Uiso   1.00
O471   O     0.42693   0.29275   0.27302   0.00000  Uiso   1.00
O472   O     0.45725   0.32307   0.77302   0.00000  Uiso   1.00
O473   O     0.04276   0.17692   0.22698   0.00000  Uiso   1.00
O474   O     0.17693   0.45724   0.77302   0.00000  Uiso   1.00
O475   O     0.00000   0.25000   0.75000   0.00000  Uiso   1.00
O476   O     0.32308   0.04275   0.22698   0.00000  Uiso   1.00
O477   O     0.04276   0.17692   0.77302   0.00000  Uiso   1.00
O478   O     0.45725   0.32307   0.22698   0.00000  Uiso   1.00
O479   O     0.32308   0.04275   0.77302   0.00000  Uiso   1.00
O480   O     0.17693   0.45724   0.22698   0.00000  Uiso   1.00
O481   O     0.45725   0.17692   0.22698   0.00000  Uiso   1.00
O482   O     0.04276   0.32307   0.77302   0.00000  Uiso   1.00
O483   O     0.17693   0.04275   0.22698   0.00000  Uiso   1.00
O484   O     0.32308   0.45724   0.77302   0.00000  Uiso   1.00
O485   O     0.04276   0.32307   0.22698   0.00000  Uiso   1.00
O486   O     0.25000   0.46963   0.33755   0.00000  Uiso   1.00
O487   O     0.45725   0.17692   0.77302   0.00000  Uiso   1.00
O488   O     0.32308   0.45724   0.22698   0.00000  Uiso   1.00
O489   O     0.17693   0.04275   0.77302   0.00000  Uiso   1.00
O490   O     0.09473   0.21936   0.46013   0.00000  Uiso   1.00
O491   O     0.40526   0.28060   0.53987   0.00000  Uiso   1.00
O492   O     0.32497   0.43481   0.46021   0.00000  Uiso   1.00
O493   O     0.17523   0.06540   0.53980   0.00000  Uiso   1.00
O494   O     0.40448   0.27722   0.45982   0.00000  Uiso   1.00
O495   O     0.09553   0.22284   0.54019   0.00000  Uiso   1.00
O496   O     0.17564   0.06552   0.45995   0.00000  Uiso   1.00
O497   O     0.25000   0.03036   0.66245   0.00000  Uiso   1.00
O498   O     0.32425   0.43435   0.54007   0.00000  Uiso   1.00
O499   O     0.34548   0.47270   0.95976   0.00000  Uiso   1.00
O500   O     0.15524   0.03052   0.03989   0.00000  Uiso   1.00
O501   O     0.07477   0.18459   0.96018   0.00000  Uiso   1.00
O502   O     0.42563   0.31550   0.04010   0.00000  Uiso   1.00
O503   O     0.15450   0.02724   0.95981   0.00000  Uiso   1.00
O504   O     0.34478   0.46951   0.03984   0.00000  Uiso   1.00
O505   O     0.42511   0.31528   0.96023   0.00000  Uiso   1.00
O506   O     0.07444   0.18457   0.04004   0.00000  Uiso   1.00
O507   O     0.14889   0.40400   0.17884   0.00000  Uiso   1.00
O508   O     0.03037   0.25000   0.33755   0.00000  Uiso   1.00
O509   O     0.35122   0.09588   0.82116   0.00000  Uiso   1.00
O510   O     0.06869   0.12005   0.19550   0.00000  Uiso   1.00
O511   O     0.43150   0.38018   0.80423   0.00000  Uiso   1.00
O512   O     0.35120   0.09593   0.17886   0.00000  Uiso   1.00
O513   O     0.14872   0.40415   0.82115   0.00000  Uiso   1.00
O514   O     0.43138   0.38000   0.19555   0.00000  Uiso   1.00
O515   O     0.06841   0.11975   0.80416   0.00000  Uiso   1.00
O516   O     0.11137   0.05982   0.78958   0.00000  Uiso   1.00
O517   O     0.38831   0.43988   0.20974   0.00000  Uiso   1.00
O518   O     0.09479   0.35115   0.82046   0.00000  Uiso   1.00
O519   O     0.46964   0.25000   0.66245   0.00000  Uiso   1.00
O520   O     0.40506   0.14900   0.17954   0.00000  Uiso   1.00
O521   O     0.38860   0.44015   0.78967   0.00000  Uiso   1.00
O522   O     0.11172   0.06014   0.20968   0.00000  Uiso   1.00
O523   O     0.40517   0.14887   0.82047   0.00000  Uiso   1.00
O524   O     0.09501   0.35095   0.17952   0.00000  Uiso   1.00
O525   O     0.39877   0.15412   0.67886   0.00000  Uiso   1.00
O526   O     0.10112   0.34599   0.32116   0.00000  Uiso   1.00
O527   O     0.31859   0.36996   0.69560   0.00000  Uiso   1.00
O528   O     0.18133   0.12997   0.30447   0.00000  Uiso   1.00
O529   O     0.10127   0.34586   0.67885   0.00000  Uiso   1.00
O530   O     0.25000   0.03036   0.33755   0.00000  Uiso   1.00
O531   O     0.39880   0.15407   0.32117   0.00000  Uiso   1.00
O532   O     0.18159   0.13024   0.69583   0.00000  Uiso   1.00
O533   O     0.31851   0.36986   0.30428   0.00000  Uiso   1.00
O534   O     0.36141   0.30987   0.28973   0.00000  Uiso   1.00
O535   O     0.13863   0.19018   0.71041   0.00000  Uiso   1.00
O536   O     0.34486   0.10107   0.32048   0.00000  Uiso   1.00
O537   O     0.15520   0.39886   0.67954   0.00000  Uiso   1.00
O538   O     0.13829   0.18988   0.29031   0.00000  Uiso   1.00
O539   O     0.36168   0.31009   0.70980   0.00000  Uiso   1.00
O540   O     0.15499   0.39904   0.32048   0.00000  Uiso   1.00
Zn541  Zn    0.20660  -0.00000   0.21735   0.00000  Uiso   1.00
Zn542  Zn    0.04341   0.25000   0.28265   0.00000  Uiso   1.00
Zn543  Zn    0.25000   0.45659   0.71735   0.00000  Uiso   1.00
Zn544  Zn    0.25000   0.04340   0.28265   0.00000  Uiso   1.00
Zn545  Zn    0.04341   0.25000   0.71735   0.00000  Uiso   1.00
Zn546  Zn    0.45660   0.25000   0.28265   0.00000  Uiso   1.00
Zn547  Zn    0.25000   0.04340   0.71735   0.00000  Uiso   1.00
Zn548  Zn    0.25000   0.45659   0.28265   0.00000  Uiso   1.00
Zn549  Zn    0.29341  -0.00000   0.78265   0.00000  Uiso   1.00
Zn550  Zn    0.00000   0.20659   0.21735   0.00000  Uiso   1.00
Zn551  Zn    0.00000   0.29340   0.78265   0.00000  Uiso   1.00
Zn552  Zn    0.29341  -0.00000   0.21735   0.00000  Uiso   1.00
Zn553  Zn    0.20660  -0.00000   0.78265   0.00000  Uiso   1.00
Zn554  Zn    0.00000   0.29340   0.21735   0.00000  Uiso   1.00
Zn555  Zn    0.00000   0.20659   0.78265   0.00000  Uiso   1.00
Zn556  Zn    0.45660   0.25000   0.71735   0.00000  Uiso   1.00
C557   C     0.96804   0.25788   0.41851   0.00000  Uiso   1.00
C558   C     0.78195   0.49224   0.08148   0.00000  Uiso   1.00
C559   C     0.72509   0.02209   0.54101   0.00000  Uiso   1.00
C560   C     0.96796   0.25928   0.45915   0.00000  Uiso   1.00
C561   C     0.53204   0.24073   0.54085   0.00000  Uiso   1.00
C562   C     0.72518   0.02216   0.45904   0.00000  Uiso   1.00
C563   C     0.77484   0.47785   0.54097   0.00000  Uiso   1.00
C564   C     0.78198   0.49054   0.95915   0.00000  Uiso   1.00
C565   C     0.71806   0.00966   0.04089   0.00000  Uiso   1.00
C566   C     0.52486   0.22784   0.95897   0.00000  Uiso   1.00
C567   C     0.97509   0.27206   0.04096   0.00000  Uiso   1.00
C568   C     0.71801   0.00944   0.95916   0.00000  Uiso   1.00
C569   C     0.97652   0.27288   0.91825   0.00000  Uiso   1.00
C570   C     0.78195   0.49034   0.04088   0.00000  Uiso   1.00
C571   C     0.97510   0.27212   0.95899   0.00000  Uiso   1.00
C572   C     0.52491   0.22794   0.04094   0.00000  Uiso   1.00
C573   C     0.59780   0.34830   0.25007   0.00000  Uiso   1.00
C574   C     0.90219   0.15170   0.74994   0.00000  Uiso   1.00
C575   C     0.65041   0.09687   0.25202   0.00000  Uiso   1.00
C576   C     0.84963   0.40318   0.74788   0.00000  Uiso   1.00
C577   C     0.90220   0.15169   0.25009   0.00000  Uiso   1.00
C578   C     0.59780   0.34830   0.74992   0.00000  Uiso   1.00
C579   C     0.84955   0.40309   0.25198   0.00000  Uiso   1.00
C580   C     0.52370   0.22735   0.08171   0.00000  Uiso   1.00
C581   C     0.65040   0.09686   0.74793   0.00000  Uiso   1.00
C582   C     0.59959   0.15313   0.75207   0.00000  Uiso   1.00
C583   C     0.90037   0.34681   0.24788   0.00000  Uiso   1.00
C584   C     0.65220   0.40170   0.75008   0.00000  Uiso   1.00
C585   C     0.84781   0.09829   0.24994   0.00000  Uiso   1.00
C586   C     0.90045   0.34691   0.75198   0.00000  Uiso   1.00
C587   C     0.59959   0.15314   0.24797   0.00000  Uiso   1.00
C588   C     0.84779   0.09831   0.75009   0.00000  Uiso   1.00
C589   C     0.65220   0.40170   0.24992   0.00000  Uiso   1.00
C590   C     0.99997   0.24987   0.47960   0.00000  Uiso   1.00
C591   C     0.78184   0.49178   0.91850   0.00000  Uiso   1.00
C592   C     0.50003   0.25013   0.52040   0.00000  Uiso   1.00
C593   C     0.75006   0.00005   0.47954   0.00000  Uiso   1.00
C594   C     0.74999   0.49999   0.52047   0.00000  Uiso   1.00
C595   C     0.75000   0.49999   0.97962   0.00000  Uiso   1.00
C596   C     0.75000  -0.00000   0.02042   0.00000  Uiso   1.00
C597   C     0.99998   0.24998   0.97950   0.00000  Uiso   1.00
C598   C     0.99999   0.24999   0.02043   0.00000  Uiso   1.00
C599   C     0.59145   0.18282   0.44712   0.00000  Uiso   1.00
C600   C     0.90850   0.31713   0.55293   0.00000  Uiso   1.00
C601   C     0.85470   0.45581   0.44597   0.00000  Uiso   1.00
C602   C     0.71806   0.00777   0.08150   0.00000  Uiso   1.00
C603   C     0.64546   0.04455   0.55422   0.00000  Uiso   1.00
C604   C     0.90424   0.31424   0.44846   0.00000  Uiso   1.00
C605   C     0.59583   0.18584   0.55157   0.00000  Uiso   1.00
C606   C     0.64434   0.04510   0.44945   0.00000  Uiso   1.00
C607   C     0.85560   0.45461   0.55071   0.00000  Uiso   1.00
C608   C     0.84581   0.43565   0.94854   0.00000  Uiso   1.00
C609   C     0.65856   0.06702   0.05302   0.00000  Uiso   1.00
C610   C     0.60450   0.20546   0.94572   0.00000  Uiso   1.00
C611   C     0.89428   0.29517   0.05063   0.00000  Uiso   1.00
C612   C     0.65413   0.06428   0.94856   0.00000  Uiso   1.00
C613   C     0.52345   0.22710   0.91824   0.00000  Uiso   1.00
C614   C     0.84148   0.43302   0.05301   0.00000  Uiso   1.00
C615   C     0.89540   0.29432   0.94588   0.00000  Uiso   1.00
C616   C     0.60575   0.20499   0.05048   0.00000  Uiso   1.00
C617   C     0.68305   0.38978   0.16796   0.00000  Uiso   1.00
C618   C     0.69121   0.40068   0.12604   0.00000  Uiso   1.00
C619   C     0.81706   0.11006   0.83214   0.00000  Uiso   1.00
C620   C     0.80898   0.09907   0.87404   0.00000  Uiso   1.00
C621   C     0.57849   0.14032   0.16179   0.00000  Uiso   1.00
C622   C     0.54987   0.13377   0.13044   0.00000  Uiso   1.00
C623   C     0.92167   0.36017   0.83810   0.00000  Uiso   1.00
C624   C     0.97630   0.27265   0.08172   0.00000  Uiso   1.00
C625   C     0.95040   0.36671   0.86934   0.00000  Uiso   1.00
C626   C     0.81704   0.11015   0.16794   0.00000  Uiso   1.00
C627   C     0.80894   0.09923   0.12601   0.00000  Uiso   1.00
C628   C     0.68287   0.38998   0.83214   0.00000  Uiso   1.00
C629   C     0.69092   0.40097   0.87405   0.00000  Uiso   1.00
C630   C     0.92167   0.35977   0.16179   0.00000  Uiso   1.00
C631   C     0.95036   0.36633   0.13052   0.00000  Uiso   1.00
C632   C     0.57814   0.13971   0.83809   0.00000  Uiso   1.00
C633   C     0.54931   0.13317   0.86922   0.00000  Uiso   1.00
C634   C     0.61957   0.05844   0.82984   0.00000  Uiso   1.00
C635   C     0.99995   0.24992   0.39830   0.00000  Uiso   1.00
C636   C     0.62277   0.01876   0.84245   0.00000  Uiso   1.00
C637   C     0.87985   0.44085   0.16953   0.00000  Uiso   1.00
C638   C     0.87665   0.48039   0.15644   0.00000  Uiso   1.00
C639   C     0.61522   0.32239   0.83676   0.00000  Uiso   1.00
C640   C     0.58945   0.29363   0.85356   0.00000  Uiso   1.00
C641   C     0.88462   0.17787   0.16348   0.00000  Uiso   1.00
C642   C     0.91038   0.20675   0.14691   0.00000  Uiso   1.00
C643   C     0.88030   0.44148   0.82991   0.00000  Uiso   1.00
C644   C     0.87714   0.48116   0.84257   0.00000  Uiso   1.00
C645   C     0.62025   0.05921   0.16948   0.00000  Uiso   1.00
C646   C     0.50005   0.25008   0.60170   0.00000  Uiso   1.00
C647   C     0.62343   0.01968   0.15635   0.00000  Uiso   1.00
C648   C     0.88474   0.17763   0.83677   0.00000  Uiso   1.00
C649   C     0.91051   0.20638   0.85359   0.00000  Uiso   1.00
C650   C     0.61545   0.32205   0.16351   0.00000  Uiso   1.00
C651   C     0.58968   0.29319   0.14692   0.00000  Uiso   1.00
C652   C     0.93292   0.13991   0.66789   0.00000  Uiso   1.00
C653   C     0.94100   0.15086   0.62597   0.00000  Uiso   1.00
C654   C     0.56696   0.36021   0.33205   0.00000  Uiso   1.00
C655   C     0.55881   0.34930   0.37397   0.00000  Uiso   1.00
C656   C     0.82831   0.39015   0.66181   0.00000  Uiso   1.00
C657   C     0.75000   0.00003   0.39816   0.00000  Uiso   1.00
C658   C     0.79960   0.38355   0.63057   0.00000  Uiso   1.00
C659   C     0.67154   0.10973   0.33820   0.00000  Uiso   1.00
C660   C     0.70015   0.11632   0.36955   0.00000  Uiso   1.00
C661   C     0.56712   0.36003   0.66787   0.00000  Uiso   1.00
C662   C     0.55906   0.34905   0.62596   0.00000  Uiso   1.00
C663   C     0.93297   0.13988   0.33209   0.00000  Uiso   1.00
C664   C     0.94108   0.15085   0.37400   0.00000  Uiso   1.00
C665   C     0.67185   0.11026   0.66191   0.00000  Uiso   1.00
C666   C     0.70071   0.11676   0.63079   0.00000  Uiso   1.00
C667   C     0.82835   0.38990   0.33812   0.00000  Uiso   1.00
C668   C     0.53196   0.24213   0.58149   0.00000  Uiso   1.00
C669   C     0.75001   0.49997   0.60184   0.00000  Uiso   1.00
C670   C     0.79963   0.38340   0.36938   0.00000  Uiso   1.00
C671   C     0.86973   0.30857   0.32996   0.00000  Uiso   1.00
C672   C     0.87288   0.26891   0.34265   0.00000  Uiso   1.00
C673   C     0.63044   0.19154   0.67015   0.00000  Uiso   1.00
C674   C     0.62725   0.23123   0.65754   0.00000  Uiso   1.00
C675   C     0.86529   0.07229   0.33672   0.00000  Uiso   1.00
C676   C     0.83952   0.04354   0.35354   0.00000  Uiso   1.00
C677   C     0.63477   0.42762   0.66325   0.00000  Uiso   1.00
C678   C     0.66054   0.45637   0.64643   0.00000  Uiso   1.00
C679   C     0.62975   0.19081   0.33050   0.00000  Uiso   1.00
C680   C     0.74999   0.49999   0.89830   0.00000  Uiso   1.00
C681   C     0.62657   0.23034   0.34362   0.00000  Uiso   1.00
C682   C     0.87012   0.30909   0.66959   0.00000  Uiso   1.00
C683   C     0.87334   0.26954   0.65653   0.00000  Uiso   1.00
C684   C     0.63456   0.42794   0.33649   0.00000  Uiso   1.00
C685   C     0.66032   0.45681   0.35307   0.00000  Uiso   1.00
C686   C     0.86534   0.07222   0.66343   0.00000  Uiso   1.00
C687   C     0.83958   0.04335   0.64684   0.00000  Uiso   1.00
C688   C     0.75001   0.00000   0.10170   0.00000  Uiso   1.00
C689   C     0.99999   0.25000   0.89815   0.00000  Uiso   1.00
C690   C     0.50000   0.25000   0.10183   0.00000  Uiso   1.00
C691   C     0.56327   0.22918   0.47957   0.00000  Uiso   1.00
C692   C     0.93672   0.27081   0.52043   0.00000  Uiso   1.00
C693   C     0.80065   0.45702   0.47955   0.00000  Uiso   1.00
C694   C     0.69943   0.04307   0.52046   0.00000  Uiso   1.00
C695   C     0.93653   0.27013   0.47955   0.00000  Uiso   1.00
C696   C     0.72642   0.02281   0.41828   0.00000  Uiso   1.00
C697   C     0.56348   0.22989   0.52045   0.00000  Uiso   1.00
C698   C     0.69943   0.04302   0.47956   0.00000  Uiso   1.00
C699   C     0.80058   0.45699   0.52045   0.00000  Uiso   1.00
C700   C     0.81345   0.47979   0.97953   0.00000  Uiso   1.00
C701   C     0.68670   0.02073   0.02044   0.00000  Uiso   1.00
C702   C     0.55056   0.20692   0.97952   0.00000  Uiso   1.00
C703   C     0.94936   0.29294   0.02046   0.00000  Uiso   1.00
C704   C     0.68655   0.02018   0.97956   0.00000  Uiso   1.00
C705   C     0.81330   0.47927   0.02041   0.00000  Uiso   1.00
C706   C     0.94939   0.29303   0.97955   0.00000  Uiso   1.00
C707   C     0.77358   0.47720   0.58172   0.00000  Uiso   1.00
C708   C     0.55063   0.20705   0.02042   0.00000  Uiso   1.00
C709   C     0.74997   0.00000   0.35586   0.00000  Uiso   1.00
C710   C     0.75003  -0.00000   0.64414   0.00000  Uiso   1.00
C711   C     0.99999   0.25003   0.35589   0.00000  Uiso   1.00
C712   C     0.50001   0.24997   0.64411   0.00000  Uiso   1.00
C713   C     0.50000   0.25000   0.85586   0.00000  Uiso   1.00
C714   C     0.50000   0.25000   0.14413   0.00000  Uiso   1.00
C715   C     0.75000  -0.00000   0.85589   0.00000  Uiso   1.00
C716   C     0.75000   0.00000   0.14411   0.00000  Uiso   1.00
C717   C     0.67928   0.06947   0.25095   0.00000  Uiso   1.00
C718   C     0.53183   0.24189   0.41850   0.00000  Uiso   1.00
C719   C     0.82073   0.43055   0.74903   0.00000  Uiso   1.00
C720   C     0.92989   0.18014   0.24976   0.00000  Uiso   1.00
C721   C     0.57011   0.31986   0.75025   0.00000  Uiso   1.00
C722   C     0.82071   0.43052   0.25094   0.00000  Uiso   1.00
C723   C     0.67927   0.06946   0.74903   0.00000  Uiso   1.00
C724   C     0.57011   0.31986   0.24975   0.00000  Uiso   1.00
C725   C     0.92989   0.18014   0.75025   0.00000  Uiso   1.00
C726   C     0.67989   0.43014   0.74975   0.00000  Uiso   1.00
C727   C     0.82012   0.06986   0.25025   0.00000  Uiso   1.00
C728   C     0.92929   0.31948   0.75094   0.00000  Uiso   1.00
C729   C     0.96817   0.25811   0.58150   0.00000  Uiso   1.00
C730   C     0.57072   0.18053   0.24905   0.00000  Uiso   1.00
C731   C     0.82011   0.06986   0.74976   0.00000  Uiso   1.00
C732   C     0.67989   0.43014   0.25024   0.00000  Uiso   1.00
C733   C     0.57073   0.18054   0.75097   0.00000  Uiso   1.00
C734   C     0.92927   0.31945   0.24903   0.00000  Uiso   1.00
C735   C     0.63798   0.38903   0.21414   0.00000  Uiso   1.00
C736   C     0.86207   0.11092   0.78587   0.00000  Uiso   1.00
C737   C     0.59656   0.12280   0.22252   0.00000  Uiso   1.00
C738   C     0.90358   0.37736   0.77728   0.00000  Uiso   1.00
C739   C     0.86207   0.11093   0.21416   0.00000  Uiso   1.00
C740   C     0.77358   0.47726   0.41825   0.00000  Uiso   1.00
C741   C     0.63790   0.38910   0.78586   0.00000  Uiso   1.00
C742   C     0.90346   0.37720   0.22251   0.00000  Uiso   1.00
C743   C     0.59640   0.12263   0.77728   0.00000  Uiso   1.00
C744   C     0.62058   0.09364   0.77375   0.00000  Uiso   1.00
C745   C     0.87926   0.40619   0.22597   0.00000  Uiso   1.00
C746   C     0.61037   0.36254   0.78565   0.00000  Uiso   1.00
C747   C     0.88959   0.13750   0.21437   0.00000  Uiso   1.00
C748   C     0.87940   0.40636   0.77377   0.00000  Uiso   1.00
C749   C     0.62076   0.09381   0.22597   0.00000  Uiso   1.00
C750   C     0.88960   0.13748   0.78566   0.00000  Uiso   1.00
C751   C     0.72644   0.02277   0.58175   0.00000  Uiso   1.00
C752   C     0.61046   0.36246   0.21435   0.00000  Uiso   1.00
C753   C     0.88792   0.13910   0.71416   0.00000  Uiso   1.00
C754   C     0.61203   0.36096   0.28586   0.00000  Uiso   1.00
C755   C     0.84653   0.37277   0.72254   0.00000  Uiso   1.00
C756   C     0.65345   0.12721   0.27747   0.00000  Uiso   1.00
C757   C     0.61210   0.36090   0.71414   0.00000  Uiso   1.00
C758   C     0.88794   0.13906   0.28587   0.00000  Uiso   1.00
C759   C     0.65360   0.12736   0.72271   0.00000  Uiso   1.00
C760   C     0.84643   0.37266   0.27730   0.00000  Uiso   1.00
C761   C     0.87061   0.34365   0.27379   0.00000  Uiso   1.00
C762   C     0.71815   0.00820   0.91851   0.00000  Uiso   1.00
C763   C     0.62941   0.15636   0.72625   0.00000  Uiso   1.00
C764   C     0.86042   0.11249   0.28566   0.00000  Uiso   1.00
C765   C     0.63962   0.38747   0.71435   0.00000  Uiso   1.00
C766   C     0.62925   0.15620   0.27402   0.00000  Uiso   1.00
C767   C     0.87074   0.34379   0.72600   0.00000  Uiso   1.00
C768   C     0.63955   0.38753   0.28565   0.00000  Uiso   1.00
C769   C     0.86040   0.11253   0.71437   0.00000  Uiso   1.00
C770   C     0.53188   0.24015   0.45912   0.00000  Uiso   1.00
C771   C     0.96812   0.25985   0.54088   0.00000  Uiso   1.00
C772   C     0.77497   0.47796   0.45900   0.00000  Uiso   1.00
H773   H     0.94355   0.26399   0.40236   0.00000  Uiso   1.00
H774   H     0.80665   0.48721   0.09764   0.00000  Uiso   1.00
H775   H     0.57992   0.16951   0.83225   0.00000  Uiso   1.00
H776   H     0.60497   0.13124   0.84989   0.00000  Uiso   1.00
H777   H     0.55795   0.14614   0.89694   0.00000  Uiso   1.00
H778   H     0.52303   0.14496   0.85982   0.00000  Uiso   1.00
H779   H     0.54545   0.10348   0.87437   0.00000  Uiso   1.00
H780   H     0.59688   0.06986   0.84692   0.00000  Uiso   1.00
H781   H     0.64548   0.07305   0.83719   0.00000  Uiso   1.00
H782   H     0.59700   0.00376   0.83609   0.00000  Uiso   1.00
H783   H     0.64533   0.00531   0.82684   0.00000  Uiso   1.00
H784   H     0.62815   0.01733   0.87425   0.00000  Uiso   1.00
H785   H     0.95884   0.29042   0.90172   0.00000  Uiso   1.00
H786   H     0.85387   0.42620   0.16255   0.00000  Uiso   1.00
H787   H     0.90242   0.42924   0.15242   0.00000  Uiso   1.00
H788   H     0.87132   0.48143   0.12461   0.00000  Uiso   1.00
H789   H     0.85407   0.49399   0.17188   0.00000  Uiso   1.00
H790   H     0.90240   0.49546   0.16263   0.00000  Uiso   1.00
H791   H     0.63200   0.33345   0.86103   0.00000  Uiso   1.00
H792   H     0.63362   0.30852   0.81560   0.00000  Uiso   1.00
H793   H     0.57003   0.30638   0.87414   0.00000  Uiso   1.00
H794   H     0.57411   0.28003   0.82967   0.00000  Uiso   1.00
H795   H     0.60522   0.27267   0.86944   0.00000  Uiso   1.00
H796   H     0.54192   0.21024   0.09819   0.00000  Uiso   1.00
H797   H     0.86622   0.19159   0.18474   0.00000  Uiso   1.00
H798   H     0.86784   0.16698   0.13912   0.00000  Uiso   1.00
H799   H     0.89458   0.22789   0.13136   0.00000  Uiso   1.00
H800   H     0.92584   0.22009   0.17088   0.00000  Uiso   1.00
H801   H     0.92971   0.19418   0.12609   0.00000  Uiso   1.00
H802   H     0.90293   0.43001   0.84703   0.00000  Uiso   1.00
H803   H     0.85435   0.42690   0.83717   0.00000  Uiso   1.00
H804   H     0.90294   0.49612   0.83630   0.00000  Uiso   1.00
H805   H     0.85463   0.49466   0.82692   0.00000  Uiso   1.00
H806   H     0.87168   0.48255   0.87436   0.00000  Uiso   1.00
H807   H     0.80629   0.48552   0.90232   0.00000  Uiso   1.00
H808   H     0.64626   0.07383   0.16256   0.00000  Uiso   1.00
H809   H     0.59772   0.07086   0.15235   0.00000  Uiso   1.00
H810   H     0.62881   0.01866   0.12452   0.00000  Uiso   1.00
H811   H     0.64596   0.00603   0.17181   0.00000  Uiso   1.00
H812   H     0.59764   0.00463   0.16248   0.00000  Uiso   1.00
H813   H     0.86795   0.16658   0.86104   0.00000  Uiso   1.00
H814   H     0.86637   0.19151   0.81561   0.00000  Uiso   1.00
H815   H     0.92992   0.19362   0.87417   0.00000  Uiso   1.00
H816   H     0.92588   0.21997   0.82970   0.00000  Uiso   1.00
H817   H     0.89475   0.22734   0.86945   0.00000  Uiso   1.00
H818   H     0.69336   0.01279   0.09766   0.00000  Uiso   1.00
H819   H     0.63380   0.30833   0.18480   0.00000  Uiso   1.00
H820   H     0.63227   0.33292   0.13916   0.00000  Uiso   1.00
H821   H     0.60548   0.27202   0.13142   0.00000  Uiso   1.00
H822   H     0.57418   0.27988   0.17088   0.00000  Uiso   1.00
H823   H     0.57040   0.30576   0.12607   0.00000  Uiso   1.00
H824   H     0.93338   0.10961   0.66991   0.00000  Uiso   1.00
H825   H     0.95513   0.15114   0.68644   0.00000  Uiso   1.00
H826   H     0.91975   0.13947   0.60627   0.00000  Uiso   1.00
H827   H     0.94151   0.18106   0.62330   0.00000  Uiso   1.00
H828   H     0.96792   0.14022   0.61705   0.00000  Uiso   1.00
H829   H     0.54116   0.20958   0.90170   0.00000  Uiso   1.00
H830   H     0.54478   0.34895   0.31348   0.00000  Uiso   1.00
H831   H     0.56651   0.39050   0.32999   0.00000  Uiso   1.00
H832   H     0.53189   0.35996   0.38283   0.00000  Uiso   1.00
H833   H     0.55830   0.31911   0.37668   0.00000  Uiso   1.00
H834   H     0.58004   0.36071   0.39369   0.00000  Uiso   1.00
H835   H     0.85523   0.38194   0.65005   0.00000  Uiso   1.00
H836   H     0.82986   0.41992   0.66781   0.00000  Uiso   1.00
H837   H     0.79590   0.35386   0.62531   0.00000  Uiso   1.00
H838   H     0.77324   0.39519   0.63992   0.00000  Uiso   1.00
H839   H     0.80829   0.39663   0.60293   0.00000  Uiso   1.00
H840   H     0.95809   0.28976   0.09821   0.00000  Uiso   1.00
H841   H     0.67004   0.07996   0.33215   0.00000  Uiso   1.00
H842   H     0.64457   0.11789   0.34989   0.00000  Uiso   1.00
H843   H     0.69137   0.10324   0.39715   0.00000  Uiso   1.00
H844   H     0.72654   0.10468   0.36029   0.00000  Uiso   1.00
H845   H     0.70384   0.14601   0.37483   0.00000  Uiso   1.00
H846   H     0.56664   0.39033   0.66986   0.00000  Uiso   1.00
H847   H     0.54491   0.34881   0.68642   0.00000  Uiso   1.00
H848   H     0.58030   0.36044   0.60624   0.00000  Uiso   1.00
H849   H     0.55858   0.31884   0.62330   0.00000  Uiso   1.00
H850   H     0.53214   0.35966   0.61702   0.00000  Uiso   1.00
H851   H     0.61892   0.17059   0.44695   0.00000  Uiso   1.00
H852   H     0.95516   0.15112   0.31352   0.00000  Uiso   1.00
H853   H     0.93344   0.10959   0.33008   0.00000  Uiso   1.00
H854   H     0.96800   0.14022   0.38290   0.00000  Uiso   1.00
H855   H     0.94156   0.18105   0.37668   0.00000  Uiso   1.00
H856   H     0.91985   0.13944   0.39374   0.00000  Uiso   1.00
H857   H     0.64504   0.11875   0.65009   0.00000  Uiso   1.00
H858   H     0.67005   0.08047   0.66777   0.00000  Uiso   1.00
H859   H     0.72698   0.10499   0.64024   0.00000  Uiso   1.00
H860   H     0.69209   0.10375   0.60309   0.00000  Uiso   1.00
H861   H     0.70456   0.14644   0.62560   0.00000  Uiso   1.00
H862   H     0.58110   0.18186   0.41677   0.00000  Uiso   1.00
H863   H     0.83008   0.41968   0.33220   0.00000  Uiso   1.00
H864   H     0.85523   0.38146   0.34984   0.00000  Uiso   1.00
H865   H     0.80837   0.39642   0.39703   0.00000  Uiso   1.00
H866   H     0.77332   0.39517   0.36005   0.00000  Uiso   1.00
H867   H     0.79579   0.35372   0.37460   0.00000  Uiso   1.00
H868   H     0.84710   0.32007   0.34709   0.00000  Uiso   1.00
H869   H     0.89569   0.32315   0.33719   0.00000  Uiso   1.00
H870   H     0.84707   0.25395   0.33640   0.00000  Uiso   1.00
H871   H     0.89538   0.25539   0.32700   0.00000  Uiso   1.00
H872   H     0.87833   0.26753   0.37444   0.00000  Uiso   1.00
H873   H     0.57368   0.16523   0.46585   0.00000  Uiso   1.00
H874   H     0.60454   0.17693   0.66279   0.00000  Uiso   1.00
H875   H     0.65315   0.18013   0.65308   0.00000  Uiso   1.00
H876   H     0.62190   0.23265   0.62573   0.00000  Uiso   1.00
H877   H     0.60466   0.24467   0.67312   0.00000  Uiso   1.00
H878   H     0.65300   0.24624   0.66392   0.00000  Uiso   1.00
H879   H     0.88211   0.08332   0.36098   0.00000  Uiso   1.00
H880   H     0.88364   0.05842   0.31552   0.00000  Uiso   1.00
H881   H     0.82014   0.05629   0.37416   0.00000  Uiso   1.00
H882   H     0.82412   0.02998   0.32966   0.00000  Uiso   1.00
H883   H     0.85529   0.02255   0.36936   0.00000  Uiso   1.00
H884   H     0.55645   0.23601   0.59764   0.00000  Uiso   1.00
H885   H     0.91854   0.31803   0.58340   0.00000  Uiso   1.00
H886   H     0.61639   0.44149   0.68440   0.00000  Uiso   1.00
H887   H     0.61799   0.41656   0.63897   0.00000  Uiso   1.00
H888   H     0.64478   0.47734   0.63057   0.00000  Uiso   1.00
H889   H     0.67589   0.46997   0.67032   0.00000  Uiso   1.00
H890   H     0.67996   0.44362   0.62585   0.00000  Uiso   1.00
H891   H     0.65226   0.17917   0.34765   0.00000  Uiso   1.00
H892   H     0.60374   0.17619   0.33742   0.00000  Uiso   1.00
H893   H     0.65236   0.24539   0.33751   0.00000  Uiso   1.00
H894   H     0.60404   0.24399   0.32815   0.00000  Uiso   1.00
H895   H     0.62116   0.23137   0.37545   0.00000  Uiso   1.00
H896   H     0.88107   0.32943   0.55279   0.00000  Uiso   1.00
H897   H     0.89609   0.32374   0.66257   0.00000  Uiso   1.00
H898   H     0.84754   0.32067   0.65249   0.00000  Uiso   1.00
H899   H     0.87867   0.26848   0.62469   0.00000  Uiso   1.00
H900   H     0.89592   0.25596   0.67197   0.00000  Uiso   1.00
H901   H     0.84759   0.25447   0.66273   0.00000  Uiso   1.00
H902   H     0.61774   0.41707   0.36084   0.00000  Uiso   1.00
H903   H     0.61619   0.44166   0.31521   0.00000  Uiso   1.00
H904   H     0.67961   0.44424   0.37392   0.00000  Uiso   1.00
H905   H     0.67582   0.47012   0.32910   0.00000  Uiso   1.00
H906   H     0.64452   0.47798   0.36857   0.00000  Uiso   1.00
H907   H     0.92651   0.33469   0.53443   0.00000  Uiso   1.00
H908   H     0.88376   0.05848   0.68464   0.00000  Uiso   1.00
H909   H     0.88210   0.08315   0.63906   0.00000  Uiso   1.00
H910   H     0.85538   0.02224   0.63125   0.00000  Uiso   1.00
H911   H     0.82416   0.02997   0.67082   0.00000  Uiso   1.00
H912   H     0.82023   0.05593   0.62608   0.00000  Uiso   1.00
H913   H     0.85679   0.48409   0.45792   0.00000  Uiso   1.00
H914   H     0.85329   0.45738   0.41371   0.00000  Uiso   1.00
H915   H     0.88026   0.44162   0.45347   0.00000  Uiso   1.00
H916   H     0.64635   0.04411   0.58654   0.00000  Uiso   1.00
H917   H     0.64390   0.01583   0.54341   0.00000  Uiso   1.00
H918   H     0.61988   0.05818   0.54566   0.00000  Uiso   1.00
H919   H     0.88232   0.31796   0.42664   0.00000  Uiso   1.00
H920   H     0.70828   0.03999   0.40181   0.00000  Uiso   1.00
H921   H     0.93022   0.32331   0.43458   0.00000  Uiso   1.00
H922   H     0.89788   0.33202   0.47362   0.00000  Uiso   1.00
H923   H     0.56977   0.17665   0.56521   0.00000  Uiso   1.00
H924   H     0.61759   0.18222   0.57360   0.00000  Uiso   1.00
H925   H     0.60248   0.16808   0.52648   0.00000  Uiso   1.00
H926   H     0.65108   0.02086   0.43144   0.00000  Uiso   1.00
H927   H     0.62645   0.06271   0.43168   0.00000  Uiso   1.00
H928   H     0.62867   0.03640   0.47556   0.00000  Uiso   1.00
H929   H     0.87305   0.43709   0.56908   0.00000  Uiso   1.00
H930   H     0.84893   0.47922   0.56816   0.00000  Uiso   1.00
H931   H     0.79172   0.46001   0.59820   0.00000  Uiso   1.00
H932   H     0.87171   0.46267   0.52468   0.00000  Uiso   1.00
H933   H     0.86739   0.43201   0.92632   0.00000  Uiso   1.00
H934   H     0.81967   0.42630   0.93521   0.00000  Uiso   1.00
H935   H     0.85274   0.41804   0.97366   0.00000  Uiso   1.00
H936   H     0.66938   0.06793   0.08318   0.00000  Uiso   1.00
H937   H     0.63104   0.07912   0.05373   0.00000  Uiso   1.00
H938   H     0.67595   0.08472   0.03403   0.00000  Uiso   1.00
H939   H     0.60624   0.23407   0.95681   0.00000  Uiso   1.00
H940   H     0.60339   0.20618   0.91341   0.00000  Uiso   1.00
H941   H     0.63009   0.19167   0.95393   0.00000  Uiso   1.00
H942   H     0.55649   0.23671   0.40232   0.00000  Uiso   1.00
H943   H     0.87674   0.31264   0.06895   0.00000  Uiso   1.00
H944   H     0.90096   0.27057   0.06808   0.00000  Uiso   1.00
H945   H     0.87827   0.28708   0.02454   0.00000  Uiso   1.00
H946   H     0.63267   0.06784   0.92620   0.00000  Uiso   1.00
H947   H     0.68032   0.07372   0.93540   0.00000  Uiso   1.00
H948   H     0.64699   0.08188   0.97362   0.00000  Uiso   1.00
H949   H     0.83089   0.43216   0.08328   0.00000  Uiso   1.00
H950   H     0.86897   0.42086   0.05348   0.00000  Uiso   1.00
H951   H     0.82390   0.41533   0.03421   0.00000  Uiso   1.00
H952   H     0.89336   0.26596   0.95763   0.00000  Uiso   1.00
H953   H     0.94351   0.26329   0.59768   0.00000  Uiso   1.00
H954   H     0.89680   0.29294   0.91360   0.00000  Uiso   1.00
H955   H     0.86982   0.30842   0.95349   0.00000  Uiso   1.00
H956   H     0.62356   0.18747   0.06844   0.00000  Uiso   1.00
H957   H     0.59904   0.22938   0.06826   0.00000  Uiso   1.00
H958   H     0.62151   0.21346   0.02433   0.00000  Uiso   1.00
H959   H     0.68350   0.35949   0.17002   0.00000  Uiso   1.00
H960   H     0.70523   0.40103   0.18653   0.00000  Uiso   1.00
H961   H     0.66999   0.38927   0.10631   0.00000  Uiso   1.00
H962   H     0.69172   0.43088   0.12332   0.00000  Uiso   1.00
H963   H     0.71814   0.39003   0.11718   0.00000  Uiso   1.00
H964   H     0.79132   0.45978   0.40171   0.00000  Uiso   1.00
H965   H     0.79486   0.09883   0.81357   0.00000  Uiso   1.00
H966   H     0.81659   0.14036   0.83015   0.00000  Uiso   1.00
H967   H     0.78206   0.10969   0.88297   0.00000  Uiso   1.00
H968   H     0.80849   0.06887   0.87669   0.00000  Uiso   1.00
H969   H     0.83022   0.11046   0.89377   0.00000  Uiso   1.00
H970   H     0.60545   0.13214   0.15009   0.00000  Uiso   1.00
H971   H     0.58001   0.17008   0.16787   0.00000  Uiso   1.00
H972   H     0.54619   0.10409   0.12511   0.00000  Uiso   1.00
H973   H     0.52348   0.14539   0.13974   0.00000  Uiso   1.00
H974   H     0.55863   0.14691   0.10287   0.00000  Uiso   1.00
H975   H     0.70866   0.04021   0.59830   0.00000  Uiso   1.00
H976   H     0.91994   0.33038   0.83222   0.00000  Uiso   1.00
H977   H     0.89480   0.36862   0.84983   0.00000  Uiso   1.00
H978   H     0.94166   0.35373   0.89702   0.00000  Uiso   1.00
H979   H     0.97671   0.35491   0.86001   0.00000  Uiso   1.00
H980   H     0.95425   0.39639   0.87451   0.00000  Uiso   1.00
H981   H     0.81659   0.14044   0.16998   0.00000  Uiso   1.00
H982   H     0.79484   0.09890   0.18649   0.00000  Uiso   1.00
H983   H     0.83018   0.11063   0.10630   0.00000  Uiso   1.00
H984   H     0.80844   0.06903   0.12331   0.00000  Uiso   1.00
H985   H     0.78202   0.10987   0.11713   0.00000  Uiso   1.00
H986   H     0.69370   0.01446   0.90235   0.00000  Uiso   1.00
H987   H     0.70509   0.40120   0.81359   0.00000  Uiso   1.00
H988   H     0.68335   0.35968   0.83015   0.00000  Uiso   1.00
H989   H     0.71784   0.39035   0.88299   0.00000  Uiso   1.00
H990   H     0.69141   0.43117   0.87670   0.00000  Uiso   1.00
H991   H     0.66967   0.38958   0.89376   0.00000  Uiso   1.00
H992   H     0.89473   0.36797   0.15003   0.00000  Uiso   1.00
H993   H     0.92011   0.33000   0.16783   0.00000  Uiso   1.00
H994   H     0.95405   0.39601   0.12521   0.00000  Uiso   1.00
H995   H     0.97673   0.35472   0.13988   0.00000  Uiso   1.00
H996   H     0.94168   0.35320   0.10292   0.00000  Uiso   1.00
O997   O     0.75000  -0.00000   0.25000   0.00000  Uiso   1.00
O998   O     0.75000   0.46963   0.66245   0.00000  Uiso   1.00
O999   O     0.84491   0.10107   0.67954   0.00000  Uiso   1.00
O1000  O     0.96964   0.25000   0.33755   0.00000  Uiso   1.00
O1001  O     0.53037   0.25000   0.66245   0.00000  Uiso   1.00
O1002  O     0.50000   0.21963   0.83755   0.00000  Uiso   1.00
O1003  O     0.50000   0.28036   0.16245   0.00000  Uiso   1.00
O1004  O     0.78037  -0.00000   0.83755   0.00000  Uiso   1.00
O1005  O     0.71964  -0.00000   0.16245   0.00000  Uiso   1.00
O1006  O     0.50000   0.28036   0.83755   0.00000  Uiso   1.00
O1007  O     0.50000   0.21963   0.16245   0.00000  Uiso   1.00
O1008  O     0.71964  -0.00000   0.83755   0.00000  Uiso   1.00
O1009  O     0.75000  -0.00000   0.75000   0.00000  Uiso   1.00
O1010  O     0.78037  -0.00000   0.16245   0.00000  Uiso   1.00
O1011  O     0.70725   0.07307   0.27302   0.00000  Uiso   1.00
O1012  O     0.79276   0.42692   0.72698   0.00000  Uiso   1.00
O1013  O     0.92693   0.20724   0.27302   0.00000  Uiso   1.00
O1014  O     0.57308   0.29275   0.72698   0.00000  Uiso   1.00
O1015  O     0.79276   0.42692   0.27302   0.00000  Uiso   1.00
O1016  O     0.70725   0.07307   0.72698   0.00000  Uiso   1.00
O1017  O     0.57308   0.29275   0.27302   0.00000  Uiso   1.00
O1018  O     0.92693   0.20724   0.72698   0.00000  Uiso   1.00
O1019  O     0.70725   0.42692   0.72698   0.00000  Uiso   1.00
O1020  O     0.50000   0.25000   0.25000   0.00000  Uiso   1.00
O1021  O     0.79276   0.07307   0.27302   0.00000  Uiso   1.00
O1022  O     0.92693   0.29275   0.72698   0.00000  Uiso   1.00
O1023  O     0.57308   0.20724   0.27302   0.00000  Uiso   1.00
O1024  O     0.79276   0.07307   0.72698   0.00000  Uiso   1.00
O1025  O     0.70725   0.42692   0.27302   0.00000  Uiso   1.00
O1026  O     0.57308   0.20724   0.72698   0.00000  Uiso   1.00
O1027  O     0.92693   0.29275   0.27302   0.00000  Uiso   1.00
O1028  O     0.95725   0.32307   0.77302   0.00000  Uiso   1.00
O1029  O     0.54276   0.17692   0.22698   0.00000  Uiso   1.00
O1030  O     0.67693   0.45724   0.77302   0.00000  Uiso   1.00
O1031  O     0.50000   0.25000   0.75000   0.00000  Uiso   1.00
O1032  O     0.82308   0.04275   0.22698   0.00000  Uiso   1.00
O1033  O     0.54276   0.17692   0.77302   0.00000  Uiso   1.00
O1034  O     0.95725   0.32307   0.22698   0.00000  Uiso   1.00
O1035  O     0.82308   0.04275   0.77302   0.00000  Uiso   1.00
O1036  O     0.67693   0.45724   0.22698   0.00000  Uiso   1.00
O1037  O     0.95725   0.17692   0.22698   0.00000  Uiso   1.00
O1038  O     0.54276   0.32307   0.77302   0.00000  Uiso   1.00
O1039  O     0.67693   0.04275   0.22698   0.00000  Uiso   1.00
O1040  O     0.82308   0.45724   0.77302   0.00000  Uiso   1.00
O1041  O     0.54276   0.32307   0.22698   0.00000  Uiso   1.00
O1042  O     0.75000   0.46963   0.33755   0.00000  Uiso   1.00
O1043  O     0.95725   0.17692   0.77302   0.00000  Uiso   1.00
O1044  O     0.82308   0.45724   0.22698   0.00000  Uiso   1.00
O1045  O     0.67693   0.04275   0.77302   0.00000  Uiso   1.00
O1046  O     0.59473   0.21936   0.46013   0.00000  Uiso   1.00
O1047  O     0.90526   0.28060   0.53987   0.00000  Uiso   1.00
O1048  O     0.82497   0.43481   0.46021   0.00000  Uiso   1.00
O1049  O     0.67523   0.06540   0.53980   0.00000  Uiso   1.00
O1050  O     0.90448   0.27722   0.45982   0.00000  Uiso   1.00
O1051  O     0.59553   0.22284   0.54019   0.00000  Uiso   1.00
O1052  O     0.67564   0.06552   0.45995   0.00000  Uiso   1.00
O1053  O     0.75000   0.03036   0.66245   0.00000  Uiso   1.00
O1054  O     0.82425   0.43435   0.54007   0.00000  Uiso   1.00
O1055  O     0.84548   0.47270   0.95976   0.00000  Uiso   1.00
O1056  O     0.65524   0.03052   0.03989   0.00000  Uiso   1.00
O1057  O     0.57477   0.18459   0.96018   0.00000  Uiso   1.00
O1058  O     0.92563   0.31550   0.04010   0.00000  Uiso   1.00
O1059  O     0.65450   0.02724   0.95981   0.00000  Uiso   1.00
O1060  O     0.84478   0.46951   0.03984   0.00000  Uiso   1.00
O1061  O     0.92511   0.31528   0.96023   0.00000  Uiso   1.00
O1062  O     0.57444   0.18457   0.04004   0.00000  Uiso   1.00
O1063  O     0.64889   0.40400   0.17884   0.00000  Uiso   1.00
O1064  O     0.53037   0.25000   0.33755   0.00000  Uiso   1.00
O1065  O     0.85122   0.09588   0.82116   0.00000  Uiso   1.00
O1066  O     0.56869   0.12005   0.19550   0.00000  Uiso   1.00
O1067  O     0.93150   0.38018   0.80423   0.00000  Uiso   1.00
O1068  O     0.85120   0.09593   0.17886   0.00000  Uiso   1.00
O1069  O     0.64872   0.40415   0.82115   0.00000  Uiso   1.00
O1070  O     0.93138   0.38000   0.19555   0.00000  Uiso   1.00
O1071  O     0.56841   0.11975   0.80416   0.00000  Uiso   1.00
O1072  O     0.61137   0.05982   0.78958   0.00000  Uiso   1.00
O1073  O     0.88831   0.43988   0.20974   0.00000  Uiso   1.00
O1074  O     0.59479   0.35115   0.82046   0.00000  Uiso   1.00
O1075  O     0.96964   0.25000   0.66245   0.00000  Uiso   1.00
O1076  O     0.90506   0.14900   0.17954   0.00000  Uiso   1.00
O1077  O     0.88860   0.44015   0.78967   0.00000  Uiso   1.00
O1078  O     0.61172   0.06014   0.20968   0.00000  Uiso   1.00
O1079  O     0.90517   0.14887   0.82047   0.00000  Uiso   1.00
O1080  O     0.59501   0.35095   0.17952   0.00000  Uiso   1.00
O1081  O     0.89877   0.15412   0.67886   0.00000  Uiso   1.00
O1082  O     0.60112   0.34599   0.32116   0.00000  Uiso   1.00
O1083  O     0.81859   0.36996   0.69560   0.00000  Uiso   1.00
O1084  O     0.68133   0.12997   0.30447   0.00000  Uiso   1.00
O1085  O     0.60127   0.34586   0.67885   0.00000  Uiso   1.00
O1086  O     0.75000   0.03036   0.33755   0.00000  Uiso   1.00
O1087  O     0.89880   0.15407   0.32117   0.00000  Uiso   1.00
O1088  O     0.68159   0.13024   0.69583   0.00000  Uiso   1.00
O1089  O     0.81851   0.36986   0.30428   0.00000  Uiso   1.00
O1090  O     0.86141   0.30987   0.28973   0.00000  Uiso   1.00
O1091  O     0.63863   0.19018   0.71041   0.00000  Uiso   1.00
O1092  O     0.84486   0.10107   0.32048   0.00000  Uiso   1.00
O1093  O     0.65520   0.39886   0.67954   0.00000  Uiso   1.00
O1094  O     0.63829   0.18988   0.29031   0.00000  Uiso   1.00
O1095  O     0.86168   0.31009   0.70980   0.00000  Uiso   1.00
O1096  O     0.65499   0.39904   0.32048   0.00000  Uiso   1.00
Zn1097 Zn    0.70660  -0.00000   0.21735   0.00000  Uiso   1.00
Zn1098 Zn    0.54341   0.25000   0.28265   0.00000  Uiso   1.00
Zn1099 Zn    0.75000   0.45659   0.71735   0.00000  Uiso   1.00
Zn1100 Zn    0.75000   0.04340   0.28265   0.00000  Uiso   1.00
Zn1101 Zn    0.54341   0.25000   0.71735   0.00000  Uiso   1.00
Zn1102 Zn    0.95660   0.25000   0.28265   0.00000  Uiso   1.00
Zn1103 Zn    0.75000   0.04340   0.71735   0.00000  Uiso   1.00
Zn1104 Zn    0.75000   0.45659   0.28265   0.00000  Uiso   1.00
Zn1105 Zn    0.79341  -0.00000   0.78265   0.00000  Uiso   1.00
Zn1106 Zn    0.50000   0.20659   0.21735   0.00000  Uiso   1.00
Zn1107 Zn    0.50000   0.29340   0.78265   0.00000  Uiso   1.00
Zn1108 Zn    0.79341  -0.00000   0.21735   0.00000  Uiso   1.00
Zn1109 Zn    0.70660  -0.00000   0.78265   0.00000  Uiso   1.00
Zn1110 Zn    0.50000   0.29340   0.21735   0.00000  Uiso   1.00
Zn1111 Zn    0.50000   0.20659   0.78265   0.00000  Uiso   1.00
Zn1112 Zn    0.95660   0.25000   0.71735   0.00000  Uiso   1.00
C1113  C     0.46804   0.75788   0.41851   0.00000  Uiso   1.00
C1114  C     0.28195   0.99224   0.08148   0.00000  Uiso   1.00
C1115  C     0.22509   0.52209   0.54101   0.00000  Uiso   1.00
C1116  C     0.46796   0.75928   0.45915   0.00000  Uiso   1.00
C1117  C     0.03204   0.74073   0.54085   0.00000  Uiso   1.00
C1118  C     0.22518   0.52216   0.45904   0.00000  Uiso   1.00
C1119  C     0.27484   0.97785   0.54097   0.00000  Uiso   1.00
C1120  C     0.28198   0.99054   0.95915   0.00000  Uiso   1.00
C1121  C     0.21806   0.50966   0.04089   0.00000  Uiso   1.00
C1122  C     0.02486   0.72784   0.95897   0.00000  Uiso   1.00
C1123  C     0.47509   0.77206   0.04096   0.00000  Uiso   1.00
C1124  C     0.21801   0.50944   0.95916   0.00000  Uiso   1.00
C1125  C     0.47652   0.77288   0.91825   0.00000  Uiso   1.00
C1126  C     0.28195   0.99034   0.04088   0.00000  Uiso   1.00
C1127  C     0.47510   0.77212   0.95899   0.00000  Uiso   1.00
C1128  C     0.02491   0.72794   0.04094   0.00000  Uiso   1.00
C1129  C     0.09780   0.84830   0.25007   0.00000  Uiso   1.00
C1130  C     0.40219   0.65170   0.74994   0.00000  Uiso   1.00
C1131  C     0.15041   0.59687   0.25202   0.00000  Uiso   1.00
C1132  C     0.34963   0.90318   0.74788   0.00000  Uiso   1.00
C1133  C     0.40220   0.65169   0.25009   0.00000  Uiso   1.00
C1134  C     0.09780   0.84830   0.74992   0.00000  Uiso   1.00
C1135  C     0.34955   0.90309   0.25198   0.00000  Uiso   1.00
C1136  C     0.02370   0.72735   0.08171   0.00000  Uiso   1.00
C1137  C     0.15040   0.59686   0.74793   0.00000  Uiso   1.00
C1138  C     0.09959   0.65313   0.75207   0.00000  Uiso   1.00
C1139  C     0.40037   0.84681   0.24788   0.00000  Uiso   1.00
C1140  C     0.15220   0.90170   0.75008   0.00000  Uiso   1.00
C1141  C     0.34781   0.59829   0.24994   0.00000  Uiso   1.00
C1142  C     0.40045   0.84691   0.75198   0.00000  Uiso   1.00
C1143  C     0.09959   0.65314   0.24797   0.00000  Uiso   1.00
C1144  C     0.34779   0.59831   0.75009   0.00000  Uiso   1.00
C1145  C     0.15220   0.90170   0.24992   0.00000  Uiso   1.00
C1146  C     0.49997   0.74987   0.47960   0.00000  Uiso   1.00
C1147  C     0.28184   0.99178   0.91850   0.00000  Uiso   1.00
C1148  C     0.00003   0.75013   0.52040   0.00000  Uiso   1.00
C1149  C     0.25006   0.50005   0.47954   0.00000  Uiso   1.00
C1150  C     0.24999   0.99999   0.52047   0.00000  Uiso   1.00
C1151  C     0.25000   0.99999   0.97962   0.00000  Uiso   1.00
C1152  C     0.25000   0.50000   0.02042   0.00000  Uiso   1.00
C1153  C     0.49998   0.74998   0.97950   0.00000  Uiso   1.00
C1154  C     0.49999   0.74999   0.02043   0.00000  Uiso   1.00
C1155  C     0.09145   0.68282   0.44712   0.00000  Uiso   1.00
C1156  C     0.40850   0.81713   0.55293   0.00000  Uiso   1.00
C1157  C     0.35470   0.95581   0.44597   0.00000  Uiso   1.00
C1158  C     0.21806   0.50777   0.08150   0.00000  Uiso   1.00
C1159  C     0.14546   0.54455   0.55422   0.00000  Uiso   1.00
C1160  C     0.40424   0.81424   0.44846   0.00000  Uiso   1.00
C1161  C     0.09583   0.68584   0.55157   0.00000  Uiso   1.00
C1162  C     0.14434   0.54510   0.44945   0.00000  Uiso   1.00
C1163  C     0.35560   0.95461   0.55071   0.00000  Uiso   1.00
C1164  C     0.34581   0.93565   0.94854   0.00000  Uiso   1.00
C1165  C     0.15856   0.56702   0.05302   0.00000  Uiso   1.00
C1166  C     0.10450   0.70546   0.94572   0.00000  Uiso   1.00
C1167  C     0.39428   0.79517   0.05063   0.00000  Uiso   1.00
C1168  C     0.15413   0.56428   0.94856   0.00000  Uiso   1.00
C1169  C     0.02345   0.72710   0.91824   0.00000  Uiso   1.00
C1170  C     0.34148   0.93302   0.05301   0.00000  Uiso   1.00
C1171  C     0.39540   0.79432   0.94588   0.00000  Uiso   1.00
C1172  C     0.10575   0.70499   0.05048   0.00000  Uiso   1.00
C1173  C     0.18305   0.88978   0.16796   0.00000  Uiso   1.00
C1174  C     0.19121   0.90068   0.12604   0.00000  Uiso   1.00
C1175  C     0.31706   0.61006   0.83214   0.00000  Uiso   1.00
C1176  C     0.30898   0.59907   0.87404   0.00000  Uiso   1.00
C1177  C     0.07849   0.64032   0.16179   0.00000  Uiso   1.00
C1178  C     0.04987   0.63377   0.13044   0.00000  Uiso   1.00
C1179  C     0.42167   0.86017   0.83810   0.00000  Uiso   1.00
C1180  C     0.47630   0.77265   0.08172   0.00000  Uiso   1.00
C1181  C     0.45040   0.86671   0.86934   0.00000  Uiso   1.00
C1182  C     0.31704   0.61015   0.16794   0.00000  Uiso   1.00
C1183  C     0.30894   0.59923   0.12601   0.00000  Uiso   1.00
C1184  C     0.18287   0.88998   0.83214   0.00000  Uiso   1.00
C1185  C     0.19092   0.90097   0.87405   0.00000  Uiso   1.00
C1186  C     0.42167   0.85977   0.16179   0.00000  Uiso   1.00
C1187  C     0.45036   0.86633   0.13052   0.00000  Uiso   1.00
C1188  C     0.07814   0.63971   0.83809   0.00000  Uiso   1.00
C1189  C     0.04931   0.63317   0.86922   0.00000  Uiso   1.00
C1190  C     0.11957   0.55844   0.82984   0.00000  Uiso   1.00
C1191  C     0.49995   0.74992   0.39830   0.00000  Uiso   1.00
C1192  C     0.12277   0.51876   0.84245   0.00000  Uiso   1.00
C1193  C     0.37985   0.94085   0.16953   0.00000  Uiso   1.00
C1194  C     0.37665   0.98039   0.15644   0.00000  Uiso   1.00
C1195  C     0.11522   0.82239   0.83676   0.00000  Uiso   1.00
C1196  C     0.08945   0.79363   0.85356   0.00000  Uiso   1.00
C1197  C     0.38462   0.67787   0.16348   0.00000  Uiso   1.00
C1198  C     0.41038   0.70675   0.14691   0.00000  Uiso   1.00
C1199  C     0.38030   0.94148   0.82991   0.00000  Uiso   1.00
C1200  C     0.37714   0.98116   0.84257   0.00000  Uiso   1.00
C1201  C     0.12025   0.55921   0.16948   0.00000  Uiso   1.00
C1202  C     0.00005   0.75008   0.60170   0.00000  Uiso   1.00
C1203  C     0.12343   0.51968   0.15635   0.00000  Uiso   1.00
C1204  C     0.38474   0.67763   0.83677   0.00000  Uiso   1.00
C1205  C     0.41051   0.70638   0.85359   0.00000  Uiso   1.00
C1206  C     0.11545   0.82205   0.16351   0.00000  Uiso   1.00
C1207  C     0.08968   0.79319   0.14692   0.00000  Uiso   1.00
C1208  C     0.43292   0.63991   0.66789   0.00000  Uiso   1.00
C1209  C     0.44100   0.65086   0.62597   0.00000  Uiso   1.00
C1210  C     0.06696   0.86021   0.33205   0.00000  Uiso   1.00
C1211  C     0.05881   0.84930   0.37397   0.00000  Uiso   1.00
C1212  C     0.32831   0.89015   0.66181   0.00000  Uiso   1.00
C1213  C     0.25000   0.50003   0.39816   0.00000  Uiso   1.00
C1214  C     0.29960   0.88355   0.63057   0.00000  Uiso   1.00
C1215  C     0.17154   0.60973   0.33820   0.00000  Uiso   1.00
C1216  C     0.20015   0.61632   0.36955   0.00000  Uiso   1.00
C1217  C     0.06712   0.86003   0.66787   0.00000  Uiso   1.00
C1218  C     0.05906   0.84905   0.62596   0.00000  Uiso   1.00
C1219  C     0.43297   0.63988   0.33209   0.00000  Uiso   1.00
C1220  C     0.44108   0.65085   0.37400   0.00000  Uiso   1.00
C1221  C     0.17185   0.61026   0.66191   0.00000  Uiso   1.00
C1222  C     0.20071   0.61676   0.63079   0.00000  Uiso   1.00
C1223  C     0.32835   0.88990   0.33812   0.00000  Uiso   1.00
C1224  C     0.03196   0.74213   0.58149   0.00000  Uiso   1.00
C1225  C     0.25001   0.99997   0.60184   0.00000  Uiso   1.00
C1226  C     0.29963   0.88340   0.36938   0.00000  Uiso   1.00
C1227  C     0.36973   0.80857   0.32996   0.00000  Uiso   1.00
C1228  C     0.37288   0.76891   0.34265   0.00000  Uiso   1.00
C1229  C     0.13044   0.69154   0.67015   0.00000  Uiso   1.00
C1230  C     0.12725   0.73123   0.65754   0.00000  Uiso   1.00
C1231  C     0.36529   0.57229   0.33672   0.00000  Uiso   1.00
C1232  C     0.33952   0.54354   0.35354   0.00000  Uiso   1.00
C1233  C     0.13477   0.92762   0.66325   0.00000  Uiso   1.00
C1234  C     0.16054   0.95637   0.64643   0.00000  Uiso   1.00
C1235  C     0.12975   0.69081   0.33050   0.00000  Uiso   1.00
C1236  C     0.24999   0.99999   0.89830   0.00000  Uiso   1.00
C1237  C     0.12657   0.73034   0.34362   0.00000  Uiso   1.00
C1238  C     0.37012   0.80909   0.66959   0.00000  Uiso   1.00
C1239  C     0.37334   0.76954   0.65653   0.00000  Uiso   1.00
C1240  C     0.13456   0.92794   0.33649   0.00000  Uiso   1.00
C1241  C     0.16032   0.95681   0.35307   0.00000  Uiso   1.00
C1242  C     0.36534   0.57222   0.66343   0.00000  Uiso   1.00
C1243  C     0.33958   0.54335   0.64684   0.00000  Uiso   1.00
C1244  C     0.25001   0.50000   0.10170   0.00000  Uiso   1.00
C1245  C     0.49999   0.75000   0.89815   0.00000  Uiso   1.00
C1246  C     0.00000   0.75000   0.10183   0.00000  Uiso   1.00
C1247  C     0.06327   0.72918   0.47957   0.00000  Uiso   1.00
C1248  C     0.43672   0.77081   0.52043   0.00000  Uiso   1.00
C1249  C     0.30065   0.95702   0.47955   0.00000  Uiso   1.00
C1250  C     0.19943   0.54307   0.52046   0.00000  Uiso   1.00
C1251  C     0.43653   0.77013   0.47955   0.00000  Uiso   1.00
C1252  C     0.22642   0.52281   0.41828   0.00000  Uiso   1.00
C1253  C     0.06348   0.72989   0.52045   0.00000  Uiso   1.00
C1254  C     0.19943   0.54302   0.47956   0.00000  Uiso   1.00
C1255  C     0.30058   0.95699   0.52045   0.00000  Uiso   1.00
C1256  C     0.31345   0.97979   0.97953   0.00000  Uiso   1.00
C1257  C     0.18670   0.52073   0.02044   0.00000  Uiso   1.00
C1258  C     0.05056   0.70692   0.97952   0.00000  Uiso   1.00
C1259  C     0.44936   0.79294   0.02046   0.00000  Uiso   1.00
C1260  C     0.18655   0.52018   0.97956   0.00000  Uiso   1.00
C1261  C     0.31330   0.97927   0.02041   0.00000  Uiso   1.00
C1262  C     0.44939   0.79303   0.97955   0.00000  Uiso   1.00
C1263  C     0.27358   0.97720   0.58172   0.00000  Uiso   1.00
C1264  C     0.05063   0.70705   0.02042   0.00000  Uiso   1.00
C1265  C     0.24997   0.50000   0.35586   0.00000  Uiso   1.00
C1266  C     0.25003   0.50000   0.64414   0.00000  Uiso   1.00
C1267  C     0.49999   0.75003   0.35589   0.00000  Uiso   1.00
C1268  C     0.00001   0.74997   0.64411   0.00000  Uiso   1.00
C1269  C    -0.00000   0.75000   0.85586   0.00000  Uiso   1.00
C1270  C     0.00000   0.75000   0.14413   0.00000  Uiso   1.00
C1271  C     0.25000   0.50000   0.85589   0.00000  Uiso   1.00
C1272  C     0.25000   0.50000   0.14411   0.00000  Uiso   1.00
C1273  C     0.17928   0.56947   0.25095   0.00000  Uiso   1.00
C1274  C     0.03183   0.74189   0.41850   0.00000  Uiso   1.00
C1275  C     0.32073   0.93055   0.74903   0.00000  Uiso   1.00
C1276  C     0.42989   0.68014   0.24976   0.00000  Uiso   1.00
C1277  C     0.07011   0.81986   0.75025   0.00000  Uiso   1.00
C1278  C     0.32071   0.93052   0.25094   0.00000  Uiso   1.00
C1279  C     0.17927   0.56946   0.74903   0.00000  Uiso   1.00
C1280  C     0.07011   0.81986   0.24975   0.00000  Uiso   1.00
C1281  C     0.42989   0.68014   0.75025   0.00000  Uiso   1.00
C1282  C     0.17989   0.93014   0.74975   0.00000  Uiso   1.00
C1283  C     0.32012   0.56986   0.25025   0.00000  Uiso   1.00
C1284  C     0.42929   0.81948   0.75094   0.00000  Uiso   1.00
C1285  C     0.46817   0.75811   0.58150   0.00000  Uiso   1.00
C1286  C     0.07072   0.68053   0.24905   0.00000  Uiso   1.00
C1287  C     0.32011   0.56986   0.74976   0.00000  Uiso   1.00
C1288  C     0.17989   0.93014   0.25024   0.00000  Uiso   1.00
C1289  C     0.07073   0.68054   0.75097   0.00000  Uiso   1.00
C1290  C     0.42927   0.81945   0.24903   0.00000  Uiso   1.00
C1291  C     0.13798   0.88903   0.21414   0.00000  Uiso   1.00
C1292  C     0.36207   0.61092   0.78587   0.00000  Uiso   1.00
C1293  C     0.09656   0.62280   0.22252   0.00000  Uiso   1.00
C1294  C     0.40358   0.87736   0.77728   0.00000  Uiso   1.00
C1295  C     0.36207   0.61093   0.21416   0.00000  Uiso   1.00
C1296  C     0.27358   0.97726   0.41825   0.00000  Uiso   1.00
C1297  C     0.13790   0.88910   0.78586   0.00000  Uiso   1.00
C1298  C     0.40346   0.87720   0.22251   0.00000  Uiso   1.00
C1299  C     0.09640   0.62263   0.77728   0.00000  Uiso   1.00
C1300  C     0.12058   0.59364   0.77375   0.00000  Uiso   1.00
C1301  C     0.37926   0.90619   0.22597   0.00000  Uiso   1.00
C1302  C     0.11037   0.86254   0.78565   0.00000  Uiso   1.00
C1303  C     0.38959   0.63750   0.21437   0.00000  Uiso   1.00
C1304  C     0.37940   0.90636   0.77377   0.00000  Uiso   1.00
C1305  C     0.12076   0.59381   0.22597   0.00000  Uiso   1.00
C1306  C     0.38960   0.63748   0.78566   0.00000  Uiso   1.00
C1307  C     0.22644   0.52277   0.58175   0.00000  Uiso   1.00
C1308  C     0.11046   0.86246   0.21435   0.00000  Uiso   1.00
C1309  C     0.38792   0.63910   0.71416   0.00000  Uiso   1.00
C1310  C     0.11203   0.86096   0.28586   0.00000  Uiso   1.00
C1311  C     0.34653   0.87277   0.72254   0.00000  Uiso   1.00
C1312  C     0.15345   0.62721   0.27747   0.00000  Uiso   1.00
C1313  C     0.11210   0.86090   0.71414   0.00000  Uiso   1.00
C1314  C     0.38794   0.63906   0.28587   0.00000  Uiso   1.00
C1315  C     0.15360   0.62736   0.72271   0.00000  Uiso   1.00
C1316  C     0.34643   0.87266   0.27730   0.00000  Uiso   1.00
C1317  C     0.37061   0.84365   0.27379   0.00000  Uiso   1.00
C1318  C     0.21815   0.50820   0.91851   0.00000  Uiso   1.00
C1319  C     0.12941   0.65636   0.72625   0.00000  Uiso   1.00
C1320  C     0.36042   0.61249   0.28566   0.00000  Uiso   1.00
C1321  C     0.13962   0.88747   0.71435   0.00000  Uiso   1.00
C1322  C     0.12925   0.65620   0.27402   0.00000  Uiso   1.00
C1323  C     0.37074   0.84379   0.72600   0.00000  Uiso   1.00
C1324  C     0.13955   0.88753   0.28565   0.00000  Uiso   1.00
C1325  C     0.36040   0.61253   0.71437   0.00000  Uiso   1.00
C1326  C     0.03188   0.74015   0.45912   0.00000  Uiso   1.00
C1327  C     0.46812   0.75985   0.54088   0.00000  Uiso   1.00
C1328  C     0.27497   0.97796   0.45900   0.00000  Uiso   1.00
H1329  H     0.44355   0.76399   0.40236   0.00000  Uiso   1.00
H1330  H     0.30665   0.98721   0.09764   0.00000  Uiso   1.00
H1331  H     0.07992   0.66951   0.83225   0.00000  Uiso   1.00
H1332  H     0.10497   0.63124   0.84989   0.00000  Uiso   1.00
H1333  H     0.05795   0.64614   0.89694   0.00000  Uiso   1.00
H1334  H     0.02303   0.64496   0.85982   0.00000  Uiso   1.00
H1335  H     0.04545   0.60348   0.87437   0.00000  Uiso   1.00
H1336  H     0.09688   0.56986   0.84692   0.00000  Uiso   1.00
H1337  H     0.14548   0.57305   0.83719   0.00000  Uiso   1.00
H1338  H     0.09700   0.50376   0.83609   0.00000  Uiso   1.00
H1339  H     0.14533   0.50531   0.82684   0.00000  Uiso   1.00
H1340  H     0.12815   0.51733   0.87425   0.00000  Uiso   1.00
H1341  H     0.45884   0.79042   0.90172   0.00000  Uiso   1.00
H1342  H     0.35387   0.92620   0.16255   0.00000  Uiso   1.00
H1343  H     0.40242   0.92924   0.15242   0.00000  Uiso   1.00
H1344  H     0.37132   0.98143   0.12461   0.00000  Uiso   1.00
H1345  H     0.35407   0.99399   0.17188   0.00000  Uiso   1.00
H1346  H     0.40240   0.99546   0.16263   0.00000  Uiso   1.00
H1347  H     0.13200   0.83345   0.86103   0.00000  Uiso   1.00
H1348  H     0.13362   0.80852   0.81560   0.00000  Uiso   1.00
H1349  H     0.07003   0.80638   0.87414   0.00000  Uiso   1.00
H1350  H     0.07411   0.78003   0.82967   0.00000  Uiso   1.00
H1351  H     0.10522   0.77267   0.86944   0.00000  Uiso   1.00
H1352  H     0.04192   0.71024   0.09819   0.00000  Uiso   1.00
H1353  H     0.36622   0.69159   0.18474   0.00000  Uiso   1.00
H1354  H     0.36784   0.66698   0.13912   0.00000  Uiso   1.00
H1355  H     0.39458   0.72789   0.13136   0.00000  Uiso   1.00
H1356  H     0.42584   0.72009   0.17088   0.00000  Uiso   1.00
H1357  H     0.42971   0.69418   0.12609   0.00000  Uiso   1.00
H1358  H     0.40293   0.93001   0.84703   0.00000  Uiso   1.00
H1359  H     0.35435   0.92690   0.83717   0.00000  Uiso   1.00
H1360  H     0.40294   0.99612   0.83630   0.00000  Uiso   1.00
H1361  H     0.35463   0.99466   0.82692   0.00000  Uiso   1.00
H1362  H     0.37168   0.98255   0.87436   0.00000  Uiso   1.00
H1363  H     0.30629   0.98552   0.90232   0.00000  Uiso   1.00
H1364  H     0.14626   0.57383   0.16256   0.00000  Uiso   1.00
H1365  H     0.09772   0.57086   0.15235   0.00000  Uiso   1.00
H1366  H     0.12881   0.51866   0.12452   0.00000  Uiso   1.00
H1367  H     0.14596   0.50603   0.17181   0.00000  Uiso   1.00
H1368  H     0.09764   0.50463   0.16248   0.00000  Uiso   1.00
H1369  H     0.36795   0.66658   0.86104   0.00000  Uiso   1.00
H1370  H     0.36637   0.69151   0.81561   0.00000  Uiso   1.00
H1371  H     0.42992   0.69362   0.87417   0.00000  Uiso   1.00
H1372  H     0.42588   0.71997   0.82970   0.00000  Uiso   1.00
H1373  H     0.39475   0.72734   0.86945   0.00000  Uiso   1.00
H1374  H     0.19336   0.51279   0.09766   0.00000  Uiso   1.00
H1375  H     0.13380   0.80833   0.18480   0.00000  Uiso   1.00
H1376  H     0.13227   0.83292   0.13916   0.00000  Uiso   1.00
H1377  H     0.10548   0.77202   0.13142   0.00000  Uiso   1.00
H1378  H     0.07418   0.77988   0.17088   0.00000  Uiso   1.00
H1379  H     0.07040   0.80576   0.12607   0.00000  Uiso   1.00
H1380  H     0.43338   0.60961   0.66991   0.00000  Uiso   1.00
H1381  H     0.45513   0.65114   0.68644   0.00000  Uiso   1.00
H1382  H     0.41975   0.63947   0.60627   0.00000  Uiso   1.00
H1383  H     0.44151   0.68106   0.62330   0.00000  Uiso   1.00
H1384  H     0.46792   0.64022   0.61705   0.00000  Uiso   1.00
H1385  H     0.04116   0.70958   0.90170   0.00000  Uiso   1.00
H1386  H     0.04478   0.84895   0.31348   0.00000  Uiso   1.00
H1387  H     0.06651   0.89050   0.32999   0.00000  Uiso   1.00
H1388  H     0.03189   0.85996   0.38283   0.00000  Uiso   1.00
H1389  H     0.05830   0.81911   0.37668   0.00000  Uiso   1.00
H1390  H     0.08004   0.86071   0.39369   0.00000  Uiso   1.00
H1391  H     0.35523   0.88194   0.65005   0.00000  Uiso   1.00
H1392  H     0.32986   0.91992   0.66781   0.00000  Uiso   1.00
H1393  H     0.29590   0.85386   0.62531   0.00000  Uiso   1.00
H1394  H     0.27324   0.89519   0.63992   0.00000  Uiso   1.00
H1395  H     0.30829   0.89663   0.60293   0.00000  Uiso   1.00
H1396  H     0.45809   0.78976   0.09821   0.00000  Uiso   1.00
H1397  H     0.17004   0.57996   0.33215   0.00000  Uiso   1.00
H1398  H     0.14457   0.61789   0.34989   0.00000  Uiso   1.00
H1399  H     0.19137   0.60324   0.39715   0.00000  Uiso   1.00
H1400  H     0.22654   0.60468   0.36029   0.00000  Uiso   1.00
H1401  H     0.20384   0.64601   0.37483   0.00000  Uiso   1.00
H1402  H     0.06664   0.89033   0.66986   0.00000  Uiso   1.00
H1403  H     0.04491   0.84881   0.68642   0.00000  Uiso   1.00
H1404  H     0.08030   0.86044   0.60624   0.00000  Uiso   1.00
H1405  H     0.05858   0.81884   0.62330   0.00000  Uiso   1.00
H1406  H     0.03214   0.85966   0.61702   0.00000  Uiso   1.00
H1407  H     0.11892   0.67059   0.44695   0.00000  Uiso   1.00
H1408  H     0.45516   0.65112   0.31352   0.00000  Uiso   1.00
H1409  H     0.43344   0.60959   0.33008   0.00000  Uiso   1.00
H1410  H     0.46800   0.64022   0.38290   0.00000  Uiso   1.00
H1411  H     0.44156   0.68105   0.37668   0.00000  Uiso   1.00
H1412  H     0.41985   0.63944   0.39374   0.00000  Uiso   1.00
H1413  H     0.14504   0.61875   0.65009   0.00000  Uiso   1.00
H1414  H     0.17005   0.58047   0.66777   0.00000  Uiso   1.00
H1415  H     0.22698   0.60499   0.64024   0.00000  Uiso   1.00
H1416  H     0.19209   0.60375   0.60309   0.00000  Uiso   1.00
H1417  H     0.20456   0.64644   0.62560   0.00000  Uiso   1.00
H1418  H     0.08110   0.68186   0.41677   0.00000  Uiso   1.00
H1419  H     0.33008   0.91968   0.33220   0.00000  Uiso   1.00
H1420  H     0.35523   0.88146   0.34984   0.00000  Uiso   1.00
H1421  H     0.30837   0.89642   0.39703   0.00000  Uiso   1.00
H1422  H     0.27332   0.89517   0.36005   0.00000  Uiso   1.00
H1423  H     0.29579   0.85372   0.37460   0.00000  Uiso   1.00
H1424  H     0.34710   0.82007   0.34709   0.00000  Uiso   1.00
H1425  H     0.39569   0.82315   0.33719   0.00000  Uiso   1.00
H1426  H     0.34707   0.75395   0.33640   0.00000  Uiso   1.00
H1427  H     0.39538   0.75539   0.32700   0.00000  Uiso   1.00
H1428  H     0.37833   0.76753   0.37444   0.00000  Uiso   1.00
H1429  H     0.07368   0.66523   0.46585   0.00000  Uiso   1.00
H1430  H     0.10454   0.67693   0.66279   0.00000  Uiso   1.00
H1431  H     0.15315   0.68013   0.65308   0.00000  Uiso   1.00
H1432  H     0.12190   0.73265   0.62573   0.00000  Uiso   1.00
H1433  H     0.10466   0.74467   0.67312   0.00000  Uiso   1.00
H1434  H     0.15300   0.74624   0.66392   0.00000  Uiso   1.00
H1435  H     0.38211   0.58332   0.36098   0.00000  Uiso   1.00
H1436  H     0.38364   0.55842   0.31552   0.00000  Uiso   1.00
H1437  H     0.32014   0.55629   0.37416   0.00000  Uiso   1.00
H1438  H     0.32412   0.52998   0.32966   0.00000  Uiso   1.00
H1439  H     0.35529   0.52255   0.36936   0.00000  Uiso   1.00
H1440  H     0.05645   0.73601   0.59764   0.00000  Uiso   1.00
H1441  H     0.41854   0.81803   0.58340   0.00000  Uiso   1.00
H1442  H     0.11639   0.94149   0.68440   0.00000  Uiso   1.00
H1443  H     0.11799   0.91656   0.63897   0.00000  Uiso   1.00
H1444  H     0.14478   0.97734   0.63057   0.00000  Uiso   1.00
H1445  H     0.17589   0.96997   0.67032   0.00000  Uiso   1.00
H1446  H     0.17996   0.94362   0.62585   0.00000  Uiso   1.00
H1447  H     0.15226   0.67917   0.34765   0.00000  Uiso   1.00
H1448  H     0.10374   0.67619   0.33742   0.00000  Uiso   1.00
H1449  H     0.15236   0.74539   0.33751   0.00000  Uiso   1.00
H1450  H     0.10404   0.74399   0.32815   0.00000  Uiso   1.00
H1451  H     0.12116   0.73137   0.37545   0.00000  Uiso   1.00
H1452  H     0.38107   0.82943   0.55279   0.00000  Uiso   1.00
H1453  H     0.39609   0.82374   0.66257   0.00000  Uiso   1.00
H1454  H     0.34754   0.82067   0.65249   0.00000  Uiso   1.00
H1455  H     0.37867   0.76848   0.62469   0.00000  Uiso   1.00
H1456  H     0.39592   0.75596   0.67197   0.00000  Uiso   1.00
H1457  H     0.34759   0.75447   0.66273   0.00000  Uiso   1.00
H1458  H     0.11774   0.91707   0.36084   0.00000  Uiso   1.00
H1459  H     0.11619   0.94166   0.31521   0.00000  Uiso   1.00
H1460  H     0.17961   0.94424   0.37392   0.00000  Uiso   1.00
H1461  H     0.17582   0.97012   0.32910   0.00000  Uiso   1.00
H1462  H     0.14452   0.97798   0.36857   0.00000  Uiso   1.00
H1463  H     0.42651   0.83469   0.53443   0.00000  Uiso   1.00
H1464  H     0.38376   0.55848   0.68464   0.00000  Uiso   1.00
H1465  H     0.38210   0.58315   0.63906   0.00000  Uiso   1.00
H1466  H     0.35538   0.52224   0.63125   0.00000  Uiso   1.00
H1467  H     0.32416   0.52997   0.67082   0.00000  Uiso   1.00
H1468  H     0.32023   0.55593   0.62608   0.00000  Uiso   1.00
H1469  H     0.35679   0.98409   0.45792   0.00000  Uiso   1.00
H1470  H     0.35329   0.95738   0.41371   0.00000  Uiso   1.00
H1471  H     0.38026   0.94162   0.45347   0.00000  Uiso   1.00
H1472  H     0.14635   0.54411   0.58654   0.00000  Uiso   1.00
H1473  H     0.14390   0.51583   0.54341   0.00000  Uiso   1.00
H1474  H     0.11988   0.55818   0.54566   0.00000  Uiso   1.00
H1475  H     0.38232   0.81796   0.42664   0.00000  Uiso   1.00
H1476  H     0.20828   0.53999   0.40181   0.00000  Uiso   1.00
H1477  H     0.43022   0.82331   0.43458   0.00000  Uiso   1.00
H1478  H     0.39788   0.83202   0.47362   0.00000  Uiso   1.00
H1479  H     0.06977   0.67665   0.56521   0.00000  Uiso   1.00
H1480  H     0.11759   0.68222   0.57360   0.00000  Uiso   1.00
H1481  H     0.10248   0.66808   0.52648   0.00000  Uiso   1.00
H1482  H     0.15108   0.52086   0.43144   0.00000  Uiso   1.00
H1483  H     0.12645   0.56271   0.43168   0.00000  Uiso   1.00
H1484  H     0.12867   0.53640   0.47556   0.00000  Uiso   1.00
H1485  H     0.37305   0.93709   0.56908   0.00000  Uiso   1.00
H1486  H     0.34893   0.97922   0.56816   0.00000  Uiso   1.00
H1487  H     0.29172   0.96001   0.59820   0.00000  Uiso   1.00
H1488  H     0.37171   0.96267   0.52468   0.00000  Uiso   1.00
H1489  H     0.36739   0.93201   0.92632   0.00000  Uiso   1.00
H1490  H     0.31967   0.92630   0.93521   0.00000  Uiso   1.00
H1491  H     0.35274   0.91804   0.97366   0.00000  Uiso   1.00
H1492  H     0.16938   0.56793   0.08318   0.00000  Uiso   1.00
H1493  H     0.13104   0.57912   0.05373   0.00000  Uiso   1.00
H1494  H     0.17595   0.58472   0.03403   0.00000  Uiso   1.00
H1495  H     0.10624   0.73407   0.95681   0.00000  Uiso   1.00
H1496  H     0.10339   0.70618   0.91341   0.00000  Uiso   1.00
H1497  H     0.13009   0.69167   0.95393   0.00000  Uiso   1.00
H1498  H     0.05649   0.73671   0.40232   0.00000  Uiso   1.00
H1499  H     0.37674   0.81264   0.06895   0.00000  Uiso   1.00
H1500  H     0.40096   0.77057   0.06808   0.00000  Uiso   1.00
H1501  H     0.37827   0.78708   0.02454   0.00000  Uiso   1.00
H1502  H     0.13267   0.56784   0.92620   0.00000  Uiso   1.00
H1503  H     0.18032   0.57372   0.93540   0.00000  Uiso   1.00
H1504  H     0.14699   0.58188   0.97362   0.00000  Uiso   1.00
H1505  H     0.33089   0.93216   0.08328   0.00000  Uiso   1.00
H1506  H     0.36897   0.92086   0.05348   0.00000  Uiso   1.00
H1507  H     0.32390   0.91533   0.03421   0.00000  Uiso   1.00
H1508  H     0.39336   0.76596   0.95763   0.00000  Uiso   1.00
H1509  H     0.44351   0.76329   0.59768   0.00000  Uiso   1.00
H1510  H     0.39680   0.79294   0.91360   0.00000  Uiso   1.00
H1511  H     0.36982   0.80842   0.95349   0.00000  Uiso   1.00
H1512  H     0.12356   0.68747   0.06844   0.00000  Uiso   1.00
H1513  H     0.09904   0.72938   0.06826   0.00000  Uiso   1.00
H1514  H     0.12151   0.71346   0.02433   0.00000  Uiso   1.00
H1515  H     0.18350   0.85949   0.17002   0.00000  Uiso   1.00
H1516  H     0.20523   0.90103   0.18653   0.00000  Uiso   1.00
H1517  H     0.16999   0.88927   0.10631   0.00000  Uiso   1.00
H1518  H     0.19172   0.93088   0.12332   0.00000  Uiso   1.00
H1519  H     0.21814   0.89003   0.11718   0.00000  Uiso   1.00
H1520  H     0.29132   0.95978   0.40171   0.00000  Uiso   1.00
H1521  H     0.29486   0.59883   0.81357   0.00000  Uiso   1.00
H1522  H     0.31659   0.64036   0.83015   0.00000  Uiso   1.00
H1523  H     0.28206   0.60969   0.88297   0.00000  Uiso   1.00
H1524  H     0.30849   0.56887   0.87669   0.00000  Uiso   1.00
H1525  H     0.33022   0.61046   0.89377   0.00000  Uiso   1.00
H1526  H     0.10545   0.63214   0.15009   0.00000  Uiso   1.00
H1527  H     0.08001   0.67008   0.16787   0.00000  Uiso   1.00
H1528  H     0.04619   0.60409   0.12511   0.00000  Uiso   1.00
H1529  H     0.02348   0.64539   0.13974   0.00000  Uiso   1.00
H1530  H     0.05863   0.64691   0.10287   0.00000  Uiso   1.00
H1531  H     0.20866   0.54021   0.59830   0.00000  Uiso   1.00
H1532  H     0.41994   0.83038   0.83222   0.00000  Uiso   1.00
H1533  H     0.39480   0.86862   0.84983   0.00000  Uiso   1.00
H1534  H     0.44166   0.85373   0.89702   0.00000  Uiso   1.00
H1535  H     0.47671   0.85491   0.86001   0.00000  Uiso   1.00
H1536  H     0.45425   0.89639   0.87451   0.00000  Uiso   1.00
H1537  H     0.31659   0.64044   0.16998   0.00000  Uiso   1.00
H1538  H     0.29484   0.59890   0.18649   0.00000  Uiso   1.00
H1539  H     0.33018   0.61063   0.10630   0.00000  Uiso   1.00
H1540  H     0.30844   0.56903   0.12331   0.00000  Uiso   1.00
H1541  H     0.28202   0.60987   0.11713   0.00000  Uiso   1.00
H1542  H     0.19370   0.51446   0.90235   0.00000  Uiso   1.00
H1543  H     0.20509   0.90120   0.81359   0.00000  Uiso   1.00
H1544  H     0.18335   0.85968   0.83015   0.00000  Uiso   1.00
H1545  H     0.21784   0.89035   0.88299   0.00000  Uiso   1.00
H1546  H     0.19141   0.93117   0.87670   0.00000  Uiso   1.00
H1547  H     0.16967   0.88958   0.89376   0.00000  Uiso   1.00
H1548  H     0.39473   0.86797   0.15003   0.00000  Uiso   1.00
H1549  H     0.42011   0.83000   0.16783   0.00000  Uiso   1.00
H1550  H     0.45405   0.89601   0.12521   0.00000  Uiso   1.00
H1551  H     0.47673   0.85472   0.13988   0.00000  Uiso   1.00
H1552  H     0.44168   0.85320   0.10292   0.00000  Uiso   1.00
O1553  O     0.25000   0.50000   0.25000   0.00000  Uiso   1.00
O1554  O     0.25000   0.96963   0.66245   0.00000  Uiso   1.00
O1555  O     0.34491   0.60107   0.67954   0.00000  Uiso   1.00
O1556  O     0.46964   0.75000   0.33755   0.00000  Uiso   1.00
O1557  O     0.03037   0.75000   0.66245   0.00000  Uiso   1.00
O1558  O     0.00000   0.71963   0.83755   0.00000  Uiso   1.00
O1559  O     0.00000   0.78036   0.16245   0.00000  Uiso   1.00
O1560  O     0.28037   0.50000   0.83755   0.00000  Uiso   1.00
O1561  O     0.21964   0.50000   0.16245   0.00000  Uiso   1.00
O1562  O     0.00000   0.78036   0.83755   0.00000  Uiso   1.00
O1563  O     0.00000   0.71963   0.16245   0.00000  Uiso   1.00
O1564  O     0.21964   0.50000   0.83755   0.00000  Uiso   1.00
O1565  O     0.25000   0.50000   0.75000   0.00000  Uiso   1.00
O1566  O     0.28037   0.50000   0.16245   0.00000  Uiso   1.00
O1567  O     0.20725   0.57307   0.27302   0.00000  Uiso   1.00
O1568  O     0.29276   0.92692   0.72698   0.00000  Uiso   1.00
O1569  O     0.42693   0.70724   0.27302   0.00000  Uiso   1.00
O1570  O     0.07308   0.79275   0.72698   0.00000  Uiso   1.00
O1571  O     0.29276   0.92692   0.27302   0.00000  Uiso   1.00
O1572  O     0.20725   0.57307   0.72698   0.00000  Uiso   1.00
O1573  O     0.07308   0.79275   0.27302   0.00000  Uiso   1.00
O1574  O     0.42693   0.70724   0.72698   0.00000  Uiso   1.00
O1575  O     0.20725   0.92692   0.72698   0.00000  Uiso   1.00
O1576  O     0.00000   0.75000   0.25000   0.00000  Uiso   1.00
O1577  O     0.29276   0.57307   0.27302   0.00000  Uiso   1.00
O1578  O     0.42693   0.79275   0.72698   0.00000  Uiso   1.00
O1579  O     0.07308   0.70724   0.27302   0.00000  Uiso   1.00
O1580  O     0.29276   0.57307   0.72698   0.00000  Uiso   1.00
O1581  O     0.20725   0.92692   0.27302   0.00000  Uiso   1.00
O1582  O     0.07308   0.70724   0.72698   0.00000  Uiso   1.00
O1583  O     0.42693   0.79275   0.27302   0.00000  Uiso   1.00
O1584  O     0.45725   0.82307   0.77302   0.00000  Uiso   1.00
O1585  O     0.04276   0.67692   0.22698   0.00000  Uiso   1.00
O1586  O     0.17693   0.95724   0.77302   0.00000  Uiso   1.00
O1587  O     0.00000   0.75000   0.75000   0.00000  Uiso   1.00
O1588  O     0.32308   0.54275   0.22698   0.00000  Uiso   1.00
O1589  O     0.04276   0.67692   0.77302   0.00000  Uiso   1.00
O1590  O     0.45725   0.82307   0.22698   0.00000  Uiso   1.00
O1591  O     0.32308   0.54275   0.77302   0.00000  Uiso   1.00
O1592  O     0.17693   0.95724   0.22698   0.00000  Uiso   1.00
O1593  O     0.45725   0.67692   0.22698   0.00000  Uiso   1.00
O1594  O     0.04276   0.82307   0.77302   0.00000  Uiso   1.00
O1595  O     0.17693   0.54275   0.22698   0.00000  Uiso   1.00
O1596  O     0.32308   0.95724   0.77302   0.00000  Uiso   1.00
O1597  O     0.04276   0.82307   0.22698   0.00000  Uiso   1.00
O1598  O     0.25000   0.96963   0.33755   0.00000  Uiso   1.00
O1599  O     0.45725   0.67692   0.77302   0.00000  Uiso   1.00
O1600  O     0.32308   0.95724   0.22698   0.00000  Uiso   1.00
O1601  O     0.17693   0.54275   0.77302   0.00000  Uiso   1.00
O1602  O     0.09473   0.71936   0.46013   0.00000  Uiso   1.00
O1603  O     0.40526   0.78060   0.53987   0.00000  Uiso   1.00
O1604  O     0.32497   0.93481   0.46021   0.00000  Uiso   1.00
O1605  O     0.17523   0.56540   0.53980   0.00000  Uiso   1.00
O1606  O     0.40448   0.77722   0.45982   0.00000  Uiso   1.00
O1607  O     0.09553   0.72284   0.54019   0.00000  Uiso   1.00
O1608  O     0.17564   0.56552   0.45995   0.00000  Uiso   1.00
O1609  O     0.25000   0.53036   0.66245   0.00000  Uiso   1.00
O1610  O     0.32425   0.93435   0.54007   0.00000  Uiso   1.00
O1611  O     0.34548   0.97270   0.95976   0.00000  Uiso   1.00
O1612  O     0.15524   0.53052   0.03989   0.00000  Uiso   1.00
O1613  O     0.07477   0.68459   0.96018   0.00000  Uiso   1.00
O1614  O     0.42563   0.81550   0.04010   0.00000  Uiso   1.00
O1615  O     0.15450   0.52724   0.95981   0.00000  Uiso   1.00
O1616  O     0.34478   0.96951   0.03984   0.00000  Uiso   1.00
O1617  O     0.42511   0.81528   0.96023   0.00000  Uiso   1.00
O1618  O     0.07444   0.68457   0.04004   0.00000  Uiso   1.00
O1619  O     0.14889   0.90400   0.17884   0.00000  Uiso   1.00
O1620  O     0.03037   0.75000   0.33755   0.00000  Uiso   1.00
O1621  O     0.35122   0.59588   0.82116   0.00000  Uiso   1.00
O1622  O     0.06869   0.62005   0.19550   0.00000  Uiso   1.00
O1623  O     0.43150   0.88018   0.80423   0.00000  Uiso   1.00
O1624  O     0.35120   0.59593   0.17886   0.00000  Uiso   1.00
O1625  O     0.14872   0.90415   0.82115   0.00000  Uiso   1.00
O1626  O     0.43138   0.88000   0.19555   0.00000  Uiso   1.00
O1627  O     0.06841   0.61975   0.80416   0.00000  Uiso   1.00
O1628  O     0.11137   0.55982   0.78958   0.00000  Uiso   1.00
O1629  O     0.38831   0.93988   0.20974   0.00000  Uiso   1.00
O1630  O     0.09479   0.85115   0.82046   0.00000  Uiso   1.00
O1631  O     0.46964   0.75000   0.66245   0.00000  Uiso   1.00
O1632  O     0.40506   0.64900   0.17954   0.00000  Uiso   1.00
O1633  O     0.38860   0.94015   0.78967   0.00000  Uiso   1.00
O1634  O     0.11172   0.56014   0.20968   0.00000  Uiso   1.00
O1635  O     0.40517   0.64887   0.82047   0.00000  Uiso   1.00
O1636  O     0.09501   0.85095   0.17952   0.00000  Uiso   1.00
O1637  O     0.39877   0.65412   0.67886   0.00000  Uiso   1.00
O1638  O     0.10112   0.84599   0.32116   0.00000  Uiso   1.00
O1639  O     0.31859   0.86996   0.69560   0.00000  Uiso   1.00
O1640  O     0.18133   0.62997   0.30447   0.00000  Uiso   1.00
O1641  O     0.10127   0.84586   0.67885   0.00000  Uiso   1.00
O1642  O     0.25000   0.53036   0.33755   0.00000  Uiso   1.00
O1643  O     0.39880   0.65407   0.32117   0.00000  Uiso   1.00
O1644  O     0.18159   0.63024   0.69583   0.00000  Uiso   1.00
O1645  O     0.31851   0.86986   0.30428   0.00000  Uiso   1.00
O1646  O     0.36141   0.80987   0.28973   0.00000  Uiso   1.00
O1647  O     0.13863   0.69018   0.71041   0.00000  Uiso   1.00
O1648  O     0.34486   0.60107   0.32048   0.00000  Uiso   1.00
O1649  O     0.15520   0.89886   0.67954   0.00000  Uiso   1.00
O1650  O     0.13829   0.68988   0.29031   0.00000  Uiso   1.00
O1651  O     0.36168   0.81009   0.70980   0.00000  Uiso   1.00
O1652  O     0.15499   0.89904   0.32048   0.00000  Uiso   1.00
Zn1653 Zn    0.20660   0.50000   0.21735   0.00000  Uiso   1.00
Zn1654 Zn    0.04341   0.75000   0.28265   0.00000  Uiso   1.00
Zn1655 Zn    0.25000   0.95659   0.71735   0.00000  Uiso   1.00
Zn1656 Zn    0.25000   0.54340   0.28265   0.00000  Uiso   1.00
Zn1657 Zn    0.04341   0.75000   0.71735   0.00000  Uiso   1.00
Zn1658 Zn    0.45660   0.75000   0.28265   0.00000  Uiso   1.00
Zn1659 Zn    0.25000   0.54340   0.71735   0.00000  Uiso   1.00
Zn1660 Zn    0.25000   0.95659   0.28265   0.00000  Uiso   1.00
Zn1661 Zn    0.29341   0.50000   0.78265   0.00000  Uiso   1.00
Zn1662 Zn    0.00000   0.70659   0.21735   0.00000  Uiso   1.00
Zn1663 Zn    0.00000   0.79340   0.78265   0.00000  Uiso   1.00
Zn1664 Zn    0.29341   0.50000   0.21735   0.00000  Uiso   1.00
Zn1665 Zn    0.20660   0.50000   0.78265   0.00000  Uiso   1.00
Zn1666 Zn    0.00000   0.79340   0.21735   0.00000  Uiso   1.00
Zn1667 Zn    0.00000   0.70659   0.78265   0.00000  Uiso   1.00
Zn1668 Zn    0.45660   0.75000   0.71735   0.00000  Uiso   1.00
C1669  C     0.96804   0.75788   0.41851   0.00000  Uiso   1.00
C1670  C     0.78195   0.99224   0.08148   0.00000  Uiso   1.00
C1671  C     0.72509   0.52209   0.54101   0.00000  Uiso   1.00
C1672  C     0.96796   0.75928   0.45915   0.00000  Uiso   1.00
C1673  C     0.53204   0.74073   0.54085   0.00000  Uiso   1.00
C1674  C     0.72518   0.52216   0.45904   0.00000  Uiso   1.00
C1675  C     0.77484   0.97785   0.54097   0.00000  Uiso   1.00
C1676  C     0.78198   0.99054   0.95915   0.00000  Uiso   1.00
C1677  C     0.71806   0.50966   0.04089   0.00000  Uiso   1.00
C1678  C     0.52486   0.72784   0.95897   0.00000  Uiso   1.00
C1679  C     0.97509   0.77206   0.04096   0.00000  Uiso   1.00
C1680  C     0.71801   0.50944   0.95916   0.00000  Uiso   1.00
C1681  C     0.97652   0.77288   0.91825   0.00000  Uiso   1.00
C1682  C     0.78195   0.99034   0.04088   0.00000  Uiso   1.00
C1683  C     0.97510   0.77212   0.95899   0.00000  Uiso   1.00
C1684  C     0.52491   0.72794   0.04094   0.00000  Uiso   1.00
C1685  C     0.59780   0.84830   0.25007   0.00000  Uiso   1.00
C1686  C     0.90219   0.65170   0.74994   0.00000  Uiso   1.00
C1687  C     0.65041   0.59687   0.25202   0.00000  Uiso   1.00
C1688  C     0.84963   0.90318   0.74788   0.00000  Uiso   1.00
C1689  C     0.90220   0.65169   0.25009   0.00000  Uiso   1.00
C1690  C     0.59780   0.84830   0.74992   0.00000  Uiso   1.00
C1691  C     0.84955   0.90309   0.25198   0.00000  Uiso   1.00
C1692  C     0.52370   0.72735   0.08171   0.00000  Uiso   1.00
C1693  C     0.65040   0.59686   0.74793   0.00000  Uiso   1.00
C1694  C     0.59959   0.65313   0.75207   0.00000  Uiso   1.00
C1695  C     0.90037   0.84681   0.24788   0.00000  Uiso   1.00
C1696  C     0.65220   0.90170   0.75008   0.00000  Uiso   1.00
C1697  C     0.84781   0.59829   0.24994   0.00000  Uiso   1.00
C1698  C     0.90045   0.84691   0.75198   0.00000  Uiso   1.00
C1699  C     0.59959   0.65314   0.24797   0.00000  Uiso   1.00
C1700  C     0.84779   0.59831   0.75009   0.00000  Uiso   1.00
C1701  C     0.65220   0.90170   0.24992   0.00000  Uiso   1.00
C1702  C     0.99997   0.74987   0.47960   0.00000  Uiso   1.00
C1703  C     0.78184   0.99178   0.91850   0.00000  Uiso   1.00
C1704  C     0.50003   0.75013   0.52040   0.00000  Uiso   1.00
C1705  C     0.75006   0.50005   0.47954   0.00000  Uiso   1.00
C1706  C     0.74999   0.99999   0.52047   0.00000  Uiso   1.00
C1707  C     0.75000   0.99999   0.97962   0.00000  Uiso   1.00
C1708  C     0.75000   0.50000   0.02042   0.00000  Uiso   1.00
C1709  C     0.99998   0.74998   0.97950   0.00000  Uiso   1.00
C1710  C     0.99999   0.74999   0.02043   0.00000  Uiso   1.00
C1711  C     0.59145   0.68282   0.44712   0.00000  Uiso   1.00
C1712  C     0.90850   0.81713   0.55293   0.00000  Uiso   1.00
C1713  C     0.85470   0.95581   0.44597   0.00000  Uiso   1.00
C1714  C     0.71806   0.50777   0.08150   0.00000  Uiso   1.00
C1715  C     0.64546   0.54455   0.55422   0.00000  Uiso   1.00
C1716  C     0.90424   0.81424   0.44846   0.00000  Uiso   1.00
C1717  C     0.59583   0.68584   0.55157   0.00000  Uiso   1.00
C1718  C     0.64434   0.54510   0.44945   0.00000  Uiso   1.00
C1719  C     0.85560   0.95461   0.55071   0.00000  Uiso   1.00
C1720  C     0.84581   0.93565   0.94854   0.00000  Uiso   1.00
C1721  C     0.65856   0.56702   0.05302   0.00000  Uiso   1.00
C1722  C     0.60450   0.70546   0.94572   0.00000  Uiso   1.00
C1723  C     0.89428   0.79517   0.05063   0.00000  Uiso   1.00
C1724  C     0.65413   0.56428   0.94856   0.00000  Uiso   1.00
C1725  C     0.52345   0.72710   0.91824   0.00000  Uiso   1.00
C1726  C     0.84148   0.93302   0.05301   0.00000  Uiso   1.00
C1727  C     0.89540   0.79432   0.94588   0.00000  Uiso   1.00
C1728  C     0.60575   0.70499   0.05048   0.00000  Uiso   1.00
C1729  C     0.68305   0.88978   0.16796   0.00000  Uiso   1.00
C1730  C     0.69121   0.90068   0.12604   0.00000  Uiso   1.00
C1731  C     0.81706   0.61006   0.83214   0.00000  Uiso   1.00
C1732  C     0.80898   0.59907   0.87404   0.00000  Uiso   1.00
C1733  C     0.57849   0.64032   0.16179   0.00000  Uiso   1.00
C1734  C     0.54987   0.63377   0.13044   0.00000  Uiso   1.00
C1735  C     0.92167   0.86017   0.83810   0.00000  Uiso   1.00
C1736  C     0.97630   0.77265   0.08172   0.00000  Uiso   1.00
C1737  C     0.95040   0.86671   0.86934   0.00000  Uiso   1.00
C1738  C     0.81704   0.61015   0.16794   0.00000  Uiso   1.00
C1739  C     0.80894   0.59923   0.12601   0.00000  Uiso   1.00
C1740  C     0.68287   0.88998   0.83214   0.00000  Uiso   1.00
C1741  C     0.69092   0.90097   0.87405   0.00000  Uiso   1.00
C1742  C     0.92167   0.85977   0.16179   0.00000  Uiso   1.00
C1743  C     0.95036   0.86633   0.13052   0.00000  Uiso   1.00
C1744  C     0.57814   0.63971   0.83809   0.00000  Uiso   1.00
C1745  C     0.54931   0.63317   0.86922   0.00000  Uiso   1.00
C1746  C     0.61957   0.55844   0.82984   0.00000  Uiso   1.00
C1747  C     0.99995   0.74992   0.39830   0.00000  Uiso   1.00
C1748  C     0.62277   0.51876   0.84245   0.00000  Uiso   1.00
C1749  C     0.87985   0.94085   0.16953   0.00000  Uiso   1.00
C1750  C     0.87665   0.98039   0.15644   0.00000  Uiso   1.00
C1751  C     0.61522   0.82239   0.83676   0.00000  Uiso   1.00
C1752  C     0.58945   0.79363   0.85356   0.00000  Uiso   1.00
C1753  C     0.88462   0.67787   0.16348   0.00000  Uiso   1.00
C1754  C     0.91038   0.70675   0.14691   0.00000  Uiso   1.00
C1755  C     0.88030   0.94148   0.82991   0.00000  Uiso   1.00
C1756  C     0.87714   0.98116   0.84257   0.00000  Uiso   1.00
C1757  C     0.62025   0.55921   0.16948   0.00000  Uiso   1.00
C1758  C     0.50005   0.75008   0.60170   0.00000  Uiso   1.00
C1759  C     0.62343   0.51968   0.15635   0.00000  Uiso   1.00
C1760  C     0.88474   0.67763   0.83677   0.00000  Uiso   1.00
C1761  C     0.91051   0.70638   0.85359   0.00000  Uiso   1.00
C1762  C     0.61545   0.82205   0.16351   0.00000  Uiso   1.00
C1763  C     0.58968   0.79319   0.14692   0.00000  Uiso   1.00
C1764  C     0.93292   0.63991   0.66789   0.00000  Uiso   1.00
C1765  C     0.94100   0.65086   0.62597   0.00000  Uiso   1.00
C1766  C     0.56696   0.86021   0.33205   0.00000  Uiso   1.00
C1767  C     0.55881   0.84930   0.37397   0.00000  Uiso   1.00
C1768  C     0.82831   0.89015   0.66181   0.00000  Uiso   1.00
C1769  C     0.75000   0.50003   0.39816   0.00000  Uiso   1.00
C1770  C     0.79960   0.88355   0.63057   0.00000  Uiso   1.00
C1771  C     0.67154   0.60973   0.33820   0.00000  Uiso   1.00
C1772  C     0.70015   0.61632   0.36955   0.00000  Uiso   1.00
C1773  C     0.56712   0.86003   0.66787   0.00000  Uiso   1.00
C1774  C     0.55906   0.84905   0.62596   0.00000  Uiso   1.00
C1775  C     0.93297   0.63988   0.33209   0.00000  Uiso   1.00
C1776  C     0.94108   0.65085   0.37400   0.00000  Uiso   1.00
C1777  C     0.67185   0.61026   0.66191   0.00000  Uiso   1.00
C1778  C     0.70071   0.61676   0.63079   0.00000  Uiso   1.00
C1779  C     0.82835   0.88990   0.33812   0.00000  Uiso   1.00
C1780  C     0.53196   0.74213   0.58149   0.00000  Uiso   1.00
C1781  C     0.75001   0.99997   0.60184   0.00000  Uiso   1.00
C1782  C     0.79963   0.88340   0.36938   0.00000  Uiso   1.00
C1783  C     0.86973   0.80857   0.32996   0.00000  Uiso   1.00
C1784  C     0.87288   0.76891   0.34265   0.00000  Uiso   1.00
C1785  C     0.63044   0.69154   0.67015   0.00000  Uiso   1.00
C1786  C     0.62725   0.73123   0.65754   0.00000  Uiso   1.00
C1787  C     0.86529   0.57229   0.33672   0.00000  Uiso   1.00
C1788  C     0.83952   0.54354   0.35354   0.00000  Uiso   1.00
C1789  C     0.63477   0.92762   0.66325   0.00000  Uiso   1.00
C1790  C     0.66054   0.95637   0.64643   0.00000  Uiso   1.00
C1791  C     0.62975   0.69081   0.33050   0.00000  Uiso   1.00
C1792  C     0.74999   0.99999   0.89830   0.00000  Uiso   1.00
C1793  C     0.62657   0.73034   0.34362   0.00000  Uiso   1.00
C1794  C     0.87012   0.80909   0.66959   0.00000  Uiso   1.00
C1795  C     0.87334   0.76954   0.65653   0.00000  Uiso   1.00
C1796  C     0.63456   0.92794   0.33649   0.00000  Uiso   1.00
C1797  C     0.66032   0.95681   0.35307   0.00000  Uiso   1.00
C1798  C     0.86534   0.57222   0.66343   0.00000  Uiso   1.00
C1799  C     0.83958   0.54335   0.64684   0.00000  Uiso   1.00
C1800  C     0.75001   0.50000   0.10170   0.00000  Uiso   1.00
C1801  C     0.99999   0.75000   0.89815   0.00000  Uiso   1.00
C1802  C     0.50000   0.75000   0.10183   0.00000  Uiso   1.00
C1803  C     0.56327   0.72918   0.47957   0.00000  Uiso   1.00
C1804  C     0.93672   0.77081   0.52043   0.00000  Uiso   1.00
C1805  C     0.80065   0.95702   0.47955   0.00000  Uiso   1.00
C1806  C     0.69943   0.54307   0.52046   0.00000  Uiso   1.00
C1807  C     0.93653   0.77013   0.47955   0.00000  Uiso   1.00
C1808  C     0.72642   0.52281   0.41828   0.00000  Uiso   1.00
C1809  C     0.56348   0.72989   0.52045   0.00000  Uiso   1.00
C1810  C     0.69943   0.54302   0.47956   0.00000  Uiso   1.00
C1811  C     0.80058   0.95699   0.52045   0.00000  Uiso   1.00
C1812  C     0.81345   0.97979   0.97953   0.00000  Uiso   1.00
C1813  C     0.68670   0.52073   0.02044   0.00000  Uiso   1.00
C1814  C     0.55056   0.70692   0.97952   0.00000  Uiso   1.00
C1815  C     0.94936   0.79294   0.02046   0.00000  Uiso   1.00
C1816  C     0.68655   0.52018   0.97956   0.00000  Uiso   1.00
C1817  C     0.81330   0.97927   0.02041   0.00000  Uiso   1.00
C1818  C     0.94939   0.79303   0.97955   0.00000  Uiso   1.00
C1819  C     0.77358   0.97720   0.58172   0.00000  Uiso   1.00
C1820  C     0.55063   0.70705   0.02042   0.00000  Uiso   1.00
C1821  C     0.74997   0.50000   0.35586   0.00000  Uiso   1.00
C1822  C     0.75003   0.50000   0.64414   0.00000  Uiso   1.00
C1823  C     0.99999   0.75003   0.35589   0.00000  Uiso   1.00
C1824  C     0.50001   0.74997   0.64411   0.00000  Uiso   1.00
C1825  C     0.50000   0.75000   0.85586   0.00000  Uiso   1.00
C1826  C     0.50000   0.75000   0.14413   0.00000  Uiso   1.00
C1827  C     0.75000   0.50000   0.85589   0.00000  Uiso   1.00
C1828  C     0.75000   0.50000   0.14411   0.00000  Uiso   1.00
C1829  C     0.67928   0.56947   0.25095   0.00000  Uiso   1.00
C1830  C     0.53183   0.74189   0.41850   0.00000  Uiso   1.00
C1831  C     0.82073   0.93055   0.74903   0.00000  Uiso   1.00
C1832  C     0.92989   0.68014   0.24976   0.00000  Uiso   1.00
C1833  C     0.57011   0.81986   0.75025   0.00000  Uiso   1.00
C1834  C     0.82071   0.93052   0.25094   0.00000  Uiso   1.00
C1835  C     0.67927   0.56946   0.74903   0.00000  Uiso   1.00
C1836  C     0.57011   0.81986   0.24975   0.00000  Uiso   1.00
C1837  C     0.92989   0.68014   0.75025   0.00000  Uiso   1.00
C1838  C     0.67989   0.93014   0.74975   0.00000  Uiso   1.00
C1839  C     0.82012   0.56986   0.25025   0.00000  Uiso   1.00
C1840  C     0.92929   0.81948   0.75094   0.00000  Uiso   1.00
C1841  C     0.96817   0.75811   0.58150   0.00000  Uiso   1.00
C1842  C     0.57072   0.68053   0.24905   0.00000  Uiso   1.00
C1843  C     0.82011   0.56986   0.74976   0.00000  Uiso   1.00
C1844  C     0.67989   0.93014   0.25024   0.00000  Uiso   1.00
C1845  C     0.57073   0.68054   0.75097   0.00000  Uiso   1.00
C1846  C     0.92927   0.81945   0.24903   0.00000  Uiso   1.00
C1847  C     0.63798   0.88903   0.21414   0.00000  Uiso   1.00
C1848  C     0.86207   0.61092   0.78587   0.00000  Uiso   1.00
C1849  C     0.59656   0.62280   0.22252   0.00000  Uiso   1.00
C1850  C     0.90358   0.87736   0.77728   0.00000  Uiso   1.00
C1851  C     0.86207   0.61093   0.21416   0.00000  Uiso   1.00
C1852  C     0.77358   0.97726   0.41825   0.00000  Uiso   1.00
C1853  C     0.63790   0.88910   0.78586   0.00000  Uiso   1.00
C1854  C     0.90346   0.87720   0.22251   0.00000  Uiso   1.00
C1855  C     0.59640   0.62263   0.77728   0.00000  Uiso   1.00
C1856  C     0.62058   0.59364   0.77375   0.00000  Uiso   1.00
C1857  C     0.87926   0.90619   0.22597   0.00000  Uiso   1.00
C1858  C     0.61037   0.86254   0.78565   0.00000  Uiso   1.00
C1859  C     0.88959   0.63750   0.21437   0.00000  Uiso   1.00
C1860  C     0.87940   0.90636   0.77377   0.00000  Uiso   1.00
C1861  C     0.62076   0.59381   0.22597   0.00000  Uiso   1.00
C1862  C     0.88960   0.63748   0.78566   0.00000  Uiso   1.00
C1863  C     0.72644   0.52277   0.58175   0.00000  Uiso   1.00
C1864  C     0.61046   0.86246   0.21435   0.00000  Uiso   1.00
C1865  C     0.88792   0.63910   0.71416   0.00000  Uiso   1.00
C1866  C     0.61203   0.86096   0.28586   0.00000  Uiso   1.00
C1867  C     0.84653   0.87277   0.72254   0.00000  Uiso   1.00
C1868  C     0.65345   0.62721   0.27747   0.00000  Uiso   1.00
C1869  C     0.61210   0.86090   0.71414   0.00000  Uiso   1.00
C1870  C     0.88794   0.63906   0.28587   0.00000  Uiso   1.00
C1871  C     0.65360   0.62736   0.72271   0.00000  Uiso   1.00
C1872  C     0.84643   0.87266   0.27730   0.00000  Uiso   1.00
C1873  C     0.87061   0.84365   0.27379   0.00000  Uiso   1.00
C1874  C     0.71815   0.50820   0.91851   0.00000  Uiso   1.00
C1875  C     0.62941   0.65636   0.72625   0.00000  Uiso   1.00
C1876  C     0.86042   0.61249   0.28566   0.00000  Uiso   1.00
C1877  C     0.63962   0.88747   0.71435   0.00000  Uiso   1.00
C1878  C     0.62925   0.65620   0.27402   0.00000  Uiso   1.00
C1879  C     0.87074   0.84379   0.72600   0.00000  Uiso   1.00
C1880  C     0.63955   0.88753   0.28565   0.00000  Uiso   1.00
C1881  C     0.86040   0.61253   0.71437   0.00000  Uiso   1.00
C1882  C     0.53188   0.74015   0.45912   0.00000  Uiso   1.00
C1883  C     0.96812   0.75985   0.54088   0.00000  Uiso   1.00
C1884  C     0.77497   0.97796   0.45900   0.00000  Uiso   1.00
H1885  H     0.94355   0.76399   0.40236   0.00000  Uiso   1.00
H1886  H     0.80665   0.98721   0.09764   0.00000  Uiso   1.00
H1887  H     0.57992   0.66951   0.83225   0.00000  Uiso   1.00
H1888  H     0.60497   0.63124   0.84989   0.00000  Uiso   1.00
H1889  H     0.55795   0.64614   0.89694   0.00000  Uiso   1.00
H1890  H     0.52303   0.64496   0.85982   0.00000  Uiso   1.00
H1891  H     0.54545   0.60348   0.87437   0.00000  Uiso   1.00
H1892  H     0.59688   0.56986   0.84692   0.00000  Uiso   1.00
H1893  H     0.64548   0.57305   0.83719   0.00000  Uiso   1.00
H1894  H     0.59700   0.50376   0.83609   0.00000  Uiso   1.00
H1895  H     0.64533   0.50531   0.82684   0.00000  Uiso   1.00
H1896  H     0.62815   0.51733   0.87425   0.00000  Uiso   1.00
H1897  H     0.95884   0.79042   0.90172   0.00000  Uiso   1.00
H1898  H     0.85387   0.92620   0.16255   0.00000  Uiso   1.00
H1899  H     0.90242   0.92924   0.15242   0.00000  Uiso   1.00
H1900  H     0.87132   0.98143   0.12461   0.00000  Uiso   1.00
H1901  H     0.85407   0.99399   0.17188   0.00000  Uiso   1.00
H1902  H     0.90240   0.99546   0.16263   0.00000  Uiso   1.00
H1903  H     0.63200   0.83345   0.86103   0.00000  Uiso   1.00
H1904  H     0.63362   0.80852   0.81560   0.00000  Uiso   1.00
H1905  H     0.57003   0.80638   0.87414   0.00000  Uiso   1.00
H1906  H     0.57411   0.78003   0.82967   0.00000  Uiso   1.00
H1907  H     0.60522   0.77267   0.86944   0.00000  Uiso   1.00
H1908  H     0.54192   0.71024   0.09819   0.00000  Uiso   1.00
H1909  H     0.86622   0.69159   0.18474   0.00000  Uiso   1.00
H1910  H     0.86784   0.66698   0.13912   0.00000  Uiso   1.00
H1911  H     0.89458   0.72789   0.13136   0.00000  Uiso   1.00
H1912  H     0.92584   0.72009   0.17088   0.00000  Uiso   1.00
H1913  H     0.92971   0.69418   0.12609   0.00000  Uiso   1.00
H1914  H     0.90293   0.93001   0.84703   0.00000  Uiso   1.00
H1915  H     0.85435   0.92690   0.83717   0.00000  Uiso   1.00
H1916  H     0.90294   0.99612   0.83630   0.00000  Uiso   1.00
H1917  H     0.85463   0.99466   0.82692   0.00000  Uiso   1.00
H1918  H     0.87168   0.98255   0.87436   0.00000  Uiso   1.00
H1919  H     0.80629   0.98552   0.90232   0.00000  Uiso   1.00
H1920  H     0.64626   0.57383   0.16256   0.00000  Uiso   1.00
H1921  H     0.59772   0.57086   0.15235   0.00000  Uiso   1.00
H1922  H     0.62881   0.51866   0.12452   0.00000  Uiso   1.00
H1923  H     0.64596   0.50603   0.17181   0.00000  Uiso   1.00
H1924  H     0.59764   0.50463   0.16248   0.00000  Uiso   1.00
H1925  H     0.86795   0.66658   0.86104   0.00000  Uiso   1.00
H1926  H     0.86637   0.69151   0.81561   0.00000  Uiso   1.00
H1927  H     0.92992   0.69362   0.87417   0.00000  Uiso   1.00
H1928  H     0.92588   0.71997   0.82970   0.00000  Uiso   1.00
H1929  H     0.89475   0.72734   0.86945   0.00000  Uiso   1.00
H1930  H     0.69336   0.51279   0.09766   0.00000  Uiso   1.00
H1931  H     0.63380   0.80833   0.18480   0.00000  Uiso   1.00
H1932  H     0.63227   0.83292   0.13916   0.00000  Uiso   1.00
H1933  H     0.60548   0.77202   0.13142   0.00000  Uiso   1.00
H1934  H     0.57418   0.77988   0.17088   0.00000  Uiso   1.00
H1935  H     0.57040   0.80576   0.12607   0.00000  Uiso   1.00
H1936  H     0.93338   0.60961   0.66991   0.00000  Uiso   1.00
H1937  H     0.95513   0.65114   0.68644   0.00000  Uiso   1.00
H1938  H     0.91975   0.63947   0.60627   0.00000  Uiso   1.00
H1939  H     0.94151   0.68106   0.62330   0.00000  Uiso   1.00
H1940  H     0.96792   0.64022   0.61705   0.00000  Uiso   1.00
H1941  H     0.54116   0.70958   0.90170   0.00000  Uiso   1.00
H1942  H     0.54478   0.84895   0.31348   0.00000  Uiso   1.00
H1943  H     0.56651   0.89050   0.32999   0.00000  Uiso   1.00
H1944  H     0.53189   0.85996   0.38283   0.00000  Uiso   1.00
H1945  H     0.55830   0.81911   0.37668   0.00000  Uiso   1.00
H1946  H     0.58004   0.86071   0.39369   0.00000  Uiso   1.00
H1947  H     0.85523   0.88194   0.65005   0.00000  Uiso   1.00
H1948  H     0.82986   0.91992   0.66781   0.00000  Uiso   1.00
H1949  H     0.79590   0.85386   0.62531   0.00000  Uiso   1.00
H1950  H     0.77324   0.89519   0.63992   0.00000  Uiso   1.00
H1951  H     0.80829   0.89663   0.60293   0.00000  Uiso   1.00
H1952  H     0.95809   0.78976   0.09821   0.00000  Uiso   1.00
H1953  H     0.67004   0.57996   0.33215   0.00000  Uiso   1.00
H1954  H     0.64457   0.61789   0.34989   0.00000  Uiso   1.00
H1955  H     0.69137   0.60324   0.39715   0.00000  Uiso   1.00
H1956  H     0.72654   0.60468   0.36029   0.00000  Uiso   1.00
H1957  H     0.70384   0.64601   0.37483   0.00000  Uiso   1.00
H1958  H     0.56664   0.89033   0.66986   0.00000  Uiso   1.00
H1959  H     0.54491   0.84881   0.68642   0.00000  Uiso   1.00
H1960  H     0.58030   0.86044   0.60624   0.00000  Uiso   1.00
H1961  H     0.55858   0.81884   0.62330   0.00000  Uiso   1.00
H1962  H     0.53214   0.85966   0.61702   0.00000  Uiso   1.00
H1963  H     0.61892   0.67059   0.44695   0.00000  Uiso   1.00
H1964  H     0.95516   0.65112   0.31352   0.00000  Uiso   1.00
H1965  H     0.93344   0.60959   0.33008   0.00000  Uiso   1.00
H1966  H     0.96800   0.64022   0.38290   0.00000  Uiso   1.00
H1967  H     0.94156   0.68105   0.37668   0.00000  Uiso   1.00
H1968  H     0.91985   0.63944   0.39374   0.00000  Uiso   1.00
H1969  H     0.64504   0.61875   0.65009   0.00000  Uiso   1.00
H1970  H     0.67005   0.58047   0.66777   0.00000  Uiso   1.00
H1971  H     0.72698   0.60499   0.64024   0.00000  Uiso   1.00
H1972  H     0.69209   0.60375   0.60309   0.00000  Uiso   1.00
H1973  H     0.70456   0.64644   0.62560   0.00000  Uiso   1.00
H1974  H     0.58110   0.68186   0.41677   0.00000  Uiso   1.00
H1975  H     0.83008   0.91968   0.33220   0.00000  Uiso   1.00
H1976  H     0.85523   0.88146   0.34984   0.00000  Uiso   1.00
H1977  H     0.80837   0.89642   0.39703   0.00000  Uiso   1.00
H1978  H     0.77332   0.89517   0.36005   0.00000  Uiso   1.00
H1979  H     0.79579   0.85372   0.37460   0.00000  Uiso   1.00
H1980  H     0.84710   0.82007   0.34709   0.00000  Uiso   1.00
H1981  H     0.89569   0.82315   0.33719   0.00000  Uiso   1.00
H1982  H     0.84707   0.75395   0.33640   0.00000  Uiso   1.00
H1983  H     0.89538   0.75539   0.32700   0.00000  Uiso   1.00
H1984  H     0.87833   0.76753   0.37444   0.00000  Uiso   1.00
H1985  H     0.57368   0.66523   0.46585   0.00000  Uiso   1.00
H1986  H     0.60454   0.67693   0.66279   0.00000  Uiso   1.00
H1987  H     0.65315   0.68013   0.65308   0.00000  Uiso   1.00
H1988  H     0.62190   0.73265   0.62573   0.00000  Uiso   1.00
H1989  H     0.60466   0.74467   0.67312   0.00000  Uiso   1.00
H1990  H     0.65300   0.74624   0.66392   0.00000  Uiso   1.00
H1991  H     0.88211   0.58332   0.36098   0.00000  Uiso   1.00
H1992  H     0.88364   0.55842   0.31552   0.00000  Uiso   1.00
H1993  H     0.82014   0.55629   0.37416   0.00000  Uiso   1.00
H1994  H     0.82412   0.52998   0.32966   0.00000  Uiso   1.00
H1995  H     0.85529   0.52255   0.36936   0.00000  Uiso   1.00
H1996  H     0.55645   0.73601   0.59764   0.00000  Uiso   1.00
H1997  H     0.91854   0.81803   0.58340   0.00000  Uiso   1.00
H1998  H     0.61639   0.94149   0.68440   0.00000  Uiso   1.00
H1999  H     0.61799   0.91656   0.63897   0.00000  Uiso   1.00
H2000  H     0.64478   0.97734   0.63057   0.00000  Uiso   1.00
H2001  H     0.67589   0.96997   0.67032   0.00000  Uiso   1.00
H2002  H     0.67996   0.94362   0.62585   0.00000  Uiso   1.00
H2003  H     0.65226   0.67917   0.34765   0.00000  Uiso   1.00
H2004  H     0.60374   0.67619   0.33742   0.00000  Uiso   1.00
H2005  H     0.65236   0.74539   0.33751   0.00000  Uiso   1.00
H2006  H     0.60404   0.74399   0.32815   0.00000  Uiso   1.00
H2007  H     0.62116   0.73137   0.37545   0.00000  Uiso   1.00
H2008  H     0.88107   0.82943   0.55279   0.00000  Uiso   1.00
H2009  H     0.89609   0.82374   0.66257   0.00000  Uiso   1.00
H2010  H     0.84754   0.82067   0.65249   0.00000  Uiso   1.00
H2011  H     0.87867   0.76848   0.62469   0.00000  Uiso   1.00
H2012  H     0.89592   0.75596   0.67197   0.00000  Uiso   1.00
H2013  H     0.84759   0.75447   0.66273   0.00000  Uiso   1.00
H2014  H     0.61774   0.91707   0.36084   0.00000  Uiso   1.00
H2015  H     0.61619   0.94166   0.31521   0.00000  Uiso   1.00
H2016  H     0.67961   0.94424   0.37392   0.00000  Uiso   1.00
H2017  H     0.67582   0.97012   0.32910   0.00000  Uiso   1.00
H2018  H     0.64452   0.97798   0.36857   0.00000  Uiso   1.00
H2019  H     0.92651   0.83469   0.53443   0.00000  Uiso   1.00
H2020  H     0.88376   0.55848   0.68464   0.00000  Uiso   1.00
H2021  H     0.88210   0.58315   0.63906   0.00000  Uiso   1.00
H2022  H     0.85538   0.52224   0.63125   0.00000  Uiso   1.00
H2023  H     0.82416   0.52997   0.67082   0.00000  Uiso   1.00
H2024  H     0.82023   0.55593   0.62608   0.00000  Uiso   1.00
H2025  H     0.85679   0.98409   0.45792   0.00000  Uiso   1.00
H2026  H     0.85329   0.95738   0.41371   0.00000  Uiso   1.00
H2027  H     0.88026   0.94162   0.45347   0.00000  Uiso   1.00
H2028  H     0.64635   0.54411   0.58654   0.00000  Uiso   1.00
H2029  H     0.64390   0.51583   0.54341   0.00000  Uiso   1.00
H2030  H     0.61988   0.55818   0.54566   0.00000  Uiso   1.00
H2031  H     0.88232   0.81796   0.42664   0.00000  Uiso   1.00
H2032  H     0.70828   0.53999   0.40181   0.00000  Uiso   1.00
H2033  H     0.93022   0.82331   0.43458   0.00000  Uiso   1.00
H2034  H     0.89788   0.83202   0.47362   0.00000  Uiso   1.00
H2035  H     0.56977   0.67665   0.56521   0.00000  Uiso   1.00
H2036  H     0.61759   0.68222   0.57360   0.00000  Uiso   1.00
H2037  H     0.60248   0.66808   0.52648   0.00000  Uiso   1.00
H2038  H     0.65108   0.52086   0.43144   0.00000  Uiso   1.00
H2039  H     0.62645   0.56271   0.43168   0.00000  Uiso   1.00
H2040  H     0.62867   0.53640   0.47556   0.00000  Uiso   1.00
H2041  H     0.87305   0.93709   0.56908   0.00000  Uiso   1.00
H2042  H     0.84893   0.97922   0.56816   0.00000  Uiso   1.00
H2043  H     0.79172   0.96001   0.59820   0.00000  Uiso   1.00
H2044  H     0.87171   0.96267   0.52468   0.00000  Uiso   1.00
H2045  H     0.86739   0.93201   0.92632   0.00000  Uiso   1.00
H2046  H     0.81967   0.92630   0.93521   0.00000  Uiso   1.00
H2047  H     0.85274   0.91804   0.97366   0.00000  Uiso   1.00
H2048  H     0.66938   0.56793   0.08318   0.00000  Uiso   1.00
H2049  H     0.63104   0.57912   0.05373   0.00000  Uiso   1.00
H2050  H     0.67595   0.58472   0.03403   0.00000  Uiso   1.00
H2051  H     0.60624   0.73407   0.95681   0.00000  Uiso   1.00
H2052  H     0.60339   0.70618   0.91341   0.00000  Uiso   1.00
H2053  H     0.63009   0.69167   0.95393   0.00000  Uiso   1.00
H2054  H     0.55649   0.73671   0.40232   0.00000  Uiso   1.00
H2055  H     0.87674   0.81264   0.06895   0.00000  Uiso   1.00
H2056  H     0.90096   0.77057   0.06808   0.00000  Uiso   1.00
H2057  H     0.87827   0.78708   0.02454   0.00000  Uiso   1.00
H2058  H     0.63267   0.56784   0.92620   0.00000  Uiso   1.00
H2059  H     0.68032   0.57372   0.93540   0.00000  Uiso   1.00
H2060  H     0.64699   0.58188   0.97362   0.00000  Uiso   1.00
H2061  H     0.83089   0.93216   0.08328   0.00000  Uiso   1.00
H2062  H     0.86897   0.92086   0.05348   0.00000  Uiso   1.00
H2063  H     0.82390   0.91533   0.03421   0.00000  Uiso   1.00
H2064  H     0.89336   0.76596   0.95763   0.00000  Uiso   1.00
H2065  H     0.94351   0.76329   0.59768   0.00000  Uiso   1.00
H2066  H     0.89680   0.79294   0.91360   0.00000  Uiso   1.00
H2067  H     0.86982   0.80842   0.95349   0.00000  Uiso   1.00
H2068  H     0.62356   0.68747   0.06844   0.00000  Uiso   1.00
H2069  H     0.59904   0.72938   0.06826   0.00000  Uiso   1.00
H2070  H     0.62151   0.71346   0.02433   0.00000  Uiso   1.00
H2071  H     0.68350   0.85949   0.17002   0.00000  Uiso   1.00
H2072  H     0.70523   0.90103   0.18653   0.00000  Uiso   1.00
H2073  H     0.66999   0.88927   0.10631   0.00000  Uiso   1.00
H2074  H     0.69172   0.93088   0.12332   0.00000  Uiso   1.00
H2075  H     0.71814   0.89003   0.11718   0.00000  Uiso   1.00
H2076  H     0.79132   0.95978   0.40171   0.00000  Uiso   1.00
H2077  H     0.79486   0.59883   0.81357   0.00000  Uiso   1.00
H2078  H     0.81659   0.64036   0.83015   0.00000  Uiso   1.00
H2079  H     0.78206   0.60969   0.88297   0.00000  Uiso   1.00
H2080  H     0.80849   0.56887   0.87669   0.00000  Uiso   1.00
H2081  H     0.83022   0.61046   0.89377   0.00000  Uiso   1.00
H2082  H     0.60545   0.63214   0.15009   0.00000  Uiso   1.00
H2083  H     0.58001   0.67008   0.16787   0.00000  Uiso   1.00
H2084  H     0.54619   0.60409   0.12511   0.00000  Uiso   1.00
H2085  H     0.52348   0.64539   0.13974   0.00000  Uiso   1.00
H2086  H     0.55863   0.64691   0.10287   0.00000  Uiso   1.00
H2087  H     0.70866   0.54021   0.59830   0.00000  Uiso   1.00
H2088  H     0.91994   0.83038   0.83222   0.00000  Uiso   1.00
H2089  H     0.89480   0.86862   0.84983   0.00000  Uiso   1.00
H2090  H     0.94166   0.85373   0.89702   0.00000  Uiso   1.00
H2091  H     0.97671   0.85491   0.86001   0.00000  Uiso   1.00
H2092  H     0.95425   0.89639   0.87451   0.00000  Uiso   1.00
H2093  H     0.81659   0.64044   0.16998   0.00000  Uiso   1.00
H2094  H     0.79484   0.59890   0.18649   0.00000  Uiso   1.00
H2095  H     0.83018   0.61063   0.10630   0.00000  Uiso   1.00
H2096  H     0.80844   0.56903   0.12331   0.00000  Uiso   1.00
H2097  H     0.78202   0.60987   0.11713   0.00000  Uiso   1.00
H2098  H     0.69370   0.51446   0.90235   0.00000  Uiso   1.00
H2099  H     0.70509   0.90120   0.81359   0.00000  Uiso   1.00
H2100  H     0.68335   0.85968   0.83015   0.00000  Uiso   1.00
H2101  H     0.71784   0.89035   0.88299   0.00000  Uiso   1.00
H2102  H     0.69141   0.93117   0.87670   0.00000  Uiso   1.00
H2103  H     0.66967   0.88958   0.89376   0.00000  Uiso   1.00
H2104  H     0.89473   0.86797   0.15003   0.00000  Uiso   1.00
H2105  H     0.92011   0.83000   0.16783   0.00000  Uiso   1.00
H2106  H     0.95405   0.89601   0.12521   0.00000  Uiso   1.00
H2107  H     0.97673   0.85472   0.13988   0.00000  Uiso   1.00
H2108  H     0.94168   0.85320   0.10292   0.00000  Uiso   1.00
O2109  O     0.75000   0.50000   0.25000   0.00000  Uiso   1.00
O2110  O     0.75000   0.96963   0.66245   0.00000  Uiso   1.00
O2111  O     0.84491   0.60107   0.67954   0.00000  Uiso   1.00
O2112  O     0.96964   0.75000   0.33755   0.00000  Uiso   1.00
O2113  O     0.53037   0.75000   0.66245   0.00000  Uiso   1.00
O2114  O     0.50000   0.71963   0.83755   0.00000  Uiso   1.00
O2115  O     0.50000   0.78036   0.16245   0.00000  Uiso   1.00
O2116  O     0.78037   0.50000   0.83755   0.00000  Uiso   1.00
O2117  O     0.71964   0.50000   0.16245   0.00000  Uiso   1.00
O2118  O     0.50000   0.78036   0.83755   0.00000  Uiso   1.00
O2119  O     0.50000   0.71963   0.16245   0.00000  Uiso   1.00
O2120  O     0.71964   0.50000   0.83755   0.00000  Uiso   1.00
O2121  O     0.75000   0.50000   0.75000   0.00000  Uiso   1.00
O2122  O     0.78037   0.50000   0.16245   0.00000  Uiso   1.00
O2123  O     0.70725   0.57307   0.27302   0.00000  Uiso   1.00
O2124  O     0.79276   0.92692   0.72698   0.00000  Uiso   1.00
O2125  O     0.92693   0.70724   0.27302   0.00000  Uiso   1.00
O2126  O     0.57308   0.79275   0.72698   0.00000  Uiso   1.00
O2127  O     0.79276   0.92692   0.27302   0.00000  Uiso   1.00
O2128  O     0.70725   0.57307   0.72698   0.00000  Uiso   1.00
O2129  O     0.57308   0.79275   0.27302   0.00000  Uiso   1.00
O2130  O     0.92693   0.70724   0.72698   0.00000  Uiso   1.00
O2131  O     0.70725   0.92692   0.72698   0.00000  Uiso   1.00
O2132  O     0.50000   0.75000   0.25000   0.00000  Uiso   1.00
O2133  O     0.79276   0.57307   0.27302   0.00000  Uiso   1.00
O2134  O     0.92693   0.79275   0.72698   0.00000  Uiso   1.00
O2135  O     0.57308   0.70724   0.27302   0.00000  Uiso   1.00
O2136  O     0.79276   0.57307   0.72698   0.00000  Uiso   1.00
O2137  O     0.70725   0.92692   0.27302   0.00000  Uiso   1.00
O2138  O     0.57308   0.70724   0.72698   0.00000  Uiso   1.00
O2139  O     0.92693   0.79275   0.27302   0.00000  Uiso   1.00
O2140  O     0.95725   0.82307   0.77302   0.00000  Uiso   1.00
O2141  O     0.54276   0.67692   0.22698   0.00000  Uiso   1.00
O2142  O     0.67693   0.95724   0.77302   0.00000  Uiso   1.00
O2143  O     0.50000   0.75000   0.75000   0.00000  Uiso   1.00
O2144  O     0.82308   0.54275   0.22698   0.00000  Uiso   1.00
O2145  O     0.54276   0.67692   0.77302   0.00000  Uiso   1.00
O2146  O     0.95725   0.82307   0.22698   0.00000  Uiso   1.00
O2147  O     0.82308   0.54275   0.77302   0.00000  Uiso   1.00
O2148  O     0.67693   0.95724   0.22698   0.00000  Uiso   1.00
O2149  O     0.95725   0.67692   0.22698   0.00000  Uiso   1.00
O2150  O     0.54276   0.82307   0.77302   0.00000  Uiso   1.00
O2151  O     0.67693   0.54275   0.22698   0.00000  Uiso   1.00
O2152  O     0.82308   0.95724   0.77302   0.00000  Uiso   1.00
O2153  O     0.54276   0.82307   0.22698   0.00000  Uiso   1.00
O2154  O     0.75000   0.96963   0.33755   0.00000  Uiso   1.00
O2155  O     0.95725   0.67692   0.77302   0.00000  Uiso   1.00
O2156  O     0.82308   0.95724   0.22698   0.00000  Uiso   1.00
O2157  O     0.67693   0.54275   0.77302   0.00000  Uiso   1.00
O2158  O     0.59473   0.71936   0.46013   0.00000  Uiso   1.00
O2159  O     0.90526   0.78060   0.53987   0.00000  Uiso   1.00
O2160  O     0.82497   0.93481   0.46021   0.00000  Uiso   1.00
O2161  O     0.67523   0.56540   0.53980   0.00000  Uiso   1.00
O2162  O     0.90448   0.77722   0.45982   0.00000  Uiso   1.00
O2163  O     0.59553   0.72284   0.54019   0.00000  Uiso   1.00
O2164  O     0.67564   0.56552   0.45995   0.00000  Uiso   1.00
O2165  O     0.75000   0.53036   0.66245   0.00000  Uiso   1.00
O2166  O     0.82425   0.93435   0.54007   0.00000  Uiso   1.00
O2167  O     0.84548   0.97270   0.95976   0.00000  Uiso   1.00
O2168  O     0.65524   0.53052   0.03989   0.00000  Uiso   1.00
O2169  O     0.57477   0.68459   0.96018   0.00000  Uiso   1.00
O2170  O     0.92563   0.81550   0.04010   0.00000  Uiso   1.00
O2171  O     0.65450   0.52724   0.95981   0.00000  Uiso   1.00
O2172  O     0.84478   0.96951   0.03984   0.00000  Uiso   1.00
O2173  O     0.92511   0.81528   0.96023   0.00000  Uiso   1.00
O2174  O     0.57444   0.68457   0.04004   0.00000  Uiso   1.00
O2175  O     0.64889   0.90400   0.17884   0.00000  Uiso   1.00
O2176  O     0.53037   0.75000   0.33755   0.00000  Uiso   1.00
O2177  O     0.85122   0.59588   0.82116   0.00000  Uiso   1.00
O2178  O     0.56869   0.62005   0.19550   0.00000  Uiso   1.00
O2179  O     0.93150   0.88018   0.80423   0.00000  Uiso   1.00
O2180  O     0.85120   0.59593   0.17886   0.00000  Uiso   1.00
O2181  O     0.64872   0.90415   0.82115   0.00000  Uiso   1.00
O2182  O     0.93138   0.88000   0.19555   0.00000  Uiso   1.00
O2183  O     0.56841   0.61975   0.80416   0.00000  Uiso   1.00
O2184  O     0.61137   0.55982   0.78958   0.00000  Uiso   1.00
O2185  O     0.88831   0.93988   0.20974   0.00000  Uiso   1.00
O2186  O     0.59479   0.85115   0.82046   0.00000  Uiso   1.00
O2187  O     0.96964   0.75000   0.66245   0.00000  Uiso   1.00
O2188  O     0.90506   0.64900   0.17954   0.00000  Uiso   1.00
O2189  O     0.88860   0.94015   0.78967   0.00000  Uiso   1.00
O2190  O     0.61172   0.56014   0.20968   0.00000  Uiso   1.00
O2191  O     0.90517   0.64887   0.82047   0.00000  Uiso   1.00
O2192  O     0.59501   0.85095   0.17952   0.00000  Uiso   1.00
O2193  O     0.89877   0.65412   0.67886   0.00000  Uiso   1.00
O2194  O     0.60112   0.84599   0.32116   0.00000  Uiso   1.00
O2195  O     0.81859   0.86996   0.69560   0.00000  Uiso   1.00
O2196  O     0.68133   0.62997   0.30447   0.00000  Uiso   1.00
O2197  O     0.60127   0.84586   0.67885   0.00000  Uiso   1.00
O2198  O     0.75000   0.53036   0.33755   0.00000  Uiso   1.00
O2199  O     0.89880   0.65407   0.32117   0.00000  Uiso   1.00
O2200  O     0.68159   0.63024   0.69583   0.00000  Uiso   1.00
O2201  O     0.81851   0.86986   0.30428   0.00000  Uiso   1.00
O2202  O     0.86141   0.80987   0.28973   0.00000  Uiso   1.00
O2203  O     0.63863   0.69018   0.71041   0.00000  Uiso   1.00
O2204  O     0.84486   0.60107   0.32048   0.00000  Uiso   1.00
O2205  O     0.65520   0.89886   0.67954   0.00000  Uiso   1.00
O2206  O     0.63829   0.68988   0.29031   0.00000  Uiso   1.00
O2207  O     0.86168   0.81009   0.70980   0.00000  Uiso   1.00
O2208  O     0.65499   0.89904   0.32048   0.00000  Uiso   1.00
Zn2209 Zn    0.70660   0.50000   0.21735   0.00000  Uiso   1.00
Zn2210 Zn    0.54341   0.75000   0.28265   0.00000  Uiso   1.00
Zn2211 Zn    0.75000   0.95659   0.71735   0.00000  Uiso   1.00
Zn2212 Zn    0.75000   0.54340   0.28265   0.00000  Uiso   1.00
Zn2213 Zn    0.54341   0.75000   0.71735   0.00000  Uiso   1.00
Zn2214 Zn    0.95660   0.75000   0.28265   0.00000  Uiso   1.00
Zn2215 Zn    0.75000   0.54340   0.71735   0.00000  Uiso   1.00
Zn2216 Zn    0.75000   0.95659   0.28265   0.00000  Uiso   1.00
Zn2217 Zn    0.79341   0.50000   0.78265   0.00000  Uiso   1.00
Zn2218 Zn    0.50000   0.70659   0.21735   0.00000  Uiso   1.00
Zn2219 Zn    0.50000   0.79340   0.78265   0.00000  Uiso   1.00
Zn2220 Zn    0.79341   0.50000   0.21735   0.00000  Uiso   1.00
Zn2221 Zn    0.70660   0.50000   0.78265   0.00000  Uiso   1.00
Zn2222 Zn    0.50000   0.79340   0.21735   0.00000  Uiso   1.00
Zn2223 Zn    0.50000   0.70659   0.78265   0.00000  Uiso   1.00
Zn2224 Zn    0.95660   0.75000   0.71735   0.00000  Uiso   1.00
loop_
_geom_bond_atom_site_label_1
_geom_bond_atom_site_label_2
_geom_bond_distance
_geom_bond_site_symmetry_2
_ccdc_geom_bond_type
C1     C79     1.396   .     A
C1     H217    1.083   .     S
C1     C4      1.395   .     A
C2     C14     1.395   .     A
C2     H218    1.081   .     S
C2     C1244   1.396   .     S
C3     C195    1.399   .     A
C3     C138    1.412   .     A
C3     C1150   1.417   1_545 S
C4     C139    1.412   .     A
C4     C34     1.416   .     A
C5     C36     1.416   .     A
C5     C112    1.395   .     A
C5     C141    1.412   .     A
C6     C142    1.412   .     A
C6     C140    1.399   .     A
C6     C37     1.416   .     A
C7     C143    1.412   .     A
C7     C151    1.399   .     A
C7     C38     1.416   .     A
C8     C35     1.395   .     A
C8     C39     1.416   .     A
C8     C144    1.412   .     A
C9     C46     1.394   .     A
C9     C145    1.413   .     A
C9     C40     1.416   .     S
C10    C146    1.413   .     A
C10    C57     1.399   .     A
C10    C597    1.417   1_455 S
C11    C68     1.399   .     A
C11    C42     1.416   .     A
C11    C147    1.412   .     A
C12    C206    1.395   .     A
C12    C148    1.411   .     A
C12    C1151   1.416   1_545 S
C13    C133    1.393   .     A
C13    H229    1.080   .     S
C13    C15     1.399   .     A
C14    C149    1.413   .     A
C14    C1152   1.416   .     A
C15    C150    1.413   .     A
C15    C41     1.417   .     A
C16    C152    1.412   .     A
C16    C24     1.399   .     A
C16    C598    1.416   1_455 S
C17    C168    1.448   .     S
C17    C196    1.408   .     A
C17    C198    1.410   .     A
C18    C197    1.410   .     A
C18    C194    1.408   .     A
C18    C169    1.448   .     S
C19    C200    1.417   .     A
C19    C161    1.470   .     S
C19    C193    1.413   .     A
C20    C163    1.470   .     S
C20    C199    1.417   .     A
C20    C192    1.413   .     A
C21    C191    1.408   .     A
C21    C164    1.448   .     S
C21    C202    1.411   .     A
C22    C190    1.408   .     A
C22    C201    1.411   .     A
C22    C165    1.448   .     S
C23    C166    1.470   .     S
C23    C204    1.418   .     A
C23    C189    1.413   .     A
C24    H240    1.082   .     S
C24    C134    1.393   .     A
C25    C203    1.418   .     A
C25    C167    1.470   .     S
C25    C188    1.413   .     A
C26    C207    1.413   .     A
C26    C177    1.470   .     S
C26    C187    1.418   .     A
C27    C205    1.413   .     A
C27    C178    1.470   .     S
C27    C186    1.417   .     A
C28    C209    1.408   .     A
C28    C170    1.448   .     S
C28    C185    1.410   .     A
C29    C208    1.408   .     A
C29    C171    1.448   .     S
C29    C183    1.410   .     A
C30    C182    1.418   .     A
C30    C211    1.413   .     A
C30    C172    1.470   .     S
C31    C181    1.417   .     A
C31    C174    1.470   .     S
C31    C210    1.413   .     A
C32    C180    1.411   .     A
C32    C175    1.448   .     S
C32    C213    1.408   .     A
C33    C179    1.410   .     A
C33    C212    1.408   .     A
C33    C176    1.448   .     S
C34    C592    1.400   .     S
C34    C770    1.416   .     S
C35    C124    1.396   .     A
C35    H251    1.083   .     S
C36    C590    1.400   1_455 S
C36    C771    1.416   1_455 S
C37    C1150   1.404   1_545 S
C37    C1328   1.417   1_545 S
C38    C1115   1.417   .     S
C38    C1149   1.404   .     S
C39    C1124   1.416   .     S
C39    C1152   1.400   1_556 S
C40    C1126   1.416   1_545 A
C40    C1151   1.400   1_544 S
C41    C566    1.417   .     S
C41    C42     1.404   1_556 S
C42    C572    1.416   .     S
C42    C41     1.404   1_554 S
C43    H295    1.109   .     S
C43    H317    1.115   .     S
C43    O490    1.416   .     S
C43    H306    1.109   .     S
C44    H340    1.109   .     S
C44    H329    1.109   .     S
C44    H351    1.116   .     S
C44    O491    1.416   .     S
C45    H357    1.117   .     S
C45    H359    1.109   .     S
C45    O492    1.416   .     S
C45    H358    1.109   .     S
C46    C132    1.396   .     A
C46    H262    1.081   .     S
C47    O493    1.416   .     S
C47    H362    1.109   .     S
C47    H361    1.117   .     S
C47    H360    1.109   .     S
C48    O494    1.412   .     S
C48    H365    1.114   .     S
C48    H366    1.108   .     S
C48    H363    1.109   .     S
C49    H368    1.109   .     S
C49    H369    1.108   .     S
C49    H367    1.114   .     S
C49    O495    1.412   .     S
C50    O496    1.411   .     S
C50    H372    1.110   .     S
C50    H371    1.109   .     S
C50    H370    1.113   .     S
C51    H374    1.113   .     S
C51    O498    1.411   .     S
C51    H376    1.109   .     S
C51    H373    1.109   .     S
C52    H377    1.109   .     S
C52    H379    1.108   .     S
C52    H378    1.114   .     S
C52    O499    1.412   .     S
C53    H382    1.115   .     S
C53    O500    1.416   .     S
C53    H381    1.109   .     S
C53    H380    1.109   .     S
C54    H383    1.117   .     S
C54    O501    1.416   .     S
C54    H385    1.109   .     S
C54    H384    1.109   .     S
C55    O502    1.411   .     S
C55    H387    1.109   .     S
C55    H389    1.110   .     S
C55    H388    1.113   .     S
C56    O503    1.412   .     S
C56    H391    1.114   .     S
C56    H390    1.109   .     S
C56    H392    1.108   .     S
C57    H273    1.081   .     S
C57    C689    1.393   1_455 S
C58    H395    1.115   .     S
C58    H393    1.109   .     S
C58    H394    1.109   .     S
C58    O504    1.416   .     S
C59    H398    1.109   .     S
C59    H396    1.117   .     S
C59    H399    1.109   .     S
C59    O505    1.416   .     S
C60    H401    1.113   .     S
C60    H400    1.109   .     S
C60    O506    1.411   .     S
C60    H402    1.110   .     S
C61    O507    1.415   .     S
C61    H403    1.113   .     S
C61    C62     1.521   .     S
C61    H404    1.110   .     S
C62    H407    1.111   .     S
C62    H405    1.111   .     S
C62    H406    1.111   .     S
C63    H410    1.113   .     S
C63    C64     1.521   .     S
C63    O509    1.415   .     S
C63    H409    1.110   .     S
C64    H413    1.111   .     S
C64    H411    1.110   .     S
C64    H412    1.111   .     S
C65    H415    1.112   .     S
C65    O510    1.418   .     S
C65    H414    1.113   .     S
C65    C66     1.521   .     S
C66    H418    1.108   .     S
C66    H416    1.110   .     S
C66    H417    1.111   .     S
C67    O511    1.418   .     S
C67    H421    1.113   .     S
C67    H420    1.112   .     S
C67    C69     1.521   .     S
C68    H284    1.082   .     S
C68    C690    1.393   .     S
C69    H423    1.111   .     S
C69    H422    1.108   .     S
C69    H424    1.110   .     S
C70    O512    1.415   .     S
C70    C71     1.521   .     S
C70    H425    1.113   .     S
C70    H426    1.110   .     S
C71    H427    1.111   .     S
C71    H429    1.111   .     S
C71    H428    1.111   .     S
C72    C73     1.521   .     S
C72    H432    1.113   .     S
C72    H431    1.110   .     S
C72    O513    1.415   .     S
C73    H434    1.111   .     S
C73    H433    1.111   .     S
C73    H435    1.111   .     S
C74    H436    1.113   .     S
C74    H437    1.112   .     S
C74    C75     1.521   .     S
C74    O514    1.418   .     S
C75    H439    1.111   .     S
C75    H440    1.108   .     S
C75    H438    1.110   .     S
C76    H219    1.112   .     S
C76    O515    1.418   .     S
C76    H220    1.113   .     S
C76    C77     1.521   .     S
C77    H223    1.110   .     S
C77    H222    1.111   .     S
C77    H221    1.108   .     S
C78    H224    1.105   .     S
C78    C80     1.524   .     S
C78    O516    1.415   .     S
C78    H225    1.116   .     S
C79    C155    1.455   .     S
C79    C718    1.396   .     S
C80    H227    1.108   .     S
C80    H226    1.111   .     S
C80    H228    1.110   .     S
C81    H231    1.105   .     S
C81    H230    1.116   .     S
C81    C82     1.523   .     S
C81    O517    1.414   .     S
C82    H233    1.108   .     S
C82    H232    1.110   .     S
C82    H234    1.111   .     S
C83    H235    1.110   .     S
C83    C84     1.522   .     S
C83    O518    1.417   .     S
C83    H236    1.118   .     S
C84    H237    1.111   .     S
C84    H239    1.111   .     S
C84    H238    1.110   .     S
C85    H242    1.110   .     S
C85    C86     1.522   .     S
C85    O520    1.417   .     S
C85    H241    1.118   .     S
C86    H245    1.111   .     S
C86    H243    1.110   .     S
C86    H244    1.110   .     S
C87    H247    1.116   .     S
C87    C88     1.524   .     S
C87    O521    1.414   .     S
C87    H246    1.105   .     S
C88    H248    1.111   .     S
C88    H249    1.108   .     S
C88    H250    1.110   .     S
C89    O522    1.414   .     S
C89    H252    1.116   .     S
C89    C91     1.523   .     S
C89    H253    1.105   .     S
C90    C156    1.455   .     S
C90    C112    1.396   .     A
C90    C729    1.396   1_455 S
C91    H255    1.108   .     S
C91    H256    1.111   .     S
C91    H254    1.110   .     S
C92    H257    1.110   .     S
C92    O523    1.417   .     S
C92    H258    1.118   .     S
C92    C93     1.522   .     S
C93    H259    1.111   .     S
C93    H261    1.111   .     S
C93    H260    1.110   .     S
C94    H264    1.110   .     S
C94    H263    1.118   .     S
C94    O524    1.417   .     S
C94    C95     1.522   .     S
C95    H265    1.110   .     S
C95    H267    1.111   .     S
C95    H266    1.110   .     S
C96    H268    1.113   .     S
C96    H269    1.110   .     S
C96    O525    1.415   .     S
C96    C97     1.521   .     S
C97    H270    1.111   .     S
C97    H272    1.111   .     S
C97    H271    1.111   .     S
C98    C99     1.521   .     S
C98    H274    1.110   .     S
C98    H275    1.113   .     S
C98    O526    1.415   .     S
C99    H278    1.111   .     S
C99    H276    1.111   .     S
C99    H277    1.111   .     S
C100   H279    1.113   .     S
C100   O527    1.418   .     S
C100   H280    1.112   .     S
C100   C102    1.521   .     S
C101   C140    1.393   .     A
C101   C153    1.451   .     S
C101   C1296   1.393   1_545 S
C102   H283    1.108   .     S
C102   H281    1.110   .     S
C102   H282    1.111   .     S
C103   H285    1.112   .     S
C103   C104    1.521   .     S
C103   O528    1.418   .     S
C103   H286    1.113   .     S
C104   H288    1.111   .     S
C104   H289    1.110   .     S
C104   H287    1.108   .     S
C105   H291    1.110   .     S
C105   O529    1.415   .     S
C105   C106    1.521   .     S
C105   H290    1.113   .     S
C106   H292    1.111   .     S
C106   H293    1.111   .     S
C106   H294    1.111   .     S
C107   H296    1.110   .     S
C107   O531    1.415   .     S
C107   C108    1.521   .     S
C107   H297    1.113   .     S
C108   H299    1.111   .     S
C108   H298    1.111   .     S
C108   H300    1.111   .     S
C109   H302    1.112   .     S
C109   H301    1.113   .     S
C109   C110    1.521   .     S
C109   O532    1.418   .     S
C110   H303    1.111   .     S
C110   H304    1.108   .     S
C110   H305    1.110   .     S
C111   C114    1.521   .     S
C111   H307    1.112   .     S
C111   O533    1.418   .     S
C111   H308    1.113   .     S
C112   H328    1.083   .     S
C113   C151    1.393   .     A
C113   C1266   1.451   .     S
C113   C1307   1.393   .     S
C114   H309    1.108   .     S
C114   H310    1.111   .     S
C114   H311    1.110   .     S
C115   O534    1.414   .     S
C115   C116    1.524   .     S
C115   H312    1.105   .     S
C115   H313    1.116   .     S
C116   H314    1.111   .     S
C116   H316    1.110   .     S
C116   H315    1.108   .     S
C117   C118    1.524   .     S
C117   H318    1.116   .     S
C117   H319    1.106   .     S
C117   O535    1.414   .     S
C118   H320    1.110   .     S
C118   H322    1.111   .     S
C118   H321    1.108   .     S
C119   H323    1.110   .     S
C119   O536    1.417   .     S
C119   C120    1.522   .     S
C119   H324    1.118   .     S
C120   H325    1.111   .     S
C120   H327    1.111   .     S
C120   H326    1.110   .     S
C121   H331    1.110   .     S
C121   H330    1.118   .     S
C121   C122    1.522   .     S
C121   O537    1.417   .     S
C122   H332    1.111   .     S
C122   H333    1.110   .     S
C122   H334    1.111   .     S
C123   H335    1.105   .     S
C123   C125    1.523   .     S
C123   O538    1.415   .     S
C123   H336    1.116   .     S
C124   C1271   1.455   .     S
C124   C1318   1.396   .     S
C125   H339    1.110   .     S
C125   H338    1.108   .     S
C125   H337    1.111   .     S
C126   C127    1.524   .     S
C126   O539    1.414   .     S
C126   H342    1.105   .     S
C126   H341    1.116   .     S
C127   H343    1.110   .     S
C127   H345    1.111   .     S
C127   H344    1.108   .     S
C128   H347    1.118   .     S
C128   C129    1.522   .     S
C128   O540    1.417   .     S
C128   H346    1.110   .     S
C129   H349    1.110   .     S
C129   H348    1.111   .     S
C129   H350    1.110   .     S
C130   H352    1.118   .     S
C130   C131    1.522   .     S
C130   H353    1.110   .     S
C130   O443    1.417   .     S
C131   H354    1.110   .     S
C131   H355    1.110   .     S
C131   H356    1.111   .     S
C132   C160    1.455   .     S
C132   C1114   1.396   1_545 S
C133   C713    1.451   .     S
C133   C613    1.393   .     S
C134   C158    1.451   .     S
C134   C624    1.393   1_455 S
C135   O490    1.386   .     S
C135   C214    1.413   .     A
C135   C141    1.402   .     A
C136   C215    1.413   .     A
C136   C139    1.402   .     A
C136   O491    1.386   .     S
C137   O492    1.385   .     S
C137   C216    1.413   .     A
C137   C143    1.403   .     A
C138   O493    1.385   .     S
C138   C142    1.403   .     A
C139   O494    1.386   .     S
C140   H364    1.082   .     S
C141   O495    1.386   .     S
C142   O496    1.384   .     S
C143   O498    1.384   .     S
C144   O499    1.386   .     S
C144   C149    1.402   1_556 S
C145   O500    1.386   .     S
C145   C148    1.402   1_554 S
C146   O501    1.385   .     S
C146   C152    1.403   1_556 S
C147   O502    1.384   .     S
C147   C150    1.403   1_554 S
C148   O503    1.386   .     S
C148   C145    1.402   1_556 S
C149   O504    1.386   .     S
C149   C144    1.402   1_554 S
C150   O505    1.385   .     S
C150   C147    1.403   1_556 S
C151   H375    1.082   .     S
C152   O506    1.384   .     S
C152   C146    1.403   1_554 S
C153   O530    1.278   .     A
C153   O1598   1.278   1_545 S
C154   C1225   1.451   1_545 S
C154   O1554   1.278   1_545 A
C154   O497    1.278   .     S
C155   O444    1.281   .     A
C155   O1064   1.281   .     S
C156   O445    1.281   .     A
C156   O1075   1.281   1_455 S
C157   C689    1.451   1_455 S
C157   O446    1.278   .     S
C157   O450    1.278   .     S
C158   O447    1.278   .     S
C158   O451    1.278   .     S
C159   C1236   1.455   1_545 S
C159   O448    1.281   .     S
C159   O452    1.281   .     S
C160   O449    1.281   .     A
C160   O454    1.281   .     A
C161   O455    1.282   .     A
C161   O483    1.281   .     A
C162   H386    1.081   .     S
C162   C214    1.395   .     A
C162   C635    1.396   1_455 S
C163   O484    1.281   .     A
C163   O456    1.282   .     A
C164   O457    1.280   .     A
C164   O481    1.280   .     A
C165   O482    1.280   .     A
C165   O458    1.280   .     A
C166   O488    1.281   .     A
C166   O459    1.282   .     A
C167   O460    1.282   .     A
C167   O489    1.281   .     A
C168   O485    1.280   .     A
C168   O461    1.280   .     A
C169   O462    1.280   .     A
C169   O487    1.280   .     A
C170   O463    1.280   .     A
C170   O474    1.280   .     A
C171   O465    1.280   .     A
C171   O476    1.280   .     A
C172   O466    1.281   .     A
C172   O472    1.282   .     A
C173   H397    1.081   .     S
C173   C215    1.395   .     A
C173   C646    1.396   .     S
C174   O473    1.282   .     A
C174   O467    1.281   .     A
C175   O468    1.280   .     A
C175   O479    1.280   .     A
C176   O480    1.280   .     A
C176   O469    1.280   .     A
C177   O477    1.282   .     A
C177   O470    1.281   .     A
C178   O478    1.282   .     A
C178   O471    1.281   .     A
C179   O507    1.387   .     S
C179   C196    1.396   .     A
C180   O509    1.387   .     S
C180   C194    1.396   .     A
C181   C193    1.399   .     A
C181   O510    1.384   .     S
C182   C192    1.399   .     A
C182   O511    1.384   .     S
C183   C191    1.396   .     A
C183   O512    1.387   .     S
C184   H408    1.081   .     S
C184   C216    1.399   .     A
C184   C1213   1.393   .     S
C185   C190    1.396   .     A
C185   O513    1.387   .     S
C186   O514    1.384   .     S
C186   C189    1.399   .     A
C187   C188    1.399   .     A
C187   O515    1.384   .     S
C188   O516    1.392   .     S
C189   O517    1.392   .     S
C190   O518    1.386   .     S
C191   O520    1.386   .     S
C192   O521    1.392   .     S
C193   O522    1.392   .     S
C194   O523    1.386   .     S
C195   H419    1.081   .     S
C195   C1225   1.393   1_545 S
C196   O524    1.386   .     S
C197   O525    1.387   .     S
C197   C213    1.396   .     A
C198   C212    1.396   .     A
C198   O526    1.387   .     S
C199   O527    1.384   .     S
C199   C211    1.399   .     A
C200   O528    1.384   .     S
C200   C210    1.399   .     A
C201   C209    1.396   .     A
C201   O529    1.387   .     S
C202   O531    1.387   .     S
C202   C208    1.396   .     A
C203   O532    1.384   .     S
C203   C207    1.399   .     A
C204   O533    1.384   .     S
C204   C205    1.399   .     A
C205   O534    1.392   .     S
C206   H430    1.083   .     S
C206   C1236   1.396   1_545 S
C207   O535    1.392   .     S
C208   O536    1.386   .     S
C209   O537    1.386   .     S
C210   O538    1.392   .     S
C211   O539    1.392   .     S
C212   O540    1.386   .     S
C213   O443    1.386   .     S
C214   C590    1.416   1_455 S
C215   C592    1.416   .     S
C216   C1149   1.417   .     S
O441   Zn552   1.949   .     S
O441   Zn544   1.946   .     S
O441   Zn541   1.949   .     S
O441   Zn1660  1.946   1_545 S
O442   Zn543   1.943   .     S
O442   C1266   1.278   .     A
O444   Zn546   1.943   .     S
O445   Zn545   1.943   .     S
O446   Zn555   1.943   .     S
O447   Zn554   1.943   .     S
O448   Zn549   1.943   .     S
O449   Zn541   1.943   .     S
O450   Zn551   1.943   .     S
O451   Zn550   1.943   .     S
O452   Zn553   1.943   .     S
O453   Zn553   1.949   .     S
O453   Zn549   1.949   .     S
O453   Zn547   1.946   .     S
O453   Zn1655  1.946   1_545 S
O454   Zn552   1.943   .     S
O455   Zn544   1.950   .     S
O456   Zn543   1.950   .     S
O457   Zn546   1.927   .     S
O458   Zn545   1.927   .     S
O459   Zn548   1.950   .     S
O460   Zn547   1.950   .     S
O461   Zn542   1.927   .     S
O462   Zn556   1.927   .     S
O463   Zn543   1.929   .     S
O464   Zn554   1.946   .     S
O464   Zn1102  1.949   1_455 S
O464   Zn542   1.949   .     S
O464   Zn550   1.946   .     S
O465   Zn544   1.929   .     S
O466   Zn556   1.948   .     S
O467   Zn542   1.948   .     S
O468   Zn547   1.929   .     S
O469   Zn548   1.929   .     S
O470   Zn545   1.948   .     S
O471   Zn546   1.948   .     S
O472   Zn1107  1.950   .     S
O473   Zn550   1.950   .     S
O474   Zn1665  1.927   .     S
O475   Zn1112  1.949   1_455 S
O475   Zn551   1.946   .     S
O475   Zn545   1.949   .     S
O475   Zn555   1.946   .     S
O476   Zn552   1.927   .     S
O477   Zn555   1.950   .     S
O478   Zn1110  1.950   .     S
O479   Zn549   1.927   .     S
O480   Zn1653  1.927   .     S
O481   Zn1106  1.929   .     S
O482   Zn551   1.929   .     S
O483   Zn541   1.948   .     S
O484   Zn1661  1.948   .     S
O485   Zn554   1.929   .     S
O486   Zn548   1.943   .     S
O486   C1265   1.278   .     S
O487   Zn1111  1.929   .     S
O488   Zn1664  1.948   .     S
O489   Zn553   1.948   .     S
O497   Zn547   1.943   .     S
O508   Zn542   1.943   .     S
O508   C711    1.281   1_455 S
O519   Zn556   1.943   .     S
O519   C712    1.281   .     S
O530   Zn544   1.943   .     S
Zn541  O1592   1.927   1_545 S
Zn543  O1565   1.946   .     S
Zn546  O1020   1.949   .     S
Zn548  O1553   1.946   .     S
Zn549  O1596   1.948   1_545 S
Zn550  O1037   1.929   1_455 S
Zn551  O1028   1.950   1_455 S
Zn552  O1600   1.948   1_545 S
Zn553  O1586   1.927   1_545 S
Zn554  O1034   1.950   1_455 S
Zn555  O1043   1.929   1_455 S
Zn556  O1031   1.949   .     S
C557   C635    1.396   .     A
C557   H773    1.083   .     S
C557   C560    1.395   .     A
C558   C570    1.395   .     A
C558   H774    1.081   .     S
C558   C1800   1.396   .     S
C559   C751    1.399   .     A
C559   C694    1.412   .     A
C559   C1706   1.417   1_545 S
C560   C695    1.412   .     A
C560   C590    1.416   .     A
C561   C592    1.416   .     A
C561   C668    1.395   .     A
C561   C697    1.412   .     A
C562   C698    1.412   .     A
C562   C696    1.399   .     A
C562   C593    1.416   .     A
C563   C699    1.412   .     A
C563   C707    1.399   .     A
C563   C594    1.416   .     A
C564   C591    1.395   .     A
C564   C595    1.416   .     A
C564   C700    1.412   .     A
C565   C602    1.394   .     A
C565   C701    1.413   .     A
C565   C596    1.416   .     S
C566   C702    1.413   .     A
C566   C613    1.399   .     A
C567   C624    1.399   .     A
C567   C598    1.416   .     A
C567   C703    1.412   .     A
C568   C762    1.395   .     A
C568   C704    1.411   .     A
C568   C1707   1.416   1_545 S
C569   C689    1.393   .     A
C569   H785    1.080   .     S
C569   C571    1.399   .     A
C570   C705    1.413   .     A
C570   C1708   1.416   .     A
C571   C706    1.413   .     A
C571   C597    1.417   .     A
C572   C708    1.412   .     A
C572   C580    1.399   .     A
C573   C724    1.448   .     S
C573   C752    1.408   .     A
C573   C754    1.410   .     A
C574   C753    1.410   .     A
C574   C750    1.408   .     A
C574   C725    1.448   .     S
C575   C756    1.417   .     A
C575   C717    1.470   .     S
C575   C749    1.413   .     A
C576   C719    1.470   .     S
C576   C755    1.417   .     A
C576   C748    1.413   .     A
C577   C747    1.408   .     A
C577   C720    1.448   .     S
C577   C758    1.411   .     A
C578   C746    1.408   .     A
C578   C757    1.411   .     A
C578   C721    1.448   .     S
C579   C722    1.470   .     S
C579   C760    1.418   .     A
C579   C745    1.413   .     A
C580   H796    1.082   .     S
C580   C690    1.393   .     A
C581   C759    1.418   .     A
C581   C723    1.470   .     S
C581   C744    1.413   .     A
C582   C763    1.413   .     A
C582   C733    1.470   .     S
C582   C743    1.418   .     A
C583   C761    1.413   .     A
C583   C734    1.470   .     S
C583   C742    1.417   .     A
C584   C765    1.408   .     A
C584   C726    1.448   .     S
C584   C741    1.410   .     A
C585   C764    1.408   .     A
C585   C727    1.448   .     S
C585   C739    1.410   .     A
C586   C738    1.418   .     A
C586   C767    1.413   .     A
C586   C728    1.470   .     S
C587   C737    1.417   .     A
C587   C730    1.470   .     S
C587   C766    1.413   .     A
C588   C736    1.411   .     A
C588   C731    1.448   .     S
C588   C769    1.408   .     A
C589   C735    1.410   .     A
C589   C768    1.408   .     A
C589   C732    1.448   .     S
C590   C36     1.400   1_655 S
C590   C214    1.416   1_655 S
C591   C680    1.396   .     A
C591   H807    1.083   .     S
C593   C1706   1.404   1_545 S
C593   C1884   1.417   1_545 S
C594   C1671   1.417   .     S
C594   C1705   1.404   .     S
C595   C1680   1.416   .     S
C595   C1708   1.400   1_556 S
C596   C1682   1.416   1_545 A
C596   C1707   1.400   1_544 S
C597   C10     1.417   1_655 S
C597   C598    1.404   1_556 S
C598   C16     1.416   1_655 S
C598   C597    1.404   1_554 S
C599   H851    1.109   .     S
C599   H873    1.115   .     S
C599   O1046   1.416   .     S
C599   H862    1.109   .     S
C600   H896    1.109   .     S
C600   H885    1.109   .     S
C600   H907    1.116   .     S
C600   O1047   1.416   .     S
C601   H913    1.117   .     S
C601   H915    1.109   .     S
C601   O1048   1.416   .     S
C601   H914    1.109   .     S
C602   C688    1.396   .     A
C602   H818    1.081   .     S
C603   O1049   1.416   .     S
C603   H918    1.109   .     S
C603   H917    1.117   .     S
C603   H916    1.109   .     S
C604   O1050   1.412   .     S
C604   H921    1.114   .     S
C604   H922    1.108   .     S
C604   H919    1.109   .     S
C605   H924    1.109   .     S
C605   H925    1.108   .     S
C605   H923    1.114   .     S
C605   O1051   1.412   .     S
C606   O1052   1.411   .     S
C606   H928    1.110   .     S
C606   H927    1.109   .     S
C606   H926    1.113   .     S
C607   H930    1.113   .     S
C607   O1054   1.411   .     S
C607   H932    1.109   .     S
C607   H929    1.109   .     S
C608   H933    1.109   .     S
C608   H935    1.108   .     S
C608   H934    1.114   .     S
C608   O1055   1.412   .     S
C609   H938    1.115   .     S
C609   O1056   1.416   .     S
C609   H937    1.109   .     S
C609   H936    1.109   .     S
C610   H939    1.117   .     S
C610   O1057   1.416   .     S
C610   H941    1.109   .     S
C610   H940    1.109   .     S
C611   O1058   1.411   .     S
C611   H943    1.109   .     S
C611   H945    1.110   .     S
C611   H944    1.113   .     S
C612   O1059   1.412   .     S
C612   H947    1.114   .     S
C612   H946    1.109   .     S
C612   H948    1.108   .     S
C613   H829    1.081   .     S
C614   H951    1.115   .     S
C614   H949    1.109   .     S
C614   H950    1.109   .     S
C614   O1060   1.416   .     S
C615   H954    1.109   .     S
C615   H952    1.117   .     S
C615   H955    1.109   .     S
C615   O1061   1.416   .     S
C616   H957    1.113   .     S
C616   H956    1.109   .     S
C616   O1062   1.411   .     S
C616   H958    1.110   .     S
C617   O1063   1.415   .     S
C617   H959    1.113   .     S
C617   C618    1.521   .     S
C617   H960    1.110   .     S
C618   H963    1.111   .     S
C618   H961    1.111   .     S
C618   H962    1.111   .     S
C619   H966    1.113   .     S
C619   C620    1.521   .     S
C619   O1065   1.415   .     S
C619   H965    1.110   .     S
C620   H969    1.111   .     S
C620   H967    1.110   .     S
C620   H968    1.111   .     S
C621   H971    1.112   .     S
C621   O1066   1.418   .     S
C621   H970    1.113   .     S
C621   C622    1.521   .     S
C622   H974    1.108   .     S
C622   H972    1.110   .     S
C622   H973    1.111   .     S
C623   O1067   1.418   .     S
C623   H977    1.113   .     S
C623   H976    1.112   .     S
C623   C625    1.521   .     S
C624   H840    1.082   .     S
C624   C134    1.393   1_655 S
C625   H979    1.111   .     S
C625   H978    1.108   .     S
C625   H980    1.110   .     S
C626   O1068   1.415   .     S
C626   C627    1.521   .     S
C626   H981    1.113   .     S
C626   H982    1.110   .     S
C627   H983    1.111   .     S
C627   H985    1.111   .     S
C627   H984    1.111   .     S
C628   C629    1.521   .     S
C628   H988    1.113   .     S
C628   H987    1.110   .     S
C628   O1069   1.415   .     S
C629   H990    1.111   .     S
C629   H989    1.111   .     S
C629   H991    1.111   .     S
C630   H992    1.113   .     S
C630   H993    1.112   .     S
C630   C631    1.521   .     S
C630   O1070   1.418   .     S
C631   H995    1.111   .     S
C631   H996    1.108   .     S
C631   H994    1.110   .     S
C632   H775    1.112   .     S
C632   O1071   1.418   .     S
C632   H776    1.113   .     S
C632   C633    1.521   .     S
C633   H779    1.110   .     S
C633   H778    1.111   .     S
C633   H777    1.108   .     S
C634   H780    1.105   .     S
C634   C636    1.524   .     S
C634   O1072   1.415   .     S
C634   H781    1.116   .     S
C635   C711    1.455   .     S
C635   C162    1.396   1_655 S
C636   H783    1.108   .     S
C636   H782    1.111   .     S
C636   H784    1.110   .     S
C637   H787    1.105   .     S
C637   H786    1.116   .     S
C637   C638    1.523   .     S
C637   O1073   1.414   .     S
C638   H789    1.108   .     S
C638   H788    1.110   .     S
C638   H790    1.111   .     S
C639   H791    1.110   .     S
C639   C640    1.522   .     S
C639   O1074   1.417   .     S
C639   H792    1.118   .     S
C640   H793    1.111   .     S
C640   H795    1.111   .     S
C640   H794    1.110   .     S
C641   H798    1.110   .     S
C641   C642    1.522   .     S
C641   O1076   1.417   .     S
C641   H797    1.118   .     S
C642   H801    1.111   .     S
C642   H799    1.110   .     S
C642   H800    1.110   .     S
C643   H803    1.116   .     S
C643   C644    1.524   .     S
C643   O1077   1.414   .     S
C643   H802    1.105   .     S
C644   H804    1.111   .     S
C644   H805    1.108   .     S
C644   H806    1.110   .     S
C645   O1078   1.414   .     S
C645   H808    1.116   .     S
C645   C647    1.523   .     S
C645   H809    1.105   .     S
C646   C712    1.455   .     S
C646   C668    1.396   .     A
C647   H811    1.108   .     S
C647   H812    1.111   .     S
C647   H810    1.110   .     S
C648   H813    1.110   .     S
C648   O1079   1.417   .     S
C648   H814    1.118   .     S
C648   C649    1.522   .     S
C649   H815    1.111   .     S
C649   H817    1.111   .     S
C649   H816    1.110   .     S
C650   H820    1.110   .     S
C650   H819    1.118   .     S
C650   O1080   1.417   .     S
C650   C651    1.522   .     S
C651   H821    1.110   .     S
C651   H823    1.111   .     S
C651   H822    1.110   .     S
C652   H824    1.113   .     S
C652   H825    1.110   .     S
C652   O1081   1.415   .     S
C652   C653    1.521   .     S
C653   H826    1.111   .     S
C653   H828    1.111   .     S
C653   H827    1.111   .     S
C654   C655    1.521   .     S
C654   H830    1.110   .     S
C654   H831    1.113   .     S
C654   O1082   1.415   .     S
C655   H834    1.111   .     S
C655   H832    1.111   .     S
C655   H833    1.111   .     S
C656   H835    1.113   .     S
C656   O1083   1.418   .     S
C656   H836    1.112   .     S
C656   C658    1.521   .     S
C657   C696    1.393   .     A
C657   C709    1.451   .     S
C657   C1852   1.393   1_545 S
C658   H839    1.108   .     S
C658   H837    1.110   .     S
C658   H838    1.111   .     S
C659   H841    1.112   .     S
C659   C660    1.521   .     S
C659   O1084   1.418   .     S
C659   H842    1.113   .     S
C660   H844    1.111   .     S
C660   H845    1.110   .     S
C660   H843    1.108   .     S
C661   H847    1.110   .     S
C661   O1085   1.415   .     S
C661   C662    1.521   .     S
C661   H846    1.113   .     S
C662   H848    1.111   .     S
C662   H849    1.111   .     S
C662   H850    1.111   .     S
C663   H852    1.110   .     S
C663   O1087   1.415   .     S
C663   C664    1.521   .     S
C663   H853    1.113   .     S
C664   H855    1.111   .     S
C664   H854    1.111   .     S
C664   H856    1.111   .     S
C665   H858    1.112   .     S
C665   H857    1.113   .     S
C665   C666    1.521   .     S
C665   O1088   1.418   .     S
C666   H859    1.111   .     S
C666   H860    1.108   .     S
C666   H861    1.110   .     S
C667   C670    1.521   .     S
C667   H863    1.112   .     S
C667   O1089   1.418   .     S
C667   H864    1.113   .     S
C668   H884    1.083   .     S
C669   C707    1.393   .     A
C669   C1822   1.451   .     S
C669   C1863   1.393   .     S
C670   H865    1.108   .     S
C670   H866    1.111   .     S
C670   H867    1.110   .     S
C671   O1090   1.414   .     S
C671   C672    1.524   .     S
C671   H868    1.105   .     S
C671   H869    1.116   .     S
C672   H870    1.111   .     S
C672   H872    1.110   .     S
C672   H871    1.108   .     S
C673   C674    1.524   .     S
C673   H874    1.116   .     S
C673   H875    1.106   .     S
C673   O1091   1.414   .     S
C674   H876    1.110   .     S
C674   H878    1.111   .     S
C674   H877    1.108   .     S
C675   H879    1.110   .     S
C675   O1092   1.417   .     S
C675   C676    1.522   .     S
C675   H880    1.118   .     S
C676   H881    1.111   .     S
C676   H883    1.111   .     S
C676   H882    1.110   .     S
C677   H887    1.110   .     S
C677   H886    1.118   .     S
C677   C678    1.522   .     S
C677   O1093   1.417   .     S
C678   H888    1.111   .     S
C678   H889    1.110   .     S
C678   H890    1.111   .     S
C679   H891    1.105   .     S
C679   C681    1.523   .     S
C679   O1094   1.415   .     S
C679   H892    1.116   .     S
C680   C1827   1.455   .     S
C680   C1874   1.396   .     S
C681   H895    1.110   .     S
C681   H894    1.108   .     S
C681   H893    1.111   .     S
C682   C683    1.524   .     S
C682   O1095   1.414   .     S
C682   H898    1.105   .     S
C682   H897    1.116   .     S
C683   H899    1.110   .     S
C683   H901    1.111   .     S
C683   H900    1.108   .     S
C684   H903    1.118   .     S
C684   C685    1.522   .     S
C684   O1096   1.417   .     S
C684   H902    1.110   .     S
C685   H905    1.110   .     S
C685   H904    1.111   .     S
C685   H906    1.110   .     S
C686   H908    1.118   .     S
C686   C687    1.522   .     S
C686   H909    1.110   .     S
C686   O999    1.417   .     S
C687   H910    1.110   .     S
C687   H911    1.110   .     S
C687   H912    1.111   .     S
C688   C716    1.455   .     S
C688   C1670   1.396   1_545 S
C689   C157    1.451   1_655 S
C689   C57     1.393   1_655 S
C690   C714    1.451   .     S
C691   O1046   1.386   .     S
C691   C770    1.413   .     A
C691   C697    1.402   .     A
C692   C771    1.413   .     A
C692   C695    1.402   .     A
C692   O1047   1.386   .     S
C693   O1048   1.385   .     S
C693   C772    1.413   .     A
C693   C699    1.403   .     A
C694   O1049   1.385   .     S
C694   C698    1.403   .     A
C695   O1050   1.386   .     S
C696   H920    1.082   .     S
C697   O1051   1.386   .     S
C698   O1052   1.384   .     S
C699   O1054   1.384   .     S
C700   O1055   1.386   .     S
C700   C705    1.402   1_556 S
C701   O1056   1.386   .     S
C701   C704    1.402   1_554 S
C702   O1057   1.385   .     S
C702   C708    1.403   1_556 S
C703   O1058   1.384   .     S
C703   C706    1.403   1_554 S
C704   O1059   1.386   .     S
C704   C701    1.402   1_556 S
C705   O1060   1.386   .     S
C705   C700    1.402   1_554 S
C706   O1061   1.385   .     S
C706   C703    1.403   1_556 S
C707   H931    1.082   .     S
C708   O1062   1.384   .     S
C708   C702    1.403   1_554 S
C709   O1086   1.278   .     A
C709   O2154   1.278   1_545 S
C710   C1781   1.451   1_545 S
C710   O2110   1.278   1_545 A
C710   O1053   1.278   .     S
C711   O1000   1.281   .     A
C711   O508    1.281   1_655 S
C712   O1001   1.281   .     A
C713   O1002   1.278   .     S
C713   O1006   1.278   .     S
C714   O1003   1.278   .     S
C714   O1007   1.278   .     S
C715   C1792   1.455   1_545 S
C715   O1004   1.281   .     S
C715   O1008   1.281   .     S
C716   O1005   1.281   .     A
C716   O1010   1.281   .     A
C717   O1011   1.282   .     A
C717   O1039   1.281   .     A
C718   H942    1.081   .     S
C718   C770    1.395   .     A
C719   O1040   1.281   .     A
C719   O1012   1.282   .     A
C720   O1013   1.280   .     A
C720   O1037   1.280   .     A
C721   O1038   1.280   .     A
C721   O1014   1.280   .     A
C722   O1044   1.281   .     A
C722   O1015   1.282   .     A
C723   O1016   1.282   .     A
C723   O1045   1.281   .     A
C724   O1041   1.280   .     A
C724   O1017   1.280   .     A
C725   O1018   1.280   .     A
C725   O1043   1.280   .     A
C726   O1019   1.280   .     A
C726   O1030   1.280   .     A
C727   O1021   1.280   .     A
C727   O1032   1.280   .     A
C728   O1022   1.281   .     A
C728   O1028   1.282   .     A
C729   H953    1.081   .     S
C729   C771    1.395   .     A
C729   C90     1.396   1_655 S
C730   O1029   1.282   .     A
C730   O1023   1.281   .     A
C731   O1024   1.280   .     A
C731   O1035   1.280   .     A
C732   O1036   1.280   .     A
C732   O1025   1.280   .     A
C733   O1033   1.282   .     A
C733   O1026   1.281   .     A
C734   O1034   1.282   .     A
C734   O1027   1.281   .     A
C735   O1063   1.387   .     S
C735   C752    1.396   .     A
C736   O1065   1.387   .     S
C736   C750    1.396   .     A
C737   C749    1.399   .     A
C737   O1066   1.384   .     S
C738   C748    1.399   .     A
C738   O1067   1.384   .     S
C739   C747    1.396   .     A
C739   O1068   1.387   .     S
C740   H964    1.081   .     S
C740   C772    1.399   .     A
C740   C1769   1.393   .     S
C741   C746    1.396   .     A
C741   O1069   1.387   .     S
C742   O1070   1.384   .     S
C742   C745    1.399   .     A
C743   C744    1.399   .     A
C743   O1071   1.384   .     S
C744   O1072   1.392   .     S
C745   O1073   1.392   .     S
C746   O1074   1.386   .     S
C747   O1076   1.386   .     S
C748   O1077   1.392   .     S
C749   O1078   1.392   .     S
C750   O1079   1.386   .     S
C751   H975    1.081   .     S
C751   C1781   1.393   1_545 S
C752   O1080   1.386   .     S
C753   O1081   1.387   .     S
C753   C769    1.396   .     A
C754   C768    1.396   .     A
C754   O1082   1.387   .     S
C755   O1083   1.384   .     S
C755   C767    1.399   .     A
C756   O1084   1.384   .     S
C756   C766    1.399   .     A
C757   C765    1.396   .     A
C757   O1085   1.387   .     S
C758   O1087   1.387   .     S
C758   C764    1.396   .     A
C759   O1088   1.384   .     S
C759   C763    1.399   .     A
C760   O1089   1.384   .     S
C760   C761    1.399   .     A
C761   O1090   1.392   .     S
C762   H986    1.083   .     S
C762   C1792   1.396   1_545 S
C763   O1091   1.392   .     S
C764   O1092   1.386   .     S
C765   O1093   1.386   .     S
C766   O1094   1.392   .     S
C767   O1095   1.392   .     S
C768   O1096   1.386   .     S
C769   O999    1.386   .     S
C771   C36     1.416   1_655 S
C772   C1705   1.417   .     S
O997   Zn1108  1.949   .     S
O997   Zn1100  1.946   .     S
O997   Zn1097  1.949   .     S
O997   Zn2216  1.946   1_545 S
O998   Zn1099  1.943   .     S
O998   C1822   1.278   .     A
O1000  Zn1102  1.943   .     S
O1001  Zn1101  1.943   .     S
O1002  Zn1111  1.943   .     S
O1003  Zn1110  1.943   .     S
O1004  Zn1105  1.943   .     S
O1005  Zn1097  1.943   .     S
O1006  Zn1107  1.943   .     S
O1007  Zn1106  1.943   .     S
O1008  Zn1109  1.943   .     S
O1009  Zn1109  1.949   .     S
O1009  Zn1105  1.949   .     S
O1009  Zn1103  1.946   .     S
O1009  Zn2211  1.946   1_545 S
O1010  Zn1108  1.943   .     S
O1011  Zn1100  1.950   .     S
O1012  Zn1099  1.950   .     S
O1013  Zn1102  1.927   .     S
O1014  Zn1101  1.927   .     S
O1015  Zn1104  1.950   .     S
O1016  Zn1103  1.950   .     S
O1017  Zn1098  1.927   .     S
O1018  Zn1112  1.927   .     S
O1019  Zn1099  1.929   .     S
O1020  Zn1110  1.946   .     S
O1020  Zn1098  1.949   .     S
O1020  Zn1106  1.946   .     S
O1021  Zn1100  1.929   .     S
O1022  Zn1112  1.948   .     S
O1023  Zn1098  1.948   .     S
O1024  Zn1103  1.929   .     S
O1025  Zn1104  1.929   .     S
O1026  Zn1101  1.948   .     S
O1027  Zn1102  1.948   .     S
O1028  Zn551   1.950   1_655 S
O1029  Zn1106  1.950   .     S
O1030  Zn2221  1.927   .     S
O1031  Zn1107  1.946   .     S
O1031  Zn1101  1.949   .     S
O1031  Zn1111  1.946   .     S
O1032  Zn1108  1.927   .     S
O1033  Zn1111  1.950   .     S
O1034  Zn554   1.950   1_655 S
O1035  Zn1105  1.927   .     S
O1036  Zn2209  1.927   .     S
O1037  Zn550   1.929   1_655 S
O1038  Zn1107  1.929   .     S
O1039  Zn1097  1.948   .     S
O1040  Zn2217  1.948   .     S
O1041  Zn1110  1.929   .     S
O1042  Zn1104  1.943   .     S
O1042  C1821   1.278   .     S
O1043  Zn555   1.929   1_655 S
O1044  Zn2220  1.948   .     S
O1045  Zn1109  1.948   .     S
O1053  Zn1103  1.943   .     S
O1064  Zn1098  1.943   .     S
O1075  Zn1112  1.943   .     S
O1075  C156    1.281   1_655 S
O1086  Zn1100  1.943   .     S
Zn1097 O2148   1.927   1_545 S
Zn1099 O2121   1.946   .     S
Zn1102 O464    1.949   1_655 S
Zn1104 O2109   1.946   .     S
Zn1105 O2152   1.948   1_545 S
Zn1108 O2156   1.948   1_545 S
Zn1109 O2142   1.927   1_545 S
Zn1112 O475    1.949   1_655 S
C1113  C1191   1.396   .     A
C1113  H1329   1.083   .     S
C1113  C1116   1.395   .     A
C1114  C1126   1.395   .     A
C1114  H1330   1.081   .     S
C1114  C132    1.396   1_565 S
C1115  C1307   1.399   .     A
C1115  C1250   1.412   .     A
C1116  C1251   1.412   .     A
C1116  C1146   1.416   .     A
C1117  C1148   1.416   .     A
C1117  C1224   1.395   .     A
C1117  C1253   1.412   .     A
C1118  C1254   1.412   .     A
C1118  C1252   1.399   .     A
C1118  C1149   1.416   .     A
C1119  C1255   1.412   .     A
C1119  C1263   1.399   .     A
C1119  C1150   1.416   .     A
C1120  C1147   1.395   .     A
C1120  C1151   1.416   .     A
C1120  C1256   1.412   .     A
C1121  C1158   1.394   .     A
C1121  C1257   1.413   .     A
C1121  C1152   1.416   .     S
C1122  C1258   1.413   .     A
C1122  C1169   1.399   .     A
C1122  C1709   1.417   1_455 S
C1123  C1180   1.399   .     A
C1123  C1154   1.416   .     A
C1123  C1259   1.412   .     A
C1124  C1318   1.395   .     A
C1124  C1260   1.411   .     A
C1125  C1245   1.393   .     A
C1125  H1341   1.080   .     S
C1125  C1127   1.399   .     A
C1126  C1261   1.413   .     A
C1126  C40     1.416   1_565 A
C1127  C1262   1.413   .     A
C1127  C1153   1.417   .     A
C1128  C1264   1.412   .     A
C1128  C1136   1.399   .     A
C1128  C1710   1.416   1_455 S
C1129  C1280   1.448   .     S
C1129  C1308   1.408   .     A
C1129  C1310   1.410   .     A
C1130  C1309   1.410   .     A
C1130  C1306   1.408   .     A
C1130  C1281   1.448   .     S
C1131  C1312   1.417   .     A
C1131  C1273   1.470   .     S
C1131  C1305   1.413   .     A
C1132  C1275   1.470   .     S
C1132  C1311   1.417   .     A
C1132  C1304   1.413   .     A
C1133  C1303   1.408   .     A
C1133  C1276   1.448   .     S
C1133  C1314   1.411   .     A
C1134  C1302   1.408   .     A
C1134  C1313   1.411   .     A
C1134  C1277   1.448   .     S
C1135  C1278   1.470   .     S
C1135  C1316   1.418   .     A
C1135  C1301   1.413   .     A
C1136  H1352   1.082   .     S
C1136  C1246   1.393   .     A
C1137  C1315   1.418   .     A
C1137  C1279   1.470   .     S
C1137  C1300   1.413   .     A
C1138  C1319   1.413   .     A
C1138  C1289   1.470   .     S
C1138  C1299   1.418   .     A
C1139  C1317   1.413   .     A
C1139  C1290   1.470   .     S
C1139  C1298   1.417   .     A
C1140  C1321   1.408   .     A
C1140  C1282   1.448   .     S
C1140  C1297   1.410   .     A
C1141  C1320   1.408   .     A
C1141  C1283   1.448   .     S
C1141  C1295   1.410   .     A
C1142  C1294   1.418   .     A
C1142  C1323   1.413   .     A
C1142  C1284   1.470   .     S
C1143  C1293   1.417   .     A
C1143  C1286   1.470   .     S
C1143  C1322   1.413   .     A
C1144  C1292   1.411   .     A
C1144  C1287   1.448   .     S
C1144  C1325   1.408   .     A
C1145  C1291   1.410   .     A
C1145  C1324   1.408   .     A
C1145  C1288   1.448   .     S
C1146  C1704   1.400   .     S
C1146  C1882   1.416   .     S
C1147  C1236   1.396   .     A
C1147  H1363   1.083   .     S
C1148  C1702   1.400   1_455 S
C1148  C1883   1.416   1_455 S
C1150  C3      1.417   1_565 S
C1150  C37     1.404   1_565 S
C1151  C12     1.416   1_565 S
C1151  C40     1.400   1_566 S
C1152  C39     1.400   1_554 S
C1153  C1678   1.417   .     S
C1153  C1154   1.404   1_556 S
C1154  C1684   1.416   .     S
C1154  C1153   1.404   1_554 S
C1155  H1407   1.109   .     S
C1155  H1429   1.115   .     S
C1155  O1602   1.416   .     S
C1155  H1418   1.109   .     S
C1156  H1452   1.109   .     S
C1156  H1441   1.109   .     S
C1156  H1463   1.116   .     S
C1156  O1603   1.416   .     S
C1157  H1469   1.117   .     S
C1157  H1471   1.109   .     S
C1157  O1604   1.416   .     S
C1157  H1470   1.109   .     S
C1158  C1244   1.396   .     A
C1158  H1374   1.081   .     S
C1159  O1605   1.416   .     S
C1159  H1474   1.109   .     S
C1159  H1473   1.117   .     S
C1159  H1472   1.109   .     S
C1160  O1606   1.412   .     S
C1160  H1477   1.114   .     S
C1160  H1478   1.108   .     S
C1160  H1475   1.109   .     S
C1161  H1480   1.109   .     S
C1161  H1481   1.108   .     S
C1161  H1479   1.114   .     S
C1161  O1607   1.412   .     S
C1162  O1608   1.411   .     S
C1162  H1484   1.110   .     S
C1162  H1483   1.109   .     S
C1162  H1482   1.113   .     S
C1163  H1486   1.113   .     S
C1163  O1610   1.411   .     S
C1163  H1488   1.109   .     S
C1163  H1485   1.109   .     S
C1164  H1489   1.109   .     S
C1164  H1491   1.108   .     S
C1164  H1490   1.114   .     S
C1164  O1611   1.412   .     S
C1165  H1494   1.115   .     S
C1165  O1612   1.416   .     S
C1165  H1493   1.109   .     S
C1165  H1492   1.109   .     S
C1166  H1495   1.117   .     S
C1166  O1613   1.416   .     S
C1166  H1497   1.109   .     S
C1166  H1496   1.109   .     S
C1167  O1614   1.411   .     S
C1167  H1499   1.109   .     S
C1167  H1501   1.110   .     S
C1167  H1500   1.113   .     S
C1168  O1615   1.412   .     S
C1168  H1503   1.114   .     S
C1168  H1502   1.109   .     S
C1168  H1504   1.108   .     S
C1169  H1385   1.081   .     S
C1169  C1801   1.393   1_455 S
C1170  H1507   1.115   .     S
C1170  H1505   1.109   .     S
C1170  H1506   1.109   .     S
C1170  O1616   1.416   .     S
C1171  H1510   1.109   .     S
C1171  H1508   1.117   .     S
C1171  H1511   1.109   .     S
C1171  O1617   1.416   .     S
C1172  H1513   1.113   .     S
C1172  H1512   1.109   .     S
C1172  O1618   1.411   .     S
C1172  H1514   1.110   .     S
C1173  O1619   1.415   .     S
C1173  H1515   1.113   .     S
C1173  C1174   1.521   .     S
C1173  H1516   1.110   .     S
C1174  H1519   1.111   .     S
C1174  H1517   1.111   .     S
C1174  H1518   1.111   .     S
C1175  H1522   1.113   .     S
C1175  C1176   1.521   .     S
C1175  O1621   1.415   .     S
C1175  H1521   1.110   .     S
C1176  H1525   1.111   .     S
C1176  H1523   1.110   .     S
C1176  H1524   1.111   .     S
C1177  H1527   1.112   .     S
C1177  O1622   1.418   .     S
C1177  H1526   1.113   .     S
C1177  C1178   1.521   .     S
C1178  H1530   1.108   .     S
C1178  H1528   1.110   .     S
C1178  H1529   1.111   .     S
C1179  O1623   1.418   .     S
C1179  H1533   1.113   .     S
C1179  H1532   1.112   .     S
C1179  C1181   1.521   .     S
C1180  H1396   1.082   .     S
C1180  C1802   1.393   .     S
C1181  H1535   1.111   .     S
C1181  H1534   1.108   .     S
C1181  H1536   1.110   .     S
C1182  O1624   1.415   .     S
C1182  C1183   1.521   .     S
C1182  H1537   1.113   .     S
C1182  H1538   1.110   .     S
C1183  H1539   1.111   .     S
C1183  H1541   1.111   .     S
C1183  H1540   1.111   .     S
C1184  C1185   1.521   .     S
C1184  H1544   1.113   .     S
C1184  H1543   1.110   .     S
C1184  O1625   1.415   .     S
C1185  H1546   1.111   .     S
C1185  H1545   1.111   .     S
C1185  H1547   1.111   .     S
C1186  H1548   1.113   .     S
C1186  H1549   1.112   .     S
C1186  C1187   1.521   .     S
C1186  O1626   1.418   .     S
C1187  H1551   1.111   .     S
C1187  H1552   1.108   .     S
C1187  H1550   1.110   .     S
C1188  H1331   1.112   .     S
C1188  O1627   1.418   .     S
C1188  H1332   1.113   .     S
C1188  C1189   1.521   .     S
C1189  H1335   1.110   .     S
C1189  H1334   1.111   .     S
C1189  H1333   1.108   .     S
C1190  H1336   1.105   .     S
C1190  C1192   1.524   .     S
C1190  O1628   1.415   .     S
C1190  H1337   1.116   .     S
C1191  C1267   1.455   .     S
C1191  C1830   1.396   .     S
C1192  H1339   1.108   .     S
C1192  H1338   1.111   .     S
C1192  H1340   1.110   .     S
C1193  H1343   1.105   .     S
C1193  H1342   1.116   .     S
C1193  C1194   1.523   .     S
C1193  O1629   1.414   .     S
C1194  H1345   1.108   .     S
C1194  H1344   1.110   .     S
C1194  H1346   1.111   .     S
C1195  H1347   1.110   .     S
C1195  C1196   1.522   .     S
C1195  O1630   1.417   .     S
C1195  H1348   1.118   .     S
C1196  H1349   1.111   .     S
C1196  H1351   1.111   .     S
C1196  H1350   1.110   .     S
C1197  H1354   1.110   .     S
C1197  C1198   1.522   .     S
C1197  O1632   1.417   .     S
C1197  H1353   1.118   .     S
C1198  H1357   1.111   .     S
C1198  H1355   1.110   .     S
C1198  H1356   1.110   .     S
C1199  H1359   1.116   .     S
C1199  C1200   1.524   .     S
C1199  O1633   1.414   .     S
C1199  H1358   1.105   .     S
C1200  H1360   1.111   .     S
C1200  H1361   1.108   .     S
C1200  H1362   1.110   .     S
C1201  O1634   1.414   .     S
C1201  H1364   1.116   .     S
C1201  C1203   1.523   .     S
C1201  H1365   1.105   .     S
C1202  C1268   1.455   .     S
C1202  C1224   1.396   .     A
C1202  C1841   1.396   1_455 S
C1203  H1367   1.108   .     S
C1203  H1368   1.111   .     S
C1203  H1366   1.110   .     S
C1204  H1369   1.110   .     S
C1204  O1635   1.417   .     S
C1204  H1370   1.118   .     S
C1204  C1205   1.522   .     S
C1205  H1371   1.111   .     S
C1205  H1373   1.111   .     S
C1205  H1372   1.110   .     S
C1206  H1376   1.110   .     S
C1206  H1375   1.118   .     S
C1206  O1636   1.417   .     S
C1206  C1207   1.522   .     S
C1207  H1377   1.110   .     S
C1207  H1379   1.111   .     S
C1207  H1378   1.110   .     S
C1208  H1380   1.113   .     S
C1208  H1381   1.110   .     S
C1208  O1637   1.415   .     S
C1208  C1209   1.521   .     S
C1209  H1382   1.111   .     S
C1209  H1384   1.111   .     S
C1209  H1383   1.111   .     S
C1210  C1211   1.521   .     S
C1210  H1386   1.110   .     S
C1210  H1387   1.113   .     S
C1210  O1638   1.415   .     S
C1211  H1390   1.111   .     S
C1211  H1388   1.111   .     S
C1211  H1389   1.111   .     S
C1212  H1391   1.113   .     S
C1212  O1639   1.418   .     S
C1212  H1392   1.112   .     S
C1212  C1214   1.521   .     S
C1213  C1252   1.393   .     A
C1213  C1265   1.451   .     S
C1214  H1395   1.108   .     S
C1214  H1393   1.110   .     S
C1214  H1394   1.111   .     S
C1215  H1397   1.112   .     S
C1215  C1216   1.521   .     S
C1215  O1640   1.418   .     S
C1215  H1398   1.113   .     S
C1216  H1400   1.111   .     S
C1216  H1401   1.110   .     S
C1216  H1399   1.108   .     S
C1217  H1403   1.110   .     S
C1217  O1641   1.415   .     S
C1217  C1218   1.521   .     S
C1217  H1402   1.113   .     S
C1218  H1404   1.111   .     S
C1218  H1405   1.111   .     S
C1218  H1406   1.111   .     S
C1219  H1408   1.110   .     S
C1219  O1643   1.415   .     S
C1219  C1220   1.521   .     S
C1219  H1409   1.113   .     S
C1220  H1411   1.111   .     S
C1220  H1410   1.111   .     S
C1220  H1412   1.111   .     S
C1221  H1414   1.112   .     S
C1221  H1413   1.113   .     S
C1221  C1222   1.521   .     S
C1221  O1644   1.418   .     S
C1222  H1415   1.111   .     S
C1222  H1416   1.108   .     S
C1222  H1417   1.110   .     S
C1223  C1226   1.521   .     S
C1223  H1419   1.112   .     S
C1223  O1645   1.418   .     S
C1223  H1420   1.113   .     S
C1224  H1440   1.083   .     S
C1225  C1263   1.393   .     A
C1225  C154    1.451   1_565 S
C1225  C195    1.393   1_565 S
C1226  H1421   1.108   .     S
C1226  H1422   1.111   .     S
C1226  H1423   1.110   .     S
C1227  O1646   1.414   .     S
C1227  C1228   1.524   .     S
C1227  H1424   1.105   .     S
C1227  H1425   1.116   .     S
C1228  H1426   1.111   .     S
C1228  H1428   1.110   .     S
C1228  H1427   1.108   .     S
C1229  C1230   1.524   .     S
C1229  H1430   1.116   .     S
C1229  H1431   1.106   .     S
C1229  O1647   1.414   .     S
C1230  H1432   1.110   .     S
C1230  H1434   1.111   .     S
C1230  H1433   1.108   .     S
C1231  H1435   1.110   .     S
C1231  O1648   1.417   .     S
C1231  C1232   1.522   .     S
C1231  H1436   1.118   .     S
C1232  H1437   1.111   .     S
C1232  H1439   1.111   .     S
C1232  H1438   1.110   .     S
C1233  H1443   1.110   .     S
C1233  H1442   1.118   .     S
C1233  C1234   1.522   .     S
C1233  O1649   1.417   .     S
C1234  H1444   1.111   .     S
C1234  H1445   1.110   .     S
C1234  H1446   1.111   .     S
C1235  H1447   1.105   .     S
C1235  C1237   1.523   .     S
C1235  O1650   1.415   .     S
C1235  H1448   1.116   .     S
C1236  C159    1.455   1_565 S
C1236  C206    1.396   1_565 S
C1237  H1451   1.110   .     S
C1237  H1450   1.108   .     S
C1237  H1449   1.111   .     S
C1238  C1239   1.524   .     S
C1238  O1651   1.414   .     S
C1238  H1454   1.105   .     S
C1238  H1453   1.116   .     S
C1239  H1455   1.110   .     S
C1239  H1457   1.111   .     S
C1239  H1456   1.108   .     S
C1240  H1459   1.118   .     S
C1240  C1241   1.522   .     S
C1240  O1652   1.417   .     S
C1240  H1458   1.110   .     S
C1241  H1461   1.110   .     S
C1241  H1460   1.111   .     S
C1241  H1462   1.110   .     S
C1242  H1464   1.118   .     S
C1242  C1243   1.522   .     S
C1242  H1465   1.110   .     S
C1242  O1555   1.417   .     S
C1243  H1466   1.110   .     S
C1243  H1467   1.110   .     S
C1243  H1468   1.111   .     S
C1244  C1272   1.455   .     S
C1245  C1825   1.451   .     S
C1245  C1725   1.393   .     S
C1246  C1270   1.451   .     S
C1246  C1736   1.393   1_455 S
C1247  O1602   1.386   .     S
C1247  C1326   1.413   .     A
C1247  C1253   1.402   .     A
C1248  C1327   1.413   .     A
C1248  C1251   1.402   .     A
C1248  O1603   1.386   .     S
C1249  O1604   1.385   .     S
C1249  C1328   1.413   .     A
C1249  C1255   1.403   .     A
C1250  O1605   1.385   .     S
C1250  C1254   1.403   .     A
C1251  O1606   1.386   .     S
C1252  H1476   1.082   .     S
C1253  O1607   1.386   .     S
C1254  O1608   1.384   .     S
C1255  O1610   1.384   .     S
C1256  O1611   1.386   .     S
C1256  C1261   1.402   1_556 S
C1257  O1612   1.386   .     S
C1257  C1260   1.402   1_554 S
C1258  O1613   1.385   .     S
C1258  C1264   1.403   1_556 S
C1259  O1614   1.384   .     S
C1259  C1262   1.403   1_554 S
C1260  O1615   1.386   .     S
C1260  C1257   1.402   1_556 S
C1261  O1616   1.386   .     S
C1261  C1256   1.402   1_554 S
C1262  O1617   1.385   .     S
C1262  C1259   1.403   1_556 S
C1263  H1487   1.082   .     S
C1264  O1618   1.384   .     S
C1264  C1258   1.403   1_554 S
C1265  O1642   1.278   .     A
C1266  O1609   1.278   .     S
C1267  O1556   1.281   .     A
C1267  O2176   1.281   .     S
C1268  O1557   1.281   .     A
C1268  O2187   1.281   1_455 S
C1269  C1801   1.451   1_455 S
C1269  O1558   1.278   .     S
C1269  O1562   1.278   .     S
C1270  O1559   1.278   .     S
C1270  O1563   1.278   .     S
C1271  O1560   1.281   .     S
C1271  O1564   1.281   .     S
C1272  O1561   1.281   .     A
C1272  O1566   1.281   .     A
C1273  O1567   1.282   .     A
C1273  O1595   1.281   .     A
C1274  H1498   1.081   .     S
C1274  C1326   1.395   .     A
C1274  C1747   1.396   1_455 S
C1275  O1596   1.281   .     A
C1275  O1568   1.282   .     A
C1276  O1569   1.280   .     A
C1276  O1593   1.280   .     A
C1277  O1594   1.280   .     A
C1277  O1570   1.280   .     A
C1278  O1600   1.281   .     A
C1278  O1571   1.282   .     A
C1279  O1572   1.282   .     A
C1279  O1601   1.281   .     A
C1280  O1597   1.280   .     A
C1280  O1573   1.280   .     A
C1281  O1574   1.280   .     A
C1281  O1599   1.280   .     A
C1282  O1575   1.280   .     A
C1282  O1586   1.280   .     A
C1283  O1577   1.280   .     A
C1283  O1588   1.280   .     A
C1284  O1578   1.281   .     A
C1284  O1584   1.282   .     A
C1285  H1509   1.081   .     S
C1285  C1327   1.395   .     A
C1285  C1758   1.396   .     S
C1286  O1585   1.282   .     A
C1286  O1579   1.281   .     A
C1287  O1580   1.280   .     A
C1287  O1591   1.280   .     A
C1288  O1592   1.280   .     A
C1288  O1581   1.280   .     A
C1289  O1589   1.282   .     A
C1289  O1582   1.281   .     A
C1290  O1590   1.282   .     A
C1290  O1583   1.281   .     A
C1291  O1619   1.387   .     S
C1291  C1308   1.396   .     A
C1292  O1621   1.387   .     S
C1292  C1306   1.396   .     A
C1293  C1305   1.399   .     A
C1293  O1622   1.384   .     S
C1294  C1304   1.399   .     A
C1294  O1623   1.384   .     S
C1295  C1303   1.396   .     A
C1295  O1624   1.387   .     S
C1296  H1520   1.081   .     S
C1296  C1328   1.399   .     A
C1296  C101    1.393   1_565 S
C1297  C1302   1.396   .     A
C1297  O1625   1.387   .     S
C1298  O1626   1.384   .     S
C1298  C1301   1.399   .     A
C1299  C1300   1.399   .     A
C1299  O1627   1.384   .     S
C1300  O1628   1.392   .     S
C1301  O1629   1.392   .     S
C1302  O1630   1.386   .     S
C1303  O1632   1.386   .     S
C1304  O1633   1.392   .     S
C1305  O1634   1.392   .     S
C1306  O1635   1.386   .     S
C1307  H1531   1.081   .     S
C1308  O1636   1.386   .     S
C1309  O1637   1.387   .     S
C1309  C1325   1.396   .     A
C1310  C1324   1.396   .     A
C1310  O1638   1.387   .     S
C1311  O1639   1.384   .     S
C1311  C1323   1.399   .     A
C1312  O1640   1.384   .     S
C1312  C1322   1.399   .     A
C1313  C1321   1.396   .     A
C1313  O1641   1.387   .     S
C1314  O1643   1.387   .     S
C1314  C1320   1.396   .     A
C1315  O1644   1.384   .     S
C1315  C1319   1.399   .     A
C1316  O1645   1.384   .     S
C1316  C1317   1.399   .     A
C1317  O1646   1.392   .     S
C1318  H1542   1.083   .     S
C1319  O1647   1.392   .     S
C1320  O1648   1.386   .     S
C1321  O1649   1.386   .     S
C1322  O1650   1.392   .     S
C1323  O1651   1.392   .     S
C1324  O1652   1.386   .     S
C1325  O1555   1.386   .     S
C1326  C1702   1.416   1_455 S
C1327  C1704   1.416   .     S
C1328  C37     1.417   1_565 S
O1553  Zn1664  1.949   .     S
O1553  Zn1656  1.946   .     S
O1553  Zn1653  1.949   .     S
O1554  Zn1655  1.943   .     S
O1554  C154    1.278   1_565 A
O1556  Zn1658  1.943   .     S
O1557  Zn1657  1.943   .     S
O1558  Zn1667  1.943   .     S
O1559  Zn1666  1.943   .     S
O1560  Zn1661  1.943   .     S
O1561  Zn1653  1.943   .     S
O1562  Zn1663  1.943   .     S
O1563  Zn1662  1.943   .     S
O1564  Zn1665  1.943   .     S
O1565  Zn1665  1.949   .     S
O1565  Zn1661  1.949   .     S
O1565  Zn1659  1.946   .     S
O1566  Zn1664  1.943   .     S
O1567  Zn1656  1.950   .     S
O1568  Zn1655  1.950   .     S
O1569  Zn1658  1.927   .     S
O1570  Zn1657  1.927   .     S
O1571  Zn1660  1.950   .     S
O1572  Zn1659  1.950   .     S
O1573  Zn1654  1.927   .     S
O1574  Zn1668  1.927   .     S
O1575  Zn1655  1.929   .     S
O1576  Zn1666  1.946   .     S
O1576  Zn2214  1.949   1_455 S
O1576  Zn1654  1.949   .     S
O1576  Zn1662  1.946   .     S
O1577  Zn1656  1.929   .     S
O1578  Zn1668  1.948   .     S
O1579  Zn1654  1.948   .     S
O1580  Zn1659  1.929   .     S
O1581  Zn1660  1.929   .     S
O1582  Zn1657  1.948   .     S
O1583  Zn1658  1.948   .     S
O1584  Zn2219  1.950   .     S
O1585  Zn1662  1.950   .     S
O1586  Zn553   1.927   1_565 S
O1587  Zn2224  1.949   1_455 S
O1587  Zn1663  1.946   .     S
O1587  Zn1657  1.949   .     S
O1587  Zn1667  1.946   .     S
O1588  Zn1664  1.927   .     S
O1589  Zn1667  1.950   .     S
O1590  Zn2222  1.950   .     S
O1591  Zn1661  1.927   .     S
O1592  Zn541   1.927   1_565 S
O1593  Zn2218  1.929   .     S
O1594  Zn1663  1.929   .     S
O1595  Zn1653  1.948   .     S
O1596  Zn549   1.948   1_565 S
O1597  Zn1666  1.929   .     S
O1598  Zn1660  1.943   .     S
O1598  C153    1.278   1_565 S
O1599  Zn2223  1.929   .     S
O1600  Zn552   1.948   1_565 S
O1601  Zn1665  1.948   .     S
O1609  Zn1659  1.943   .     S
O1620  Zn1654  1.943   .     S
O1620  C1823   1.281   1_455 S
O1631  Zn1668  1.943   .     S
O1631  C1824   1.281   .     S
O1642  Zn1656  1.943   .     S
Zn1655 O453    1.946   1_565 S
Zn1658 O2132   1.949   .     S
Zn1660 O441    1.946   1_565 S
Zn1662 O2149   1.929   1_455 S
Zn1663 O2140   1.950   1_455 S
Zn1666 O2146   1.950   1_455 S
Zn1667 O2155   1.929   1_455 S
Zn1668 O2143   1.949   .     S
C1669  C1747   1.396   .     A
C1669  H1885   1.083   .     S
C1669  C1672   1.395   .     A
C1670  C1682   1.395   .     A
C1670  H1886   1.081   .     S
C1670  C688    1.396   1_565 S
C1671  C1863   1.399   .     A
C1671  C1806   1.412   .     A
C1672  C1807   1.412   .     A
C1672  C1702   1.416   .     A
C1673  C1704   1.416   .     A
C1673  C1780   1.395   .     A
C1673  C1809   1.412   .     A
C1674  C1810   1.412   .     A
C1674  C1808   1.399   .     A
C1674  C1705   1.416   .     A
C1675  C1811   1.412   .     A
C1675  C1819   1.399   .     A
C1675  C1706   1.416   .     A
C1676  C1703   1.395   .     A
C1676  C1707   1.416   .     A
C1676  C1812   1.412   .     A
C1677  C1714   1.394   .     A
C1677  C1813   1.413   .     A
C1677  C1708   1.416   .     S
C1678  C1814   1.413   .     A
C1678  C1725   1.399   .     A
C1679  C1736   1.399   .     A
C1679  C1710   1.416   .     A
C1679  C1815   1.412   .     A
C1680  C1874   1.395   .     A
C1680  C1816   1.411   .     A
C1681  C1801   1.393   .     A
C1681  H1897   1.080   .     S
C1681  C1683   1.399   .     A
C1682  C1817   1.413   .     A
C1682  C596    1.416   1_565 A
C1683  C1818   1.413   .     A
C1683  C1709   1.417   .     A
C1684  C1820   1.412   .     A
C1684  C1692   1.399   .     A
C1685  C1836   1.448   .     S
C1685  C1864   1.408   .     A
C1685  C1866   1.410   .     A
C1686  C1865   1.410   .     A
C1686  C1862   1.408   .     A
C1686  C1837   1.448   .     S
C1687  C1868   1.417   .     A
C1687  C1829   1.470   .     S
C1687  C1861   1.413   .     A
C1688  C1831   1.470   .     S
C1688  C1867   1.417   .     A
C1688  C1860   1.413   .     A
C1689  C1859   1.408   .     A
C1689  C1832   1.448   .     S
C1689  C1870   1.411   .     A
C1690  C1858   1.408   .     A
C1690  C1869   1.411   .     A
C1690  C1833   1.448   .     S
C1691  C1834   1.470   .     S
C1691  C1872   1.418   .     A
C1691  C1857   1.413   .     A
C1692  H1908   1.082   .     S
C1692  C1802   1.393   .     A
C1693  C1871   1.418   .     A
C1693  C1835   1.470   .     S
C1693  C1856   1.413   .     A
C1694  C1875   1.413   .     A
C1694  C1845   1.470   .     S
C1694  C1855   1.418   .     A
C1695  C1873   1.413   .     A
C1695  C1846   1.470   .     S
C1695  C1854   1.417   .     A
C1696  C1877   1.408   .     A
C1696  C1838   1.448   .     S
C1696  C1853   1.410   .     A
C1697  C1876   1.408   .     A
C1697  C1839   1.448   .     S
C1697  C1851   1.410   .     A
C1698  C1850   1.418   .     A
C1698  C1879   1.413   .     A
C1698  C1840   1.470   .     S
C1699  C1849   1.417   .     A
C1699  C1842   1.470   .     S
C1699  C1878   1.413   .     A
C1700  C1848   1.411   .     A
C1700  C1843   1.448   .     S
C1700  C1881   1.408   .     A
C1701  C1847   1.410   .     A
C1701  C1880   1.408   .     A
C1701  C1844   1.448   .     S
C1702  C1148   1.400   1_655 S
C1702  C1326   1.416   1_655 S
C1703  C1792   1.396   .     A
C1703  H1919   1.083   .     S
C1706  C559    1.417   1_565 S
C1706  C593    1.404   1_565 S
C1707  C568    1.416   1_565 S
C1707  C596    1.400   1_566 S
C1708  C595    1.400   1_554 S
C1709  C1122   1.417   1_655 S
C1709  C1710   1.404   1_556 S
C1710  C1128   1.416   1_655 S
C1710  C1709   1.404   1_554 S
C1711  H1963   1.109   .     S
C1711  H1985   1.115   .     S
C1711  O2158   1.416   .     S
C1711  H1974   1.109   .     S
C1712  H2008   1.109   .     S
C1712  H1997   1.109   .     S
C1712  H2019   1.116   .     S
C1712  O2159   1.416   .     S
C1713  H2025   1.117   .     S
C1713  H2027   1.109   .     S
C1713  O2160   1.416   .     S
C1713  H2026   1.109   .     S
C1714  C1800   1.396   .     A
C1714  H1930   1.081   .     S
C1715  O2161   1.416   .     S
C1715  H2030   1.109   .     S
C1715  H2029   1.117   .     S
C1715  H2028   1.109   .     S
C1716  O2162   1.412   .     S
C1716  H2033   1.114   .     S
C1716  H2034   1.108   .     S
C1716  H2031   1.109   .     S
C1717  H2036   1.109   .     S
C1717  H2037   1.108   .     S
C1717  H2035   1.114   .     S
C1717  O2163   1.412   .     S
C1718  O2164   1.411   .     S
C1718  H2040   1.110   .     S
C1718  H2039   1.109   .     S
C1718  H2038   1.113   .     S
C1719  H2042   1.113   .     S
C1719  O2166   1.411   .     S
C1719  H2044   1.109   .     S
C1719  H2041   1.109   .     S
C1720  H2045   1.109   .     S
C1720  H2047   1.108   .     S
C1720  H2046   1.114   .     S
C1720  O2167   1.412   .     S
C1721  H2050   1.115   .     S
C1721  O2168   1.416   .     S
C1721  H2049   1.109   .     S
C1721  H2048   1.109   .     S
C1722  H2051   1.117   .     S
C1722  O2169   1.416   .     S
C1722  H2053   1.109   .     S
C1722  H2052   1.109   .     S
C1723  O2170   1.411   .     S
C1723  H2055   1.109   .     S
C1723  H2057   1.110   .     S
C1723  H2056   1.113   .     S
C1724  O2171   1.412   .     S
C1724  H2059   1.114   .     S
C1724  H2058   1.109   .     S
C1724  H2060   1.108   .     S
C1725  H1941   1.081   .     S
C1726  H2063   1.115   .     S
C1726  H2061   1.109   .     S
C1726  H2062   1.109   .     S
C1726  O2172   1.416   .     S
C1727  H2066   1.109   .     S
C1727  H2064   1.117   .     S
C1727  H2067   1.109   .     S
C1727  O2173   1.416   .     S
C1728  H2069   1.113   .     S
C1728  H2068   1.109   .     S
C1728  O2174   1.411   .     S
C1728  H2070   1.110   .     S
C1729  O2175   1.415   .     S
C1729  H2071   1.113   .     S
C1729  C1730   1.521   .     S
C1729  H2072   1.110   .     S
C1730  H2075   1.111   .     S
C1730  H2073   1.111   .     S
C1730  H2074   1.111   .     S
C1731  H2078   1.113   .     S
C1731  C1732   1.521   .     S
C1731  O2177   1.415   .     S
C1731  H2077   1.110   .     S
C1732  H2081   1.111   .     S
C1732  H2079   1.110   .     S
C1732  H2080   1.111   .     S
C1733  H2083   1.112   .     S
C1733  O2178   1.418   .     S
C1733  H2082   1.113   .     S
C1733  C1734   1.521   .     S
C1734  H2086   1.108   .     S
C1734  H2084   1.110   .     S
C1734  H2085   1.111   .     S
C1735  O2179   1.418   .     S
C1735  H2089   1.113   .     S
C1735  H2088   1.112   .     S
C1735  C1737   1.521   .     S
C1736  H1952   1.082   .     S
C1736  C1246   1.393   1_655 S
C1737  H2091   1.111   .     S
C1737  H2090   1.108   .     S
C1737  H2092   1.110   .     S
C1738  O2180   1.415   .     S
C1738  C1739   1.521   .     S
C1738  H2093   1.113   .     S
C1738  H2094   1.110   .     S
C1739  H2095   1.111   .     S
C1739  H2097   1.111   .     S
C1739  H2096   1.111   .     S
C1740  C1741   1.521   .     S
C1740  H2100   1.113   .     S
C1740  H2099   1.110   .     S
C1740  O2181   1.415   .     S
C1741  H2102   1.111   .     S
C1741  H2101   1.111   .     S
C1741  H2103   1.111   .     S
C1742  H2104   1.113   .     S
C1742  H2105   1.112   .     S
C1742  C1743   1.521   .     S
C1742  O2182   1.418   .     S
C1743  H2107   1.111   .     S
C1743  H2108   1.108   .     S
C1743  H2106   1.110   .     S
C1744  H1887   1.112   .     S
C1744  O2183   1.418   .     S
C1744  H1888   1.113   .     S
C1744  C1745   1.521   .     S
C1745  H1891   1.110   .     S
C1745  H1890   1.111   .     S
C1745  H1889   1.108   .     S
C1746  H1892   1.105   .     S
C1746  C1748   1.524   .     S
C1746  O2184   1.415   .     S
C1746  H1893   1.116   .     S
C1747  C1823   1.455   .     S
C1747  C1274   1.396   1_655 S
C1748  H1895   1.108   .     S
C1748  H1894   1.111   .     S
C1748  H1896   1.110   .     S
C1749  H1899   1.105   .     S
C1749  H1898   1.116   .     S
C1749  C1750   1.523   .     S
C1749  O2185   1.414   .     S
C1750  H1901   1.108   .     S
C1750  H1900   1.110   .     S
C1750  H1902   1.111   .     S
C1751  H1903   1.110   .     S
C1751  C1752   1.522   .     S
C1751  O2186   1.417   .     S
C1751  H1904   1.118   .     S
C1752  H1905   1.111   .     S
C1752  H1907   1.111   .     S
C1752  H1906   1.110   .     S
C1753  H1910   1.110   .     S
C1753  C1754   1.522   .     S
C1753  O2188   1.417   .     S
C1753  H1909   1.118   .     S
C1754  H1913   1.111   .     S
C1754  H1911   1.110   .     S
C1754  H1912   1.110   .     S
C1755  H1915   1.116   .     S
C1755  C1756   1.524   .     S
C1755  O2189   1.414   .     S
C1755  H1914   1.105   .     S
C1756  H1916   1.111   .     S
C1756  H1917   1.108   .     S
C1756  H1918   1.110   .     S
C1757  O2190   1.414   .     S
C1757  H1920   1.116   .     S
C1757  C1759   1.523   .     S
C1757  H1921   1.105   .     S
C1758  C1824   1.455   .     S
C1758  C1780   1.396   .     A
C1759  H1923   1.108   .     S
C1759  H1924   1.111   .     S
C1759  H1922   1.110   .     S
C1760  H1925   1.110   .     S
C1760  O2191   1.417   .     S
C1760  H1926   1.118   .     S
C1760  C1761   1.522   .     S
C1761  H1927   1.111   .     S
C1761  H1929   1.111   .     S
C1761  H1928   1.110   .     S
C1762  H1932   1.110   .     S
C1762  H1931   1.118   .     S
C1762  O2192   1.417   .     S
C1762  C1763   1.522   .     S
C1763  H1933   1.110   .     S
C1763  H1935   1.111   .     S
C1763  H1934   1.110   .     S
C1764  H1936   1.113   .     S
C1764  H1937   1.110   .     S
C1764  O2193   1.415   .     S
C1764  C1765   1.521   .     S
C1765  H1938   1.111   .     S
C1765  H1940   1.111   .     S
C1765  H1939   1.111   .     S
C1766  C1767   1.521   .     S
C1766  H1942   1.110   .     S
C1766  H1943   1.113   .     S
C1766  O2194   1.415   .     S
C1767  H1946   1.111   .     S
C1767  H1944   1.111   .     S
C1767  H1945   1.111   .     S
C1768  H1947   1.113   .     S
C1768  O2195   1.418   .     S
C1768  H1948   1.112   .     S
C1768  C1770   1.521   .     S
C1769  C1808   1.393   .     A
C1769  C1821   1.451   .     S
C1770  H1951   1.108   .     S
C1770  H1949   1.110   .     S
C1770  H1950   1.111   .     S
C1771  H1953   1.112   .     S
C1771  C1772   1.521   .     S
C1771  O2196   1.418   .     S
C1771  H1954   1.113   .     S
C1772  H1956   1.111   .     S
C1772  H1957   1.110   .     S
C1772  H1955   1.108   .     S
C1773  H1959   1.110   .     S
C1773  O2197   1.415   .     S
C1773  C1774   1.521   .     S
C1773  H1958   1.113   .     S
C1774  H1960   1.111   .     S
C1774  H1961   1.111   .     S
C1774  H1962   1.111   .     S
C1775  H1964   1.110   .     S
C1775  O2199   1.415   .     S
C1775  C1776   1.521   .     S
C1775  H1965   1.113   .     S
C1776  H1967   1.111   .     S
C1776  H1966   1.111   .     S
C1776  H1968   1.111   .     S
C1777  H1970   1.112   .     S
C1777  H1969   1.113   .     S
C1777  C1778   1.521   .     S
C1777  O2200   1.418   .     S
C1778  H1971   1.111   .     S
C1778  H1972   1.108   .     S
C1778  H1973   1.110   .     S
C1779  C1782   1.521   .     S
C1779  H1975   1.112   .     S
C1779  O2201   1.418   .     S
C1779  H1976   1.113   .     S
C1780  H1996   1.083   .     S
C1781  C1819   1.393   .     A
C1781  C710    1.451   1_565 S
C1781  C751    1.393   1_565 S
C1782  H1977   1.108   .     S
C1782  H1978   1.111   .     S
C1782  H1979   1.110   .     S
C1783  O2202   1.414   .     S
C1783  C1784   1.524   .     S
C1783  H1980   1.105   .     S
C1783  H1981   1.116   .     S
C1784  H1982   1.111   .     S
C1784  H1984   1.110   .     S
C1784  H1983   1.108   .     S
C1785  C1786   1.524   .     S
C1785  H1986   1.116   .     S
C1785  H1987   1.106   .     S
C1785  O2203   1.414   .     S
C1786  H1988   1.110   .     S
C1786  H1990   1.111   .     S
C1786  H1989   1.108   .     S
C1787  H1991   1.110   .     S
C1787  O2204   1.417   .     S
C1787  C1788   1.522   .     S
C1787  H1992   1.118   .     S
C1788  H1993   1.111   .     S
C1788  H1995   1.111   .     S
C1788  H1994   1.110   .     S
C1789  H1999   1.110   .     S
C1789  H1998   1.118   .     S
C1789  C1790   1.522   .     S
C1789  O2205   1.417   .     S
C1790  H2000   1.111   .     S
C1790  H2001   1.110   .     S
C1790  H2002   1.111   .     S
C1791  H2003   1.105   .     S
C1791  C1793   1.523   .     S
C1791  O2206   1.415   .     S
C1791  H2004   1.116   .     S
C1792  C715    1.455   1_565 S
C1792  C762    1.396   1_565 S
C1793  H2007   1.110   .     S
C1793  H2006   1.108   .     S
C1793  H2005   1.111   .     S
C1794  C1795   1.524   .     S
C1794  O2207   1.414   .     S
C1794  H2010   1.105   .     S
C1794  H2009   1.116   .     S
C1795  H2011   1.110   .     S
C1795  H2013   1.111   .     S
C1795  H2012   1.108   .     S
C1796  H2015   1.118   .     S
C1796  C1797   1.522   .     S
C1796  O2208   1.417   .     S
C1796  H2014   1.110   .     S
C1797  H2017   1.110   .     S
C1797  H2016   1.111   .     S
C1797  H2018   1.110   .     S
C1798  H2020   1.118   .     S
C1798  C1799   1.522   .     S
C1798  H2021   1.110   .     S
C1798  O2111   1.417   .     S
C1799  H2022   1.110   .     S
C1799  H2023   1.110   .     S
C1799  H2024   1.111   .     S
C1800  C1828   1.455   .     S
C1801  C1269   1.451   1_655 S
C1801  C1169   1.393   1_655 S
C1802  C1826   1.451   .     S
C1803  O2158   1.386   .     S
C1803  C1882   1.413   .     A
C1803  C1809   1.402   .     A
C1804  C1883   1.413   .     A
C1804  C1807   1.402   .     A
C1804  O2159   1.386   .     S
C1805  O2160   1.385   .     S
C1805  C1884   1.413   .     A
C1805  C1811   1.403   .     A
C1806  O2161   1.385   .     S
C1806  C1810   1.403   .     A
C1807  O2162   1.386   .     S
C1808  H2032   1.082   .     S
C1809  O2163   1.386   .     S
C1810  O2164   1.384   .     S
C1811  O2166   1.384   .     S
C1812  O2167   1.386   .     S
C1812  C1817   1.402   1_556 S
C1813  O2168   1.386   .     S
C1813  C1816   1.402   1_554 S
C1814  O2169   1.385   .     S
C1814  C1820   1.403   1_556 S
C1815  O2170   1.384   .     S
C1815  C1818   1.403   1_554 S
C1816  O2171   1.386   .     S
C1816  C1813   1.402   1_556 S
C1817  O2172   1.386   .     S
C1817  C1812   1.402   1_554 S
C1818  O2173   1.385   .     S
C1818  C1815   1.403   1_556 S
C1819  H2043   1.082   .     S
C1820  O2174   1.384   .     S
C1820  C1814   1.403   1_554 S
C1821  O2198   1.278   .     A
C1822  O2165   1.278   .     S
C1823  O2112   1.281   .     A
C1823  O1620   1.281   1_655 S
C1824  O2113   1.281   .     A
C1825  O2114   1.278   .     S
C1825  O2118   1.278   .     S
C1826  O2115   1.278   .     S
C1826  O2119   1.278   .     S
C1827  O2116   1.281   .     S
C1827  O2120   1.281   .     S
C1828  O2117   1.281   .     A
C1828  O2122   1.281   .     A
C1829  O2123   1.282   .     A
C1829  O2151   1.281   .     A
C1830  H2054   1.081   .     S
C1830  C1882   1.395   .     A
C1831  O2152   1.281   .     A
C1831  O2124   1.282   .     A
C1832  O2125   1.280   .     A
C1832  O2149   1.280   .     A
C1833  O2150   1.280   .     A
C1833  O2126   1.280   .     A
C1834  O2156   1.281   .     A
C1834  O2127   1.282   .     A
C1835  O2128   1.282   .     A
C1835  O2157   1.281   .     A
C1836  O2153   1.280   .     A
C1836  O2129   1.280   .     A
C1837  O2130   1.280   .     A
C1837  O2155   1.280   .     A
C1838  O2131   1.280   .     A
C1838  O2142   1.280   .     A
C1839  O2133   1.280   .     A
C1839  O2144   1.280   .     A
C1840  O2134   1.281   .     A
C1840  O2140   1.282   .     A
C1841  H2065   1.081   .     S
C1841  C1883   1.395   .     A
C1841  C1202   1.396   1_655 S
C1842  O2141   1.282   .     A
C1842  O2135   1.281   .     A
C1843  O2136   1.280   .     A
C1843  O2147   1.280   .     A
C1844  O2148   1.280   .     A
C1844  O2137   1.280   .     A
C1845  O2145   1.282   .     A
C1845  O2138   1.281   .     A
C1846  O2146   1.282   .     A
C1846  O2139   1.281   .     A
C1847  O2175   1.387   .     S
C1847  C1864   1.396   .     A
C1848  O2177   1.387   .     S
C1848  C1862   1.396   .     A
C1849  C1861   1.399   .     A
C1849  O2178   1.384   .     S
C1850  C1860   1.399   .     A
C1850  O2179   1.384   .     S
C1851  C1859   1.396   .     A
C1851  O2180   1.387   .     S
C1852  H2076   1.081   .     S
C1852  C1884   1.399   .     A
C1852  C657    1.393   1_565 S
C1853  C1858   1.396   .     A
C1853  O2181   1.387   .     S
C1854  O2182   1.384   .     S
C1854  C1857   1.399   .     A
C1855  C1856   1.399   .     A
C1855  O2183   1.384   .     S
C1856  O2184   1.392   .     S
C1857  O2185   1.392   .     S
C1858  O2186   1.386   .     S
C1859  O2188   1.386   .     S
C1860  O2189   1.392   .     S
C1861  O2190   1.392   .     S
C1862  O2191   1.386   .     S
C1863  H2087   1.081   .     S
C1864  O2192   1.386   .     S
C1865  O2193   1.387   .     S
C1865  C1881   1.396   .     A
C1866  C1880   1.396   .     A
C1866  O2194   1.387   .     S
C1867  O2195   1.384   .     S
C1867  C1879   1.399   .     A
C1868  O2196   1.384   .     S
C1868  C1878   1.399   .     A
C1869  C1877   1.396   .     A
C1869  O2197   1.387   .     S
C1870  O2199   1.387   .     S
C1870  C1876   1.396   .     A
C1871  O2200   1.384   .     S
C1871  C1875   1.399   .     A
C1872  O2201   1.384   .     S
C1872  C1873   1.399   .     A
C1873  O2202   1.392   .     S
C1874  H2098   1.083   .     S
C1875  O2203   1.392   .     S
C1876  O2204   1.386   .     S
C1877  O2205   1.386   .     S
C1878  O2206   1.392   .     S
C1879  O2207   1.392   .     S
C1880  O2208   1.386   .     S
C1881  O2111   1.386   .     S
C1883  C1148   1.416   1_655 S
C1884  C593    1.417   1_565 S
O2109  Zn2220  1.949   .     S
O2109  Zn2212  1.946   .     S
O2109  Zn2209  1.949   .     S
O2110  Zn2211  1.943   .     S
O2110  C710    1.278   1_565 A
O2112  Zn2214  1.943   .     S
O2113  Zn2213  1.943   .     S
O2114  Zn2223  1.943   .     S
O2115  Zn2222  1.943   .     S
O2116  Zn2217  1.943   .     S
O2117  Zn2209  1.943   .     S
O2118  Zn2219  1.943   .     S
O2119  Zn2218  1.943   .     S
O2120  Zn2221  1.943   .     S
O2121  Zn2221  1.949   .     S
O2121  Zn2217  1.949   .     S
O2121  Zn2215  1.946   .     S
O2122  Zn2220  1.943   .     S
O2123  Zn2212  1.950   .     S
O2124  Zn2211  1.950   .     S
O2125  Zn2214  1.927   .     S
O2126  Zn2213  1.927   .     S
O2127  Zn2216  1.950   .     S
O2128  Zn2215  1.950   .     S
O2129  Zn2210  1.927   .     S
O2130  Zn2224  1.927   .     S
O2131  Zn2211  1.929   .     S
O2132  Zn2222  1.946   .     S
O2132  Zn2210  1.949   .     S
O2132  Zn2218  1.946   .     S
O2133  Zn2212  1.929   .     S
O2134  Zn2224  1.948   .     S
O2135  Zn2210  1.948   .     S
O2136  Zn2215  1.929   .     S
O2137  Zn2216  1.929   .     S
O2138  Zn2213  1.948   .     S
O2139  Zn2214  1.948   .     S
O2140  Zn1663  1.950   1_655 S
O2141  Zn2218  1.950   .     S
O2142  Zn1109  1.927   1_565 S
O2143  Zn2219  1.946   .     S
O2143  Zn2213  1.949   .     S
O2143  Zn2223  1.946   .     S
O2144  Zn2220  1.927   .     S
O2145  Zn2223  1.950   .     S
O2146  Zn1666  1.950   1_655 S
O2147  Zn2217  1.927   .     S
O2148  Zn1097  1.927   1_565 S
O2149  Zn1662  1.929   1_655 S
O2150  Zn2219  1.929   .     S
O2151  Zn2209  1.948   .     S
O2152  Zn1105  1.948   1_565 S
O2153  Zn2222  1.929   .     S
O2154  Zn2216  1.943   .     S
O2154  C709    1.278   1_565 S
O2155  Zn1667  1.929   1_655 S
O2156  Zn1108  1.948   1_565 S
O2157  Zn2221  1.948   .     S
O2165  Zn2215  1.943   .     S
O2176  Zn2210  1.943   .     S
O2187  Zn2224  1.943   .     S
O2187  C1268   1.281   1_655 S
O2198  Zn2212  1.943   .     S
Zn2211 O1009   1.946   1_565 S
Zn2214 O1576   1.949   1_655 S
Zn2216 O997    1.946   1_565 S
Zn2224 O1587   1.949   1_655 S
