data_str_m1_o1_o5_pcu_sym.9
_audit_creation_date              2020-01-03
_audit_creation_method            'Materials Studio'
_symmetry_space_group_name_H-M    'P1'
_symmetry_Int_Tables_number       1
_symmetry_cell_setting            triclinic
loop_
_symmetry_equiv_pos_as_xyz
  x,y,z
_cell_length_a                    36.6440
_cell_length_b                    36.6440
_cell_length_c                    22.4546
_cell_angle_alpha                 90.0000
_cell_angle_beta                  90.0000
_cell_angle_gamma                 90.0376
loop_
_atom_site_label
_atom_site_type_symbol
_atom_site_fract_x
_atom_site_fract_y
_atom_site_fract_z
_atom_site_U_iso_or_equiv
_atom_site_adp_type
_atom_site_occupancy
C1     C     0.00000   0.25000   0.02665   0.00000  Uiso   1.00
C2     C     0.00000   0.25000   0.58990   0.00000  Uiso   1.00
C3     C     0.44897   0.39083   0.20589   0.00000  Uiso   1.00
C4     C     0.19520   0.36118   0.69027   0.00000  Uiso   1.00
C5     C     0.39074   0.05109   0.20565   0.00000  Uiso   1.00
C6     C     0.35842   0.30052   0.70950   0.00000  Uiso   1.00
C7     C     0.05103   0.10917   0.20589   0.00000  Uiso   1.00
C8     C     0.39118   0.44741   0.19956   0.00000  Uiso   1.00
C9     C     0.19788   0.14156   0.70162   0.00000  Uiso   1.00
C10    C     0.05264   0.39109   0.19937   0.00000  Uiso   1.00
C11    C     0.36192   0.19631   0.69396   0.00000  Uiso   1.00
C12    C     0.10882   0.05259   0.19956   0.00000  Uiso   1.00
C13    C     0.25000  -0.00000   0.41010   0.00000  Uiso   1.00
C14    C     0.30212   0.35844   0.70162   0.00000  Uiso   1.00
C15    C     0.44736   0.10891   0.19937   0.00000  Uiso   1.00
C16    C     0.13808   0.30370   0.69394   0.00000  Uiso   1.00
C17    C     0.25000  -0.00000   0.58990   0.00000  Uiso   1.00
C18    C     0.25000  -0.00000   0.91010   0.00000  Uiso   1.00
C19    C     0.25000  -0.00000   0.08990   0.00000  Uiso   1.00
C20    C     0.00000   0.25000   0.91010   0.00000  Uiso   1.00
C21    C     0.00000   0.25000   0.08990   0.00000  Uiso   1.00
C22    C     0.06999   0.18001   0.25000   0.00000  Uiso   1.00
C23    C     0.42999   0.32001   0.75000   0.00000  Uiso   1.00
C24    C     0.18001   0.43001   0.25000   0.00000  Uiso   1.00
C25    C     0.00000   0.25000   0.97335   0.00000  Uiso   1.00
C26    C     0.31996   0.06996   0.75000   0.00000  Uiso   1.00
C27    C     0.43001   0.31999   0.25000   0.00000  Uiso   1.00
C28    C     0.07001   0.17999   0.75000   0.00000  Uiso   1.00
C29    C     0.31999   0.06999   0.25000   0.00000  Uiso   1.00
C30    C     0.18004   0.43004   0.75000   0.00000  Uiso   1.00
C31    C     0.06999   0.31999   0.75000   0.00000  Uiso   1.00
C32    C     0.43003   0.18003   0.25000   0.00000  Uiso   1.00
C33    C     0.18004   0.06996   0.75000   0.00000  Uiso   1.00
C34    C     0.31997   0.43003   0.25000   0.00000  Uiso   1.00
C35    C     0.43001   0.18001   0.75000   0.00000  Uiso   1.00
C36    C     0.25000  -0.00000   0.02665   0.00000  Uiso   1.00
C37    C     0.06997   0.31997   0.25000   0.00000  Uiso   1.00
C38    C     0.31996   0.43004   0.75000   0.00000  Uiso   1.00
C39    C     0.18003   0.06997   0.25000   0.00000  Uiso   1.00
C40    C     0.13301   0.33974   0.27323   0.00000  Uiso   1.00
C41    C     0.40919   0.11797   0.77741   0.00000  Uiso   1.00
C42    C     0.33971   0.36695   0.27312   0.00000  Uiso   1.00
C43    C     0.11678   0.08945   0.77198   0.00000  Uiso   1.00
C44    C     0.36699   0.16026   0.27323   0.00000  Uiso   1.00
C45    C     0.09081   0.38203   0.77742   0.00000  Uiso   1.00
C46    C     0.16029   0.13305   0.27312   0.00000  Uiso   1.00
C47    C     0.25000  -0.00000   0.97335   0.00000  Uiso   1.00
C48    C     0.38322   0.41055   0.77198   0.00000  Uiso   1.00
C49    C     0.08933   0.11639   0.77025   0.00000  Uiso   1.00
C50    C     0.36670   0.33952   0.27169   0.00000  Uiso   1.00
C51    C     0.38185   0.09085   0.77815   0.00000  Uiso   1.00
C52    C     0.16045   0.36674   0.27181   0.00000  Uiso   1.00
C53    C     0.41067   0.38361   0.77025   0.00000  Uiso   1.00
C54    C     0.13330   0.16048   0.27169   0.00000  Uiso   1.00
C55    C     0.11815   0.40915   0.77816   0.00000  Uiso   1.00
C56    C     0.33955   0.13326   0.27181   0.00000  Uiso   1.00
C57    C     0.34085   0.13185   0.72185   0.00000  Uiso   1.00
C58    C     0.25000  -0.00000   0.52665   0.00000  Uiso   1.00
C59    C     0.11674   0.41045   0.22819   0.00000  Uiso   1.00
C60    C     0.13361   0.16067   0.72975   0.00000  Uiso   1.00
C61    C     0.41048   0.38330   0.22831   0.00000  Uiso   1.00
C62    C     0.15915   0.36815   0.72184   0.00000  Uiso   1.00
C63    C     0.38326   0.08955   0.22819   0.00000  Uiso   1.00
C64    C     0.36639   0.33933   0.72975   0.00000  Uiso   1.00
C65    C     0.08952   0.11670   0.22831   0.00000  Uiso   1.00
C66    C     0.38305   0.41029   0.22688   0.00000  Uiso   1.00
C67    C     0.16055   0.13322   0.72802   0.00000  Uiso   1.00
C68    C     0.08974   0.38301   0.22678   0.00000  Uiso   1.00
C69    C     0.25000  -0.00000   0.47335   0.00000  Uiso   1.00
C70    C     0.36797   0.15919   0.72259   0.00000  Uiso   1.00
C71    C     0.11695   0.08971   0.22688   0.00000  Uiso   1.00
C72    C     0.33945   0.36678   0.72803   0.00000  Uiso   1.00
C73    C     0.41026   0.11699   0.22678   0.00000  Uiso   1.00
C74    C     0.13203   0.34081   0.72258   0.00000  Uiso   1.00
C75    C     0.15186   0.40186   0.25000   0.00000  Uiso   1.00
C76    C     0.34802   0.09802   0.75000   0.00000  Uiso   1.00
C77    C     0.40185   0.34815   0.25000   0.00000  Uiso   1.00
C78    C     0.09818   0.15182   0.75000   0.00000  Uiso   1.00
C79    C     0.34814   0.09814   0.25000   0.00000  Uiso   1.00
C80    C     0.00000   0.25000   0.52665   0.00000  Uiso   1.00
C81    C     0.15198   0.40198   0.75000   0.00000  Uiso   1.00
C82    C     0.09815   0.15185   0.25000   0.00000  Uiso   1.00
C83    C     0.40182   0.34818   0.75000   0.00000  Uiso   1.00
C84    C     0.15200   0.09800   0.75000   0.00000  Uiso   1.00
C85    C     0.34804   0.40196   0.25000   0.00000  Uiso   1.00
C86    C     0.40184   0.15184   0.75000   0.00000  Uiso   1.00
C87    C     0.09803   0.34803   0.25000   0.00000  Uiso   1.00
C88    C     0.34800   0.40200   0.75000   0.00000  Uiso   1.00
C89    C     0.15196   0.09804   0.25000   0.00000  Uiso   1.00
C90    C     0.09816   0.34816   0.75000   0.00000  Uiso   1.00
C91    C     0.00000   0.25000   0.47335   0.00000  Uiso   1.00
C92    C     0.40197   0.15197   0.25000   0.00000  Uiso   1.00
C93    C     0.14109   0.30264   0.30063   0.00000  Uiso   1.00
C94    C     0.44631   0.11192   0.80604   0.00000  Uiso   1.00
C95    C     0.30259   0.35882   0.30044   0.00000  Uiso   1.00
C96    C     0.10844   0.05212   0.79838   0.00000  Uiso   1.00
C97    C     0.35891   0.19736   0.30063   0.00000  Uiso   1.00
C98    C     0.05370   0.38808   0.80606   0.00000  Uiso   1.00
C99    C     0.19741   0.14117   0.30044   0.00000  Uiso   1.00
C100   C     0.39156   0.44788   0.79838   0.00000  Uiso   1.00
C101   C     0.05052   0.10842   0.79051   0.00000  Uiso   1.00
C102   C     0.00000   0.25000   0.41010   0.00000  Uiso   1.00
C103   C     0.35917   0.30103   0.29411   0.00000  Uiso   1.00
C104   C     0.38882   0.05480   0.80972   0.00000  Uiso   1.00
C105   C     0.19891   0.35926   0.29435   0.00000  Uiso   1.00
C106   C     0.44948   0.39158   0.79050   0.00000  Uiso   1.00
C107   C     0.14083   0.19897   0.29411   0.00000  Uiso   1.00
C108   C     0.11118   0.44520   0.80973   0.00000  Uiso   1.00
C109   C     0.30109   0.14074   0.29435   0.00000  Uiso   1.00
C110   C     0.30480   0.13882   0.69028   0.00000  Uiso   1.00
C111   C     0.10926   0.44891   0.20565   0.00000  Uiso   1.00
C112   C     0.14158   0.19948   0.70950   0.00000  Uiso   1.00
H113   H     0.15036   0.30621   0.34735   0.00000  Uiso   1.00
H114   H     0.08753   0.03807   0.77090   0.00000  Uiso   1.00
H115   H     0.13228   0.03372   0.80147   0.00000  Uiso   1.00
H116   H     0.09833   0.05533   0.84470   0.00000  Uiso   1.00
H117   H     0.34964   0.19379   0.34735   0.00000  Uiso   1.00
H118   H     0.38266   0.21597   0.30281   0.00000  Uiso   1.00
H119   H     0.33742   0.21140   0.27439   0.00000  Uiso   1.00
H120   H     0.05012   0.41496   0.82757   0.00000  Uiso   1.00
H121   H     0.03221   0.38584   0.77153   0.00000  Uiso   1.00
H122   H     0.04887   0.36702   0.84075   0.00000  Uiso   1.00
H123   H     0.19387   0.15050   0.34713   0.00000  Uiso   1.00
H124   H     0.11734   0.28403   0.30281   0.00000  Uiso   1.00
H125   H     0.21600   0.11743   0.30267   0.00000  Uiso   1.00
H126   H     0.21145   0.16264   0.27410   0.00000  Uiso   1.00
H127   H     0.41247   0.46193   0.77089   0.00000  Uiso   1.00
H128   H     0.36773   0.46628   0.80147   0.00000  Uiso   1.00
H129   H     0.40167   0.44467   0.84470   0.00000  Uiso   1.00
H130   H     0.04607   0.08066   0.80830   0.00000  Uiso   1.00
H131   H     0.04249   0.12786   0.82610   0.00000  Uiso   1.00
H132   H     0.03177   0.11147   0.75208   0.00000  Uiso   1.00
H133   H     0.33148   0.29671   0.31232   0.00000  Uiso   1.00
H134   H     0.36237   0.28134   0.25695   0.00000  Uiso   1.00
H135   H     0.16258   0.28860   0.27439   0.00000  Uiso   1.00
H136   H     0.37876   0.29403   0.33006   0.00000  Uiso   1.00
H137   H     0.41180   0.04029   0.78786   0.00000  Uiso   1.00
H138   H     0.39549   0.05995   0.85721   0.00000  Uiso   1.00
H139   H     0.36527   0.03589   0.80982   0.00000  Uiso   1.00
H140   H     0.20320   0.33160   0.31266   0.00000  Uiso   1.00
H141   H     0.21865   0.36244   0.25724   0.00000  Uiso   1.00
H142   H     0.20590   0.37890   0.33026   0.00000  Uiso   1.00
H143   H     0.45393   0.41934   0.80829   0.00000  Uiso   1.00
H144   H     0.45751   0.37214   0.82610   0.00000  Uiso   1.00
H145   H     0.46823   0.38853   0.75207   0.00000  Uiso   1.00
H146   H     0.44988   0.08503   0.82755   0.00000  Uiso   1.00
H147   H     0.16852   0.20329   0.31232   0.00000  Uiso   1.00
H148   H     0.13763   0.21866   0.25696   0.00000  Uiso   1.00
H149   H     0.12124   0.20597   0.33006   0.00000  Uiso   1.00
H150   H     0.08820   0.45971   0.78788   0.00000  Uiso   1.00
H151   H     0.10451   0.44004   0.85723   0.00000  Uiso   1.00
H152   H     0.13473   0.46411   0.80983   0.00000  Uiso   1.00
H153   H     0.29680   0.16840   0.31266   0.00000  Uiso   1.00
H154   H     0.28135   0.13756   0.25724   0.00000  Uiso   1.00
H155   H     0.29410   0.12110   0.33026   0.00000  Uiso   1.00
H156   H     0.29029   0.16180   0.71214   0.00000  Uiso   1.00
H157   H     0.46779   0.11415   0.77150   0.00000  Uiso   1.00
H158   H     0.30995   0.14549   0.64279   0.00000  Uiso   1.00
H159   H     0.28589   0.11527   0.69018   0.00000  Uiso   1.00
H160   H     0.08160   0.45320   0.18734   0.00000  Uiso   1.00
H161   H     0.11244   0.46865   0.24276   0.00000  Uiso   1.00
H162   H     0.12890   0.45590   0.16974   0.00000  Uiso   1.00
H163   H     0.16934   0.20393   0.69170   0.00000  Uiso   1.00
H164   H     0.12214   0.20751   0.67390   0.00000  Uiso   1.00
H165   H     0.13853   0.21823   0.74792   0.00000  Uiso   1.00
H166   H     0.45329   0.41852   0.18768   0.00000  Uiso   1.00
H167   H     0.46866   0.38763   0.24305   0.00000  Uiso   1.00
H168   H     0.45114   0.13298   0.84073   0.00000  Uiso   1.00
H169   H     0.45597   0.37124   0.16994   0.00000  Uiso   1.00
H170   H     0.20971   0.33820   0.71212   0.00000  Uiso   1.00
H171   H     0.19004   0.35451   0.64277   0.00000  Uiso   1.00
H172   H     0.21411   0.38473   0.69017   0.00000  Uiso   1.00
H173   H     0.41840   0.04680   0.18734   0.00000  Uiso   1.00
H174   H     0.38756   0.03135   0.24277   0.00000  Uiso   1.00
H175   H     0.37110   0.04410   0.16974   0.00000  Uiso   1.00
H176   H     0.33066   0.29607   0.69171   0.00000  Uiso   1.00
H177   H     0.37786   0.29249   0.67390   0.00000  Uiso   1.00
H178   H     0.36147   0.28177   0.74793   0.00000  Uiso   1.00
H179   H     0.30613   0.34950   0.34713   0.00000  Uiso   1.00
H180   H     0.04671   0.08148   0.18768   0.00000  Uiso   1.00
H181   H     0.03134   0.11237   0.24305   0.00000  Uiso   1.00
H182   H     0.04403   0.12876   0.16994   0.00000  Uiso   1.00
H183   H     0.40050   0.44387   0.15287   0.00000  Uiso   1.00
H184   H     0.36744   0.46600   0.19733   0.00000  Uiso   1.00
H185   H     0.41264   0.46145   0.22590   0.00000  Uiso   1.00
H186   H     0.21193   0.16247   0.72911   0.00000  Uiso   1.00
H187   H     0.21628   0.11772   0.69853   0.00000  Uiso   1.00
H188   H     0.19467   0.15167   0.65530   0.00000  Uiso   1.00
H189   H     0.05621   0.40036   0.15265   0.00000  Uiso   1.00
H190   H     0.28400   0.38256   0.30267   0.00000  Uiso   1.00
H191   H     0.03403   0.36734   0.19719   0.00000  Uiso   1.00
H192   H     0.03860   0.41258   0.22562   0.00000  Uiso   1.00
H193   H     0.33503   0.19988   0.67245   0.00000  Uiso   1.00
H194   H     0.36416   0.21779   0.72850   0.00000  Uiso   1.00
H195   H     0.38298   0.20114   0.65927   0.00000  Uiso   1.00
H196   H     0.09950   0.05613   0.15287   0.00000  Uiso   1.00
H197   H     0.13257   0.03400   0.19733   0.00000  Uiso   1.00
H198   H     0.08736   0.03855   0.22590   0.00000  Uiso   1.00
H199   H     0.28807   0.33753   0.72911   0.00000  Uiso   1.00
H200   H     0.28372   0.38227   0.69853   0.00000  Uiso   1.00
H201   H     0.28855   0.33736   0.27410   0.00000  Uiso   1.00
H202   H     0.30533   0.34833   0.65530   0.00000  Uiso   1.00
H203   H     0.44379   0.09964   0.15265   0.00000  Uiso   1.00
H204   H     0.46597   0.13266   0.19719   0.00000  Uiso   1.00
H205   H     0.46140   0.08742   0.22562   0.00000  Uiso   1.00
H206   H     0.16496   0.30012   0.67243   0.00000  Uiso   1.00
H207   H     0.13584   0.28221   0.72847   0.00000  Uiso   1.00
H208   H     0.11702   0.29887   0.65925   0.00000  Uiso   1.00
O209   O     0.00000   0.25000   0.25000   0.00000  Uiso   1.00
O210   O     0.00000   0.28035   0.61781   0.00000  Uiso   1.00
O211   O     0.21965  -0.00000   0.38219   0.00000  Uiso   1.00
O212   O     0.28036  -0.00000   0.61781   0.00000  Uiso   1.00
O213   O     0.25000   0.03035   0.88219   0.00000  Uiso   1.00
O214   O     0.25000   0.46964   0.11781   0.00000  Uiso   1.00
O215   O     0.03036   0.25000   0.88219   0.00000  Uiso   1.00
O216   O     0.46965   0.25000   0.11781   0.00000  Uiso   1.00
O217   O     0.25000   0.46964   0.88219   0.00000  Uiso   1.00
O218   O     0.25000   0.03035   0.11781   0.00000  Uiso   1.00
O219   O     0.46965   0.25000   0.88219   0.00000  Uiso   1.00
O220   O     0.00000   0.25000   0.75000   0.00000  Uiso   1.00
O221   O     0.03036   0.25000   0.11781   0.00000  Uiso   1.00
O222   O     0.04268   0.17692   0.28474   0.00000  Uiso   1.00
O223   O     0.45733   0.32307   0.71526   0.00000  Uiso   1.00
O224   O     0.17693   0.45732   0.28474   0.00000  Uiso   1.00
O225   O     0.32308   0.04267   0.71526   0.00000  Uiso   1.00
O226   O     0.45733   0.32307   0.28474   0.00000  Uiso   1.00
O227   O     0.04268   0.17692   0.71526   0.00000  Uiso   1.00
O228   O     0.32308   0.04267   0.28474   0.00000  Uiso   1.00
O229   O     0.17693   0.45732   0.71526   0.00000  Uiso   1.00
O230   O     0.04268   0.32307   0.71526   0.00000  Uiso   1.00
O231   O     0.25000  -0.00000   0.25000   0.00000  Uiso   1.00
O232   O     0.45733   0.17692   0.28474   0.00000  Uiso   1.00
O233   O     0.17693   0.04267   0.71526   0.00000  Uiso   1.00
O234   O     0.32308   0.45732   0.28474   0.00000  Uiso   1.00
O235   O     0.45733   0.17692   0.71526   0.00000  Uiso   1.00
O236   O     0.04268   0.32307   0.28474   0.00000  Uiso   1.00
O237   O     0.32308   0.45732   0.71526   0.00000  Uiso   1.00
O238   O     0.17693   0.04267   0.28474   0.00000  Uiso   1.00
O239   O     0.29268   0.42692   0.78474   0.00000  Uiso   1.00
O240   O     0.20733   0.07307   0.21526   0.00000  Uiso   1.00
O241   O     0.42693   0.20732   0.78474   0.00000  Uiso   1.00
O242   O     0.25000  -0.00000   0.75000   0.00000  Uiso   1.00
O243   O     0.07308   0.29267   0.21526   0.00000  Uiso   1.00
O244   O     0.20733   0.07307   0.78474   0.00000  Uiso   1.00
O245   O     0.29268   0.42692   0.21526   0.00000  Uiso   1.00
O246   O     0.07308   0.29267   0.78474   0.00000  Uiso   1.00
O247   O     0.42693   0.20732   0.21526   0.00000  Uiso   1.00
O248   O     0.29268   0.07307   0.21526   0.00000  Uiso   1.00
O249   O     0.20733   0.42692   0.78474   0.00000  Uiso   1.00
O250   O     0.42693   0.29267   0.21526   0.00000  Uiso   1.00
O251   O     0.07308   0.20732   0.78474   0.00000  Uiso   1.00
O252   O     0.20733   0.42692   0.21526   0.00000  Uiso   1.00
O253   O     0.00000   0.28035   0.38219   0.00000  Uiso   1.00
O254   O     0.29268   0.07307   0.78474   0.00000  Uiso   1.00
O255   O     0.07308   0.20732   0.21526   0.00000  Uiso   1.00
O256   O     0.42693   0.29267   0.78474   0.00000  Uiso   1.00
O257   O     0.00000   0.21964   0.61781   0.00000  Uiso   1.00
O258   O     0.28036  -0.00000   0.38219   0.00000  Uiso   1.00
O259   O     0.21965  -0.00000   0.61781   0.00000  Uiso   1.00
O260   O     0.00000   0.21964   0.38219   0.00000  Uiso   1.00
Zn261  Zn    0.04333   0.25000   0.20067   0.00000  Uiso   1.00
Zn262  Zn    0.20667  -0.00000   0.29933   0.00000  Uiso   1.00
Zn263  Zn    0.00000   0.20667   0.70067   0.00000  Uiso   1.00
Zn264  Zn    0.00000   0.29333   0.29933   0.00000  Uiso   1.00
Zn265  Zn    0.20667  -0.00000   0.70067   0.00000  Uiso   1.00
Zn266  Zn    0.29333  -0.00000   0.29933   0.00000  Uiso   1.00
Zn267  Zn    0.00000   0.29333   0.70067   0.00000  Uiso   1.00
Zn268  Zn    0.00000   0.20667   0.29933   0.00000  Uiso   1.00
Zn269  Zn    0.45667   0.25000   0.79933   0.00000  Uiso   1.00
Zn270  Zn    0.25000   0.45667   0.20067   0.00000  Uiso   1.00
Zn271  Zn    0.25000   0.04333   0.79933   0.00000  Uiso   1.00
Zn272  Zn    0.45667   0.25000   0.20067   0.00000  Uiso   1.00
Zn273  Zn    0.04333   0.25000   0.79933   0.00000  Uiso   1.00
Zn274  Zn    0.25000   0.04333   0.20067   0.00000  Uiso   1.00
Zn275  Zn    0.25000   0.45667   0.79933   0.00000  Uiso   1.00
Zn276  Zn    0.29333  -0.00000   0.70067   0.00000  Uiso   1.00
C277   C     0.50000   0.25000   0.02665   0.00000  Uiso   1.00
C278   C     0.50000   0.25000   0.58990   0.00000  Uiso   1.00
C279   C     0.94897   0.39083   0.20589   0.00000  Uiso   1.00
C280   C     0.69520   0.36118   0.69027   0.00000  Uiso   1.00
C281   C     0.89074   0.05109   0.20565   0.00000  Uiso   1.00
C282   C     0.85842   0.30052   0.70950   0.00000  Uiso   1.00
C283   C     0.55103   0.10917   0.20589   0.00000  Uiso   1.00
C284   C     0.89118   0.44741   0.19956   0.00000  Uiso   1.00
C285   C     0.69788   0.14156   0.70162   0.00000  Uiso   1.00
C286   C     0.55264   0.39109   0.19937   0.00000  Uiso   1.00
C287   C     0.86192   0.19631   0.69396   0.00000  Uiso   1.00
C288   C     0.60882   0.05259   0.19956   0.00000  Uiso   1.00
C289   C     0.75000  -0.00000   0.41010   0.00000  Uiso   1.00
C290   C     0.80212   0.35844   0.70162   0.00000  Uiso   1.00
C291   C     0.94736   0.10891   0.19937   0.00000  Uiso   1.00
C292   C     0.63808   0.30370   0.69394   0.00000  Uiso   1.00
C293   C     0.75000  -0.00000   0.58990   0.00000  Uiso   1.00
C294   C     0.75000  -0.00000   0.91010   0.00000  Uiso   1.00
C295   C     0.75000  -0.00000   0.08990   0.00000  Uiso   1.00
C296   C     0.50000   0.25000   0.91010   0.00000  Uiso   1.00
C297   C     0.50000   0.25000   0.08990   0.00000  Uiso   1.00
C298   C     0.56999   0.18001   0.25000   0.00000  Uiso   1.00
C299   C     0.92999   0.32001   0.75000   0.00000  Uiso   1.00
C300   C     0.68001   0.43001   0.25000   0.00000  Uiso   1.00
C301   C     0.50000   0.25000   0.97335   0.00000  Uiso   1.00
C302   C     0.81996   0.06996   0.75000   0.00000  Uiso   1.00
C303   C     0.93001   0.31999   0.25000   0.00000  Uiso   1.00
C304   C     0.57001   0.17999   0.75000   0.00000  Uiso   1.00
C305   C     0.81999   0.06999   0.25000   0.00000  Uiso   1.00
C306   C     0.68004   0.43004   0.75000   0.00000  Uiso   1.00
C307   C     0.56999   0.31999   0.75000   0.00000  Uiso   1.00
C308   C     0.93003   0.18003   0.25000   0.00000  Uiso   1.00
C309   C     0.68004   0.06996   0.75000   0.00000  Uiso   1.00
C310   C     0.81997   0.43003   0.25000   0.00000  Uiso   1.00
C311   C     0.93001   0.18001   0.75000   0.00000  Uiso   1.00
C312   C     0.75000  -0.00000   0.02665   0.00000  Uiso   1.00
C313   C     0.56997   0.31997   0.25000   0.00000  Uiso   1.00
C314   C     0.81996   0.43004   0.75000   0.00000  Uiso   1.00
C315   C     0.68003   0.06997   0.25000   0.00000  Uiso   1.00
C316   C     0.63301   0.33974   0.27323   0.00000  Uiso   1.00
C317   C     0.90919   0.11797   0.77741   0.00000  Uiso   1.00
C318   C     0.83971   0.36695   0.27312   0.00000  Uiso   1.00
C319   C     0.61678   0.08945   0.77198   0.00000  Uiso   1.00
C320   C     0.86699   0.16026   0.27323   0.00000  Uiso   1.00
C321   C     0.59081   0.38203   0.77742   0.00000  Uiso   1.00
C322   C     0.66029   0.13305   0.27312   0.00000  Uiso   1.00
C323   C     0.75000  -0.00000   0.97335   0.00000  Uiso   1.00
C324   C     0.88322   0.41055   0.77198   0.00000  Uiso   1.00
C325   C     0.58933   0.11639   0.77025   0.00000  Uiso   1.00
C326   C     0.86670   0.33952   0.27169   0.00000  Uiso   1.00
C327   C     0.88185   0.09085   0.77815   0.00000  Uiso   1.00
C328   C     0.66045   0.36674   0.27181   0.00000  Uiso   1.00
C329   C     0.91067   0.38361   0.77025   0.00000  Uiso   1.00
C330   C     0.63330   0.16048   0.27169   0.00000  Uiso   1.00
C331   C     0.61815   0.40915   0.77816   0.00000  Uiso   1.00
C332   C     0.83955   0.13326   0.27181   0.00000  Uiso   1.00
C333   C     0.84085   0.13185   0.72185   0.00000  Uiso   1.00
C334   C     0.75000  -0.00000   0.52665   0.00000  Uiso   1.00
C335   C     0.61674   0.41045   0.22819   0.00000  Uiso   1.00
C336   C     0.63361   0.16067   0.72975   0.00000  Uiso   1.00
C337   C     0.91048   0.38330   0.22831   0.00000  Uiso   1.00
C338   C     0.65915   0.36815   0.72184   0.00000  Uiso   1.00
C339   C     0.88326   0.08955   0.22819   0.00000  Uiso   1.00
C340   C     0.86639   0.33933   0.72975   0.00000  Uiso   1.00
C341   C     0.58952   0.11670   0.22831   0.00000  Uiso   1.00
C342   C     0.88305   0.41029   0.22688   0.00000  Uiso   1.00
C343   C     0.66055   0.13322   0.72802   0.00000  Uiso   1.00
C344   C     0.58974   0.38301   0.22678   0.00000  Uiso   1.00
C345   C     0.75000  -0.00000   0.47335   0.00000  Uiso   1.00
C346   C     0.86797   0.15919   0.72259   0.00000  Uiso   1.00
C347   C     0.61695   0.08971   0.22688   0.00000  Uiso   1.00
C348   C     0.83945   0.36678   0.72803   0.00000  Uiso   1.00
C349   C     0.91026   0.11699   0.22678   0.00000  Uiso   1.00
C350   C     0.63203   0.34081   0.72258   0.00000  Uiso   1.00
C351   C     0.65186   0.40186   0.25000   0.00000  Uiso   1.00
C352   C     0.84802   0.09802   0.75000   0.00000  Uiso   1.00
C353   C     0.90185   0.34815   0.25000   0.00000  Uiso   1.00
C354   C     0.59818   0.15182   0.75000   0.00000  Uiso   1.00
C355   C     0.84814   0.09814   0.25000   0.00000  Uiso   1.00
C356   C     0.50000   0.25000   0.52665   0.00000  Uiso   1.00
C357   C     0.65198   0.40198   0.75000   0.00000  Uiso   1.00
C358   C     0.59815   0.15185   0.25000   0.00000  Uiso   1.00
C359   C     0.90182   0.34818   0.75000   0.00000  Uiso   1.00
C360   C     0.65200   0.09800   0.75000   0.00000  Uiso   1.00
C361   C     0.84804   0.40196   0.25000   0.00000  Uiso   1.00
C362   C     0.90184   0.15184   0.75000   0.00000  Uiso   1.00
C363   C     0.59803   0.34803   0.25000   0.00000  Uiso   1.00
C364   C     0.84800   0.40200   0.75000   0.00000  Uiso   1.00
C365   C     0.65196   0.09804   0.25000   0.00000  Uiso   1.00
C366   C     0.59816   0.34816   0.75000   0.00000  Uiso   1.00
C367   C     0.50000   0.25000   0.47335   0.00000  Uiso   1.00
C368   C     0.90197   0.15197   0.25000   0.00000  Uiso   1.00
C369   C     0.64109   0.30264   0.30063   0.00000  Uiso   1.00
C370   C     0.94631   0.11192   0.80604   0.00000  Uiso   1.00
C371   C     0.80259   0.35882   0.30044   0.00000  Uiso   1.00
C372   C     0.60844   0.05212   0.79838   0.00000  Uiso   1.00
C373   C     0.85891   0.19736   0.30063   0.00000  Uiso   1.00
C374   C     0.55370   0.38808   0.80606   0.00000  Uiso   1.00
C375   C     0.69741   0.14117   0.30044   0.00000  Uiso   1.00
C376   C     0.89156   0.44788   0.79838   0.00000  Uiso   1.00
C377   C     0.55052   0.10842   0.79051   0.00000  Uiso   1.00
C378   C     0.50000   0.25000   0.41010   0.00000  Uiso   1.00
C379   C     0.85917   0.30103   0.29411   0.00000  Uiso   1.00
C380   C     0.88882   0.05480   0.80972   0.00000  Uiso   1.00
C381   C     0.69891   0.35926   0.29435   0.00000  Uiso   1.00
C382   C     0.94948   0.39158   0.79050   0.00000  Uiso   1.00
C383   C     0.64083   0.19897   0.29411   0.00000  Uiso   1.00
C384   C     0.61118   0.44520   0.80973   0.00000  Uiso   1.00
C385   C     0.80109   0.14074   0.29435   0.00000  Uiso   1.00
C386   C     0.80480   0.13882   0.69028   0.00000  Uiso   1.00
C387   C     0.60926   0.44891   0.20565   0.00000  Uiso   1.00
C388   C     0.64158   0.19948   0.70950   0.00000  Uiso   1.00
H389   H     0.65036   0.30621   0.34735   0.00000  Uiso   1.00
H390   H     0.58753   0.03807   0.77090   0.00000  Uiso   1.00
H391   H     0.63228   0.03372   0.80147   0.00000  Uiso   1.00
H392   H     0.59833   0.05533   0.84470   0.00000  Uiso   1.00
H393   H     0.84964   0.19379   0.34735   0.00000  Uiso   1.00
H394   H     0.88266   0.21597   0.30281   0.00000  Uiso   1.00
H395   H     0.83742   0.21140   0.27439   0.00000  Uiso   1.00
H396   H     0.55012   0.41496   0.82757   0.00000  Uiso   1.00
H397   H     0.53221   0.38584   0.77153   0.00000  Uiso   1.00
H398   H     0.54887   0.36702   0.84075   0.00000  Uiso   1.00
H399   H     0.69387   0.15050   0.34713   0.00000  Uiso   1.00
H400   H     0.61734   0.28403   0.30281   0.00000  Uiso   1.00
H401   H     0.71600   0.11743   0.30267   0.00000  Uiso   1.00
H402   H     0.71145   0.16264   0.27410   0.00000  Uiso   1.00
H403   H     0.91247   0.46193   0.77089   0.00000  Uiso   1.00
H404   H     0.86773   0.46628   0.80147   0.00000  Uiso   1.00
H405   H     0.90167   0.44467   0.84470   0.00000  Uiso   1.00
H406   H     0.54607   0.08066   0.80830   0.00000  Uiso   1.00
H407   H     0.54249   0.12786   0.82610   0.00000  Uiso   1.00
H408   H     0.53177   0.11147   0.75208   0.00000  Uiso   1.00
H409   H     0.83148   0.29671   0.31232   0.00000  Uiso   1.00
H410   H     0.86237   0.28134   0.25695   0.00000  Uiso   1.00
H411   H     0.66258   0.28860   0.27439   0.00000  Uiso   1.00
H412   H     0.87876   0.29403   0.33006   0.00000  Uiso   1.00
H413   H     0.91180   0.04029   0.78786   0.00000  Uiso   1.00
H414   H     0.89549   0.05995   0.85721   0.00000  Uiso   1.00
H415   H     0.86527   0.03589   0.80982   0.00000  Uiso   1.00
H416   H     0.70320   0.33160   0.31266   0.00000  Uiso   1.00
H417   H     0.71865   0.36244   0.25724   0.00000  Uiso   1.00
H418   H     0.70590   0.37890   0.33026   0.00000  Uiso   1.00
H419   H     0.95393   0.41934   0.80829   0.00000  Uiso   1.00
H420   H     0.95751   0.37214   0.82610   0.00000  Uiso   1.00
H421   H     0.96823   0.38853   0.75207   0.00000  Uiso   1.00
H422   H     0.94988   0.08503   0.82755   0.00000  Uiso   1.00
H423   H     0.66852   0.20329   0.31232   0.00000  Uiso   1.00
H424   H     0.63763   0.21866   0.25696   0.00000  Uiso   1.00
H425   H     0.62124   0.20597   0.33006   0.00000  Uiso   1.00
H426   H     0.58820   0.45971   0.78788   0.00000  Uiso   1.00
H427   H     0.60451   0.44004   0.85723   0.00000  Uiso   1.00
H428   H     0.63473   0.46411   0.80983   0.00000  Uiso   1.00
H429   H     0.79680   0.16840   0.31266   0.00000  Uiso   1.00
H430   H     0.78135   0.13756   0.25724   0.00000  Uiso   1.00
H431   H     0.79410   0.12110   0.33026   0.00000  Uiso   1.00
H432   H     0.79029   0.16180   0.71214   0.00000  Uiso   1.00
H433   H     0.96779   0.11415   0.77150   0.00000  Uiso   1.00
H434   H     0.80995   0.14549   0.64279   0.00000  Uiso   1.00
H435   H     0.78589   0.11527   0.69018   0.00000  Uiso   1.00
H436   H     0.58160   0.45320   0.18734   0.00000  Uiso   1.00
H437   H     0.61244   0.46865   0.24276   0.00000  Uiso   1.00
H438   H     0.62890   0.45590   0.16974   0.00000  Uiso   1.00
H439   H     0.66934   0.20393   0.69170   0.00000  Uiso   1.00
H440   H     0.62214   0.20751   0.67390   0.00000  Uiso   1.00
H441   H     0.63853   0.21823   0.74792   0.00000  Uiso   1.00
H442   H     0.95329   0.41852   0.18768   0.00000  Uiso   1.00
H443   H     0.96866   0.38763   0.24305   0.00000  Uiso   1.00
H444   H     0.95114   0.13298   0.84073   0.00000  Uiso   1.00
H445   H     0.95597   0.37124   0.16994   0.00000  Uiso   1.00
H446   H     0.70971   0.33820   0.71212   0.00000  Uiso   1.00
H447   H     0.69004   0.35451   0.64277   0.00000  Uiso   1.00
H448   H     0.71411   0.38473   0.69017   0.00000  Uiso   1.00
H449   H     0.91840   0.04680   0.18734   0.00000  Uiso   1.00
H450   H     0.88756   0.03135   0.24277   0.00000  Uiso   1.00
H451   H     0.87110   0.04410   0.16974   0.00000  Uiso   1.00
H452   H     0.83066   0.29607   0.69171   0.00000  Uiso   1.00
H453   H     0.87786   0.29249   0.67390   0.00000  Uiso   1.00
H454   H     0.86147   0.28177   0.74793   0.00000  Uiso   1.00
H455   H     0.80613   0.34950   0.34713   0.00000  Uiso   1.00
H456   H     0.54671   0.08148   0.18768   0.00000  Uiso   1.00
H457   H     0.53134   0.11237   0.24305   0.00000  Uiso   1.00
H458   H     0.54403   0.12876   0.16994   0.00000  Uiso   1.00
H459   H     0.90050   0.44387   0.15287   0.00000  Uiso   1.00
H460   H     0.86744   0.46600   0.19733   0.00000  Uiso   1.00
H461   H     0.91264   0.46145   0.22590   0.00000  Uiso   1.00
H462   H     0.71193   0.16247   0.72911   0.00000  Uiso   1.00
H463   H     0.71628   0.11772   0.69853   0.00000  Uiso   1.00
H464   H     0.69467   0.15167   0.65530   0.00000  Uiso   1.00
H465   H     0.55621   0.40036   0.15265   0.00000  Uiso   1.00
H466   H     0.78400   0.38256   0.30267   0.00000  Uiso   1.00
H467   H     0.53403   0.36734   0.19719   0.00000  Uiso   1.00
H468   H     0.53860   0.41258   0.22562   0.00000  Uiso   1.00
H469   H     0.83503   0.19988   0.67245   0.00000  Uiso   1.00
H470   H     0.86416   0.21779   0.72850   0.00000  Uiso   1.00
H471   H     0.88298   0.20114   0.65927   0.00000  Uiso   1.00
H472   H     0.59950   0.05613   0.15287   0.00000  Uiso   1.00
H473   H     0.63257   0.03400   0.19733   0.00000  Uiso   1.00
H474   H     0.58736   0.03855   0.22590   0.00000  Uiso   1.00
H475   H     0.78807   0.33753   0.72911   0.00000  Uiso   1.00
H476   H     0.78372   0.38227   0.69853   0.00000  Uiso   1.00
H477   H     0.78855   0.33736   0.27410   0.00000  Uiso   1.00
H478   H     0.80533   0.34833   0.65530   0.00000  Uiso   1.00
H479   H     0.94379   0.09964   0.15265   0.00000  Uiso   1.00
H480   H     0.96597   0.13266   0.19719   0.00000  Uiso   1.00
H481   H     0.96140   0.08742   0.22562   0.00000  Uiso   1.00
H482   H     0.66496   0.30012   0.67243   0.00000  Uiso   1.00
H483   H     0.63584   0.28221   0.72847   0.00000  Uiso   1.00
H484   H     0.61702   0.29887   0.65925   0.00000  Uiso   1.00
O485   O     0.50000   0.25000   0.25000   0.00000  Uiso   1.00
O486   O     0.50000   0.28035   0.61781   0.00000  Uiso   1.00
O487   O     0.71965  -0.00000   0.38219   0.00000  Uiso   1.00
O488   O     0.78036  -0.00000   0.61781   0.00000  Uiso   1.00
O489   O     0.75000   0.03035   0.88219   0.00000  Uiso   1.00
O490   O     0.75000   0.46964   0.11781   0.00000  Uiso   1.00
O491   O     0.53036   0.25000   0.88219   0.00000  Uiso   1.00
O492   O     0.96965   0.25000   0.11781   0.00000  Uiso   1.00
O493   O     0.75000   0.46964   0.88219   0.00000  Uiso   1.00
O494   O     0.75000   0.03035   0.11781   0.00000  Uiso   1.00
O495   O     0.96965   0.25000   0.88219   0.00000  Uiso   1.00
O496   O     0.50000   0.25000   0.75000   0.00000  Uiso   1.00
O497   O     0.53036   0.25000   0.11781   0.00000  Uiso   1.00
O498   O     0.54268   0.17692   0.28474   0.00000  Uiso   1.00
O499   O     0.95733   0.32307   0.71526   0.00000  Uiso   1.00
O500   O     0.67693   0.45732   0.28474   0.00000  Uiso   1.00
O501   O     0.82308   0.04267   0.71526   0.00000  Uiso   1.00
O502   O     0.95733   0.32307   0.28474   0.00000  Uiso   1.00
O503   O     0.54268   0.17692   0.71526   0.00000  Uiso   1.00
O504   O     0.82308   0.04267   0.28474   0.00000  Uiso   1.00
O505   O     0.67693   0.45732   0.71526   0.00000  Uiso   1.00
O506   O     0.54268   0.32307   0.71526   0.00000  Uiso   1.00
O507   O     0.75000  -0.00000   0.25000   0.00000  Uiso   1.00
O508   O     0.95733   0.17692   0.28474   0.00000  Uiso   1.00
O509   O     0.67693   0.04267   0.71526   0.00000  Uiso   1.00
O510   O     0.82308   0.45732   0.28474   0.00000  Uiso   1.00
O511   O     0.95733   0.17692   0.71526   0.00000  Uiso   1.00
O512   O     0.54268   0.32307   0.28474   0.00000  Uiso   1.00
O513   O     0.82308   0.45732   0.71526   0.00000  Uiso   1.00
O514   O     0.67693   0.04267   0.28474   0.00000  Uiso   1.00
O515   O     0.79268   0.42692   0.78474   0.00000  Uiso   1.00
O516   O     0.70733   0.07307   0.21526   0.00000  Uiso   1.00
O517   O     0.92693   0.20732   0.78474   0.00000  Uiso   1.00
O518   O     0.75000  -0.00000   0.75000   0.00000  Uiso   1.00
O519   O     0.57308   0.29267   0.21526   0.00000  Uiso   1.00
O520   O     0.70733   0.07307   0.78474   0.00000  Uiso   1.00
O521   O     0.79268   0.42692   0.21526   0.00000  Uiso   1.00
O522   O     0.57308   0.29267   0.78474   0.00000  Uiso   1.00
O523   O     0.92693   0.20732   0.21526   0.00000  Uiso   1.00
O524   O     0.79268   0.07307   0.21526   0.00000  Uiso   1.00
O525   O     0.70733   0.42692   0.78474   0.00000  Uiso   1.00
O526   O     0.92693   0.29267   0.21526   0.00000  Uiso   1.00
O527   O     0.57308   0.20732   0.78474   0.00000  Uiso   1.00
O528   O     0.70733   0.42692   0.21526   0.00000  Uiso   1.00
O529   O     0.50000   0.28035   0.38219   0.00000  Uiso   1.00
O530   O     0.79268   0.07307   0.78474   0.00000  Uiso   1.00
O531   O     0.57308   0.20732   0.21526   0.00000  Uiso   1.00
O532   O     0.92693   0.29267   0.78474   0.00000  Uiso   1.00
O533   O     0.50000   0.21964   0.61781   0.00000  Uiso   1.00
O534   O     0.78036  -0.00000   0.38219   0.00000  Uiso   1.00
O535   O     0.71965  -0.00000   0.61781   0.00000  Uiso   1.00
O536   O     0.50000   0.21964   0.38219   0.00000  Uiso   1.00
Zn537  Zn    0.54333   0.25000   0.20067   0.00000  Uiso   1.00
Zn538  Zn    0.70667  -0.00000   0.29933   0.00000  Uiso   1.00
Zn539  Zn    0.50000   0.20667   0.70067   0.00000  Uiso   1.00
Zn540  Zn    0.50000   0.29333   0.29933   0.00000  Uiso   1.00
Zn541  Zn    0.70667  -0.00000   0.70067   0.00000  Uiso   1.00
Zn542  Zn    0.79333  -0.00000   0.29933   0.00000  Uiso   1.00
Zn543  Zn    0.50000   0.29333   0.70067   0.00000  Uiso   1.00
Zn544  Zn    0.50000   0.20667   0.29933   0.00000  Uiso   1.00
Zn545  Zn    0.95667   0.25000   0.79933   0.00000  Uiso   1.00
Zn546  Zn    0.75000   0.45667   0.20067   0.00000  Uiso   1.00
Zn547  Zn    0.75000   0.04333   0.79933   0.00000  Uiso   1.00
Zn548  Zn    0.95667   0.25000   0.20067   0.00000  Uiso   1.00
Zn549  Zn    0.54333   0.25000   0.79933   0.00000  Uiso   1.00
Zn550  Zn    0.75000   0.04333   0.20067   0.00000  Uiso   1.00
Zn551  Zn    0.75000   0.45667   0.79933   0.00000  Uiso   1.00
Zn552  Zn    0.79333  -0.00000   0.70067   0.00000  Uiso   1.00
C553   C     0.00000   0.75000   0.02665   0.00000  Uiso   1.00
C554   C     0.00000   0.75000   0.58990   0.00000  Uiso   1.00
C555   C     0.44897   0.89083   0.20589   0.00000  Uiso   1.00
C556   C     0.19520   0.86118   0.69027   0.00000  Uiso   1.00
C557   C     0.39074   0.55109   0.20565   0.00000  Uiso   1.00
C558   C     0.35842   0.80052   0.70950   0.00000  Uiso   1.00
C559   C     0.05103   0.60917   0.20589   0.00000  Uiso   1.00
C560   C     0.39118   0.94741   0.19956   0.00000  Uiso   1.00
C561   C     0.19788   0.64156   0.70162   0.00000  Uiso   1.00
C562   C     0.05264   0.89109   0.19937   0.00000  Uiso   1.00
C563   C     0.36192   0.69631   0.69396   0.00000  Uiso   1.00
C564   C     0.10882   0.55259   0.19956   0.00000  Uiso   1.00
C565   C     0.25000   0.50000   0.41010   0.00000  Uiso   1.00
C566   C     0.30212   0.85844   0.70162   0.00000  Uiso   1.00
C567   C     0.44736   0.60891   0.19937   0.00000  Uiso   1.00
C568   C     0.13808   0.80370   0.69394   0.00000  Uiso   1.00
C569   C     0.25000   0.50000   0.58990   0.00000  Uiso   1.00
C570   C     0.25000   0.50000   0.91010   0.00000  Uiso   1.00
C571   C     0.25000   0.50000   0.08990   0.00000  Uiso   1.00
C572   C     0.00000   0.75000   0.91010   0.00000  Uiso   1.00
C573   C     0.00000   0.75000   0.08990   0.00000  Uiso   1.00
C574   C     0.06999   0.68001   0.25000   0.00000  Uiso   1.00
C575   C     0.42999   0.82001   0.75000   0.00000  Uiso   1.00
C576   C     0.18001   0.93001   0.25000   0.00000  Uiso   1.00
C577   C     0.00000   0.75000   0.97335   0.00000  Uiso   1.00
C578   C     0.31996   0.56996   0.75000   0.00000  Uiso   1.00
C579   C     0.43001   0.81999   0.25000   0.00000  Uiso   1.00
C580   C     0.07001   0.67999   0.75000   0.00000  Uiso   1.00
C581   C     0.31999   0.56999   0.25000   0.00000  Uiso   1.00
C582   C     0.18004   0.93004   0.75000   0.00000  Uiso   1.00
C583   C     0.06999   0.81999   0.75000   0.00000  Uiso   1.00
C584   C     0.43003   0.68003   0.25000   0.00000  Uiso   1.00
C585   C     0.18004   0.56996   0.75000   0.00000  Uiso   1.00
C586   C     0.31997   0.93003   0.25000   0.00000  Uiso   1.00
C587   C     0.43001   0.68001   0.75000   0.00000  Uiso   1.00
C588   C     0.25000   0.50000   0.02665   0.00000  Uiso   1.00
C589   C     0.06997   0.81997   0.25000   0.00000  Uiso   1.00
C590   C     0.31996   0.93004   0.75000   0.00000  Uiso   1.00
C591   C     0.18003   0.56997   0.25000   0.00000  Uiso   1.00
C592   C     0.13301   0.83974   0.27323   0.00000  Uiso   1.00
C593   C     0.40919   0.61797   0.77741   0.00000  Uiso   1.00
C594   C     0.33971   0.86695   0.27312   0.00000  Uiso   1.00
C595   C     0.11678   0.58945   0.77198   0.00000  Uiso   1.00
C596   C     0.36699   0.66026   0.27323   0.00000  Uiso   1.00
C597   C     0.09081   0.88203   0.77742   0.00000  Uiso   1.00
C598   C     0.16029   0.63305   0.27312   0.00000  Uiso   1.00
C599   C     0.25000   0.50000   0.97335   0.00000  Uiso   1.00
C600   C     0.38322   0.91055   0.77198   0.00000  Uiso   1.00
C601   C     0.08933   0.61639   0.77025   0.00000  Uiso   1.00
C602   C     0.36670   0.83952   0.27169   0.00000  Uiso   1.00
C603   C     0.38185   0.59085   0.77815   0.00000  Uiso   1.00
C604   C     0.16045   0.86674   0.27181   0.00000  Uiso   1.00
C605   C     0.41067   0.88361   0.77025   0.00000  Uiso   1.00
C606   C     0.13330   0.66048   0.27169   0.00000  Uiso   1.00
C607   C     0.11815   0.90915   0.77816   0.00000  Uiso   1.00
C608   C     0.33955   0.63326   0.27181   0.00000  Uiso   1.00
C609   C     0.34085   0.63185   0.72185   0.00000  Uiso   1.00
C610   C     0.25000   0.50000   0.52665   0.00000  Uiso   1.00
C611   C     0.11674   0.91045   0.22819   0.00000  Uiso   1.00
C612   C     0.13361   0.66067   0.72975   0.00000  Uiso   1.00
C613   C     0.41048   0.88330   0.22831   0.00000  Uiso   1.00
C614   C     0.15915   0.86815   0.72184   0.00000  Uiso   1.00
C615   C     0.38326   0.58955   0.22819   0.00000  Uiso   1.00
C616   C     0.36639   0.83933   0.72975   0.00000  Uiso   1.00
C617   C     0.08952   0.61670   0.22831   0.00000  Uiso   1.00
C618   C     0.38305   0.91029   0.22688   0.00000  Uiso   1.00
C619   C     0.16055   0.63322   0.72802   0.00000  Uiso   1.00
C620   C     0.08974   0.88301   0.22678   0.00000  Uiso   1.00
C621   C     0.25000   0.50000   0.47335   0.00000  Uiso   1.00
C622   C     0.36797   0.65919   0.72259   0.00000  Uiso   1.00
C623   C     0.11695   0.58971   0.22688   0.00000  Uiso   1.00
C624   C     0.33945   0.86678   0.72803   0.00000  Uiso   1.00
C625   C     0.41026   0.61699   0.22678   0.00000  Uiso   1.00
C626   C     0.13203   0.84081   0.72258   0.00000  Uiso   1.00
C627   C     0.15186   0.90186   0.25000   0.00000  Uiso   1.00
C628   C     0.34802   0.59802   0.75000   0.00000  Uiso   1.00
C629   C     0.40185   0.84815   0.25000   0.00000  Uiso   1.00
C630   C     0.09818   0.65182   0.75000   0.00000  Uiso   1.00
C631   C     0.34814   0.59814   0.25000   0.00000  Uiso   1.00
C632   C     0.00000   0.75000   0.52665   0.00000  Uiso   1.00
C633   C     0.15198   0.90198   0.75000   0.00000  Uiso   1.00
C634   C     0.09815   0.65185   0.25000   0.00000  Uiso   1.00
C635   C     0.40182   0.84818   0.75000   0.00000  Uiso   1.00
C636   C     0.15200   0.59800   0.75000   0.00000  Uiso   1.00
C637   C     0.34804   0.90196   0.25000   0.00000  Uiso   1.00
C638   C     0.40184   0.65184   0.75000   0.00000  Uiso   1.00
C639   C     0.09803   0.84803   0.25000   0.00000  Uiso   1.00
C640   C     0.34800   0.90200   0.75000   0.00000  Uiso   1.00
C641   C     0.15196   0.59804   0.25000   0.00000  Uiso   1.00
C642   C     0.09816   0.84816   0.75000   0.00000  Uiso   1.00
C643   C     0.00000   0.75000   0.47335   0.00000  Uiso   1.00
C644   C     0.40197   0.65197   0.25000   0.00000  Uiso   1.00
C645   C     0.14109   0.80264   0.30063   0.00000  Uiso   1.00
C646   C     0.44631   0.61192   0.80604   0.00000  Uiso   1.00
C647   C     0.30259   0.85882   0.30044   0.00000  Uiso   1.00
C648   C     0.10844   0.55212   0.79838   0.00000  Uiso   1.00
C649   C     0.35891   0.69736   0.30063   0.00000  Uiso   1.00
C650   C     0.05370   0.88808   0.80606   0.00000  Uiso   1.00
C651   C     0.19741   0.64117   0.30044   0.00000  Uiso   1.00
C652   C     0.39156   0.94788   0.79838   0.00000  Uiso   1.00
C653   C     0.05052   0.60842   0.79051   0.00000  Uiso   1.00
C654   C     0.00000   0.75000   0.41010   0.00000  Uiso   1.00
C655   C     0.35917   0.80103   0.29411   0.00000  Uiso   1.00
C656   C     0.38882   0.55480   0.80972   0.00000  Uiso   1.00
C657   C     0.19891   0.85926   0.29435   0.00000  Uiso   1.00
C658   C     0.44948   0.89158   0.79050   0.00000  Uiso   1.00
C659   C     0.14083   0.69897   0.29411   0.00000  Uiso   1.00
C660   C     0.11118   0.94520   0.80973   0.00000  Uiso   1.00
C661   C     0.30109   0.64074   0.29435   0.00000  Uiso   1.00
C662   C     0.30480   0.63882   0.69028   0.00000  Uiso   1.00
C663   C     0.10926   0.94891   0.20565   0.00000  Uiso   1.00
C664   C     0.14158   0.69948   0.70950   0.00000  Uiso   1.00
H665   H     0.15036   0.80621   0.34735   0.00000  Uiso   1.00
H666   H     0.08753   0.53807   0.77090   0.00000  Uiso   1.00
H667   H     0.13228   0.53372   0.80147   0.00000  Uiso   1.00
H668   H     0.09833   0.55533   0.84470   0.00000  Uiso   1.00
H669   H     0.34964   0.69379   0.34735   0.00000  Uiso   1.00
H670   H     0.38266   0.71597   0.30281   0.00000  Uiso   1.00
H671   H     0.33742   0.71140   0.27439   0.00000  Uiso   1.00
H672   H     0.05012   0.91496   0.82757   0.00000  Uiso   1.00
H673   H     0.03221   0.88584   0.77153   0.00000  Uiso   1.00
H674   H     0.04887   0.86702   0.84075   0.00000  Uiso   1.00
H675   H     0.19387   0.65050   0.34713   0.00000  Uiso   1.00
H676   H     0.11734   0.78403   0.30281   0.00000  Uiso   1.00
H677   H     0.21600   0.61743   0.30267   0.00000  Uiso   1.00
H678   H     0.21145   0.66264   0.27410   0.00000  Uiso   1.00
H679   H     0.41247   0.96193   0.77089   0.00000  Uiso   1.00
H680   H     0.36773   0.96628   0.80147   0.00000  Uiso   1.00
H681   H     0.40167   0.94467   0.84470   0.00000  Uiso   1.00
H682   H     0.04607   0.58066   0.80830   0.00000  Uiso   1.00
H683   H     0.04249   0.62786   0.82610   0.00000  Uiso   1.00
H684   H     0.03177   0.61147   0.75208   0.00000  Uiso   1.00
H685   H     0.33148   0.79671   0.31232   0.00000  Uiso   1.00
H686   H     0.36237   0.78134   0.25695   0.00000  Uiso   1.00
H687   H     0.16258   0.78860   0.27439   0.00000  Uiso   1.00
H688   H     0.37876   0.79403   0.33006   0.00000  Uiso   1.00
H689   H     0.41180   0.54029   0.78786   0.00000  Uiso   1.00
H690   H     0.39549   0.55995   0.85721   0.00000  Uiso   1.00
H691   H     0.36527   0.53589   0.80982   0.00000  Uiso   1.00
H692   H     0.20320   0.83160   0.31266   0.00000  Uiso   1.00
H693   H     0.21865   0.86244   0.25724   0.00000  Uiso   1.00
H694   H     0.20590   0.87890   0.33026   0.00000  Uiso   1.00
H695   H     0.45393   0.91934   0.80829   0.00000  Uiso   1.00
H696   H     0.45751   0.87214   0.82610   0.00000  Uiso   1.00
H697   H     0.46823   0.88853   0.75207   0.00000  Uiso   1.00
H698   H     0.44988   0.58503   0.82755   0.00000  Uiso   1.00
H699   H     0.16852   0.70329   0.31232   0.00000  Uiso   1.00
H700   H     0.13763   0.71866   0.25696   0.00000  Uiso   1.00
H701   H     0.12124   0.70597   0.33006   0.00000  Uiso   1.00
H702   H     0.08820   0.95971   0.78788   0.00000  Uiso   1.00
H703   H     0.10451   0.94004   0.85723   0.00000  Uiso   1.00
H704   H     0.13473   0.96411   0.80983   0.00000  Uiso   1.00
H705   H     0.29680   0.66840   0.31266   0.00000  Uiso   1.00
H706   H     0.28135   0.63756   0.25724   0.00000  Uiso   1.00
H707   H     0.29410   0.62110   0.33026   0.00000  Uiso   1.00
H708   H     0.29029   0.66180   0.71214   0.00000  Uiso   1.00
H709   H     0.46779   0.61415   0.77150   0.00000  Uiso   1.00
H710   H     0.30995   0.64549   0.64279   0.00000  Uiso   1.00
H711   H     0.28589   0.61527   0.69018   0.00000  Uiso   1.00
H712   H     0.08160   0.95320   0.18734   0.00000  Uiso   1.00
H713   H     0.11244   0.96865   0.24276   0.00000  Uiso   1.00
H714   H     0.12890   0.95590   0.16974   0.00000  Uiso   1.00
H715   H     0.16934   0.70393   0.69170   0.00000  Uiso   1.00
H716   H     0.12214   0.70751   0.67390   0.00000  Uiso   1.00
H717   H     0.13853   0.71823   0.74792   0.00000  Uiso   1.00
H718   H     0.45329   0.91852   0.18768   0.00000  Uiso   1.00
H719   H     0.46866   0.88763   0.24305   0.00000  Uiso   1.00
H720   H     0.45114   0.63298   0.84073   0.00000  Uiso   1.00
H721   H     0.45597   0.87124   0.16994   0.00000  Uiso   1.00
H722   H     0.20971   0.83820   0.71212   0.00000  Uiso   1.00
H723   H     0.19004   0.85451   0.64277   0.00000  Uiso   1.00
H724   H     0.21411   0.88473   0.69017   0.00000  Uiso   1.00
H725   H     0.41840   0.54680   0.18734   0.00000  Uiso   1.00
H726   H     0.38756   0.53135   0.24277   0.00000  Uiso   1.00
H727   H     0.37110   0.54410   0.16974   0.00000  Uiso   1.00
H728   H     0.33066   0.79607   0.69171   0.00000  Uiso   1.00
H729   H     0.37786   0.79249   0.67390   0.00000  Uiso   1.00
H730   H     0.36147   0.78177   0.74793   0.00000  Uiso   1.00
H731   H     0.30613   0.84950   0.34713   0.00000  Uiso   1.00
H732   H     0.04671   0.58148   0.18768   0.00000  Uiso   1.00
H733   H     0.03134   0.61237   0.24305   0.00000  Uiso   1.00
H734   H     0.04403   0.62876   0.16994   0.00000  Uiso   1.00
H735   H     0.40050   0.94387   0.15287   0.00000  Uiso   1.00
H736   H     0.36744   0.96600   0.19733   0.00000  Uiso   1.00
H737   H     0.41264   0.96145   0.22590   0.00000  Uiso   1.00
H738   H     0.21193   0.66247   0.72911   0.00000  Uiso   1.00
H739   H     0.21628   0.61772   0.69853   0.00000  Uiso   1.00
H740   H     0.19467   0.65167   0.65530   0.00000  Uiso   1.00
H741   H     0.05621   0.90036   0.15265   0.00000  Uiso   1.00
H742   H     0.28400   0.88256   0.30267   0.00000  Uiso   1.00
H743   H     0.03403   0.86734   0.19719   0.00000  Uiso   1.00
H744   H     0.03860   0.91258   0.22562   0.00000  Uiso   1.00
H745   H     0.33503   0.69988   0.67245   0.00000  Uiso   1.00
H746   H     0.36416   0.71779   0.72850   0.00000  Uiso   1.00
H747   H     0.38298   0.70114   0.65927   0.00000  Uiso   1.00
H748   H     0.09950   0.55613   0.15287   0.00000  Uiso   1.00
H749   H     0.13257   0.53400   0.19733   0.00000  Uiso   1.00
H750   H     0.08736   0.53855   0.22590   0.00000  Uiso   1.00
H751   H     0.28807   0.83753   0.72911   0.00000  Uiso   1.00
H752   H     0.28372   0.88227   0.69853   0.00000  Uiso   1.00
H753   H     0.28855   0.83736   0.27410   0.00000  Uiso   1.00
H754   H     0.30533   0.84833   0.65530   0.00000  Uiso   1.00
H755   H     0.44379   0.59964   0.15265   0.00000  Uiso   1.00
H756   H     0.46597   0.63266   0.19719   0.00000  Uiso   1.00
H757   H     0.46140   0.58742   0.22562   0.00000  Uiso   1.00
H758   H     0.16496   0.80012   0.67243   0.00000  Uiso   1.00
H759   H     0.13584   0.78221   0.72847   0.00000  Uiso   1.00
H760   H     0.11702   0.79887   0.65925   0.00000  Uiso   1.00
O761   O     0.00000   0.75000   0.25000   0.00000  Uiso   1.00
O762   O     0.00000   0.78035   0.61781   0.00000  Uiso   1.00
O763   O     0.21965   0.50000   0.38219   0.00000  Uiso   1.00
O764   O     0.28036   0.50000   0.61781   0.00000  Uiso   1.00
O765   O     0.25000   0.53035   0.88219   0.00000  Uiso   1.00
O766   O     0.25000   0.96964   0.11781   0.00000  Uiso   1.00
O767   O     0.03036   0.75000   0.88219   0.00000  Uiso   1.00
O768   O     0.46965   0.75000   0.11781   0.00000  Uiso   1.00
O769   O     0.25000   0.96964   0.88219   0.00000  Uiso   1.00
O770   O     0.25000   0.53035   0.11781   0.00000  Uiso   1.00
O771   O     0.46965   0.75000   0.88219   0.00000  Uiso   1.00
O772   O     0.00000   0.75000   0.75000   0.00000  Uiso   1.00
O773   O     0.03036   0.75000   0.11781   0.00000  Uiso   1.00
O774   O     0.04268   0.67692   0.28474   0.00000  Uiso   1.00
O775   O     0.45733   0.82307   0.71526   0.00000  Uiso   1.00
O776   O     0.17693   0.95732   0.28474   0.00000  Uiso   1.00
O777   O     0.32308   0.54267   0.71526   0.00000  Uiso   1.00
O778   O     0.45733   0.82307   0.28474   0.00000  Uiso   1.00
O779   O     0.04268   0.67692   0.71526   0.00000  Uiso   1.00
O780   O     0.32308   0.54267   0.28474   0.00000  Uiso   1.00
O781   O     0.17693   0.95732   0.71526   0.00000  Uiso   1.00
O782   O     0.04268   0.82307   0.71526   0.00000  Uiso   1.00
O783   O     0.25000   0.50000   0.25000   0.00000  Uiso   1.00
O784   O     0.45733   0.67692   0.28474   0.00000  Uiso   1.00
O785   O     0.17693   0.54267   0.71526   0.00000  Uiso   1.00
O786   O     0.32308   0.95732   0.28474   0.00000  Uiso   1.00
O787   O     0.45733   0.67692   0.71526   0.00000  Uiso   1.00
O788   O     0.04268   0.82307   0.28474   0.00000  Uiso   1.00
O789   O     0.32308   0.95732   0.71526   0.00000  Uiso   1.00
O790   O     0.17693   0.54267   0.28474   0.00000  Uiso   1.00
O791   O     0.29268   0.92692   0.78474   0.00000  Uiso   1.00
O792   O     0.20733   0.57307   0.21526   0.00000  Uiso   1.00
O793   O     0.42693   0.70732   0.78474   0.00000  Uiso   1.00
O794   O     0.25000   0.50000   0.75000   0.00000  Uiso   1.00
O795   O     0.07308   0.79267   0.21526   0.00000  Uiso   1.00
O796   O     0.20733   0.57307   0.78474   0.00000  Uiso   1.00
O797   O     0.29268   0.92692   0.21526   0.00000  Uiso   1.00
O798   O     0.07308   0.79267   0.78474   0.00000  Uiso   1.00
O799   O     0.42693   0.70732   0.21526   0.00000  Uiso   1.00
O800   O     0.29268   0.57307   0.21526   0.00000  Uiso   1.00
O801   O     0.20733   0.92692   0.78474   0.00000  Uiso   1.00
O802   O     0.42693   0.79267   0.21526   0.00000  Uiso   1.00
O803   O     0.07308   0.70732   0.78474   0.00000  Uiso   1.00
O804   O     0.20733   0.92692   0.21526   0.00000  Uiso   1.00
O805   O     0.00000   0.78035   0.38219   0.00000  Uiso   1.00
O806   O     0.29268   0.57307   0.78474   0.00000  Uiso   1.00
O807   O     0.07308   0.70732   0.21526   0.00000  Uiso   1.00
O808   O     0.42693   0.79267   0.78474   0.00000  Uiso   1.00
O809   O     0.00000   0.71964   0.61781   0.00000  Uiso   1.00
O810   O     0.28036   0.50000   0.38219   0.00000  Uiso   1.00
O811   O     0.21965   0.50000   0.61781   0.00000  Uiso   1.00
O812   O     0.00000   0.71964   0.38219   0.00000  Uiso   1.00
Zn813  Zn    0.04333   0.75000   0.20067   0.00000  Uiso   1.00
Zn814  Zn    0.20667   0.50000   0.29933   0.00000  Uiso   1.00
Zn815  Zn    0.00000   0.70667   0.70067   0.00000  Uiso   1.00
Zn816  Zn    0.00000   0.79333   0.29933   0.00000  Uiso   1.00
Zn817  Zn    0.20667   0.50000   0.70067   0.00000  Uiso   1.00
Zn818  Zn    0.29333   0.50000   0.29933   0.00000  Uiso   1.00
Zn819  Zn    0.00000   0.79333   0.70067   0.00000  Uiso   1.00
Zn820  Zn    0.00000   0.70667   0.29933   0.00000  Uiso   1.00
Zn821  Zn    0.45667   0.75000   0.79933   0.00000  Uiso   1.00
Zn822  Zn    0.25000   0.95667   0.20067   0.00000  Uiso   1.00
Zn823  Zn    0.25000   0.54333   0.79933   0.00000  Uiso   1.00
Zn824  Zn    0.45667   0.75000   0.20067   0.00000  Uiso   1.00
Zn825  Zn    0.04333   0.75000   0.79933   0.00000  Uiso   1.00
Zn826  Zn    0.25000   0.54333   0.20067   0.00000  Uiso   1.00
Zn827  Zn    0.25000   0.95667   0.79933   0.00000  Uiso   1.00
Zn828  Zn    0.29333   0.50000   0.70067   0.00000  Uiso   1.00
C829   C     0.50000   0.75000   0.02665   0.00000  Uiso   1.00
C830   C     0.50000   0.75000   0.58990   0.00000  Uiso   1.00
C831   C     0.94897   0.89083   0.20589   0.00000  Uiso   1.00
C832   C     0.69520   0.86118   0.69027   0.00000  Uiso   1.00
C833   C     0.89074   0.55109   0.20565   0.00000  Uiso   1.00
C834   C     0.85842   0.80052   0.70950   0.00000  Uiso   1.00
C835   C     0.55103   0.60917   0.20589   0.00000  Uiso   1.00
C836   C     0.89118   0.94741   0.19956   0.00000  Uiso   1.00
C837   C     0.69788   0.64156   0.70162   0.00000  Uiso   1.00
C838   C     0.55264   0.89109   0.19937   0.00000  Uiso   1.00
C839   C     0.86192   0.69631   0.69396   0.00000  Uiso   1.00
C840   C     0.60882   0.55259   0.19956   0.00000  Uiso   1.00
C841   C     0.75000   0.50000   0.41010   0.00000  Uiso   1.00
C842   C     0.80212   0.85844   0.70162   0.00000  Uiso   1.00
C843   C     0.94736   0.60891   0.19937   0.00000  Uiso   1.00
C844   C     0.63808   0.80370   0.69394   0.00000  Uiso   1.00
C845   C     0.75000   0.50000   0.58990   0.00000  Uiso   1.00
C846   C     0.75000   0.50000   0.91010   0.00000  Uiso   1.00
C847   C     0.75000   0.50000   0.08990   0.00000  Uiso   1.00
C848   C     0.50000   0.75000   0.91010   0.00000  Uiso   1.00
C849   C     0.50000   0.75000   0.08990   0.00000  Uiso   1.00
C850   C     0.56999   0.68001   0.25000   0.00000  Uiso   1.00
C851   C     0.92999   0.82001   0.75000   0.00000  Uiso   1.00
C852   C     0.68001   0.93001   0.25000   0.00000  Uiso   1.00
C853   C     0.50000   0.75000   0.97335   0.00000  Uiso   1.00
C854   C     0.81996   0.56996   0.75000   0.00000  Uiso   1.00
C855   C     0.93001   0.81999   0.25000   0.00000  Uiso   1.00
C856   C     0.57001   0.67999   0.75000   0.00000  Uiso   1.00
C857   C     0.81999   0.56999   0.25000   0.00000  Uiso   1.00
C858   C     0.68004   0.93004   0.75000   0.00000  Uiso   1.00
C859   C     0.56999   0.81999   0.75000   0.00000  Uiso   1.00
C860   C     0.93003   0.68003   0.25000   0.00000  Uiso   1.00
C861   C     0.68004   0.56996   0.75000   0.00000  Uiso   1.00
C862   C     0.81997   0.93003   0.25000   0.00000  Uiso   1.00
C863   C     0.93001   0.68001   0.75000   0.00000  Uiso   1.00
C864   C     0.75000   0.50000   0.02665   0.00000  Uiso   1.00
C865   C     0.56997   0.81997   0.25000   0.00000  Uiso   1.00
C866   C     0.81996   0.93004   0.75000   0.00000  Uiso   1.00
C867   C     0.68003   0.56997   0.25000   0.00000  Uiso   1.00
C868   C     0.63301   0.83974   0.27323   0.00000  Uiso   1.00
C869   C     0.90919   0.61797   0.77741   0.00000  Uiso   1.00
C870   C     0.83971   0.86695   0.27312   0.00000  Uiso   1.00
C871   C     0.61678   0.58945   0.77198   0.00000  Uiso   1.00
C872   C     0.86699   0.66026   0.27323   0.00000  Uiso   1.00
C873   C     0.59081   0.88203   0.77742   0.00000  Uiso   1.00
C874   C     0.66029   0.63305   0.27312   0.00000  Uiso   1.00
C875   C     0.75000   0.50000   0.97335   0.00000  Uiso   1.00
C876   C     0.88322   0.91055   0.77198   0.00000  Uiso   1.00
C877   C     0.58933   0.61639   0.77025   0.00000  Uiso   1.00
C878   C     0.86670   0.83952   0.27169   0.00000  Uiso   1.00
C879   C     0.88185   0.59085   0.77815   0.00000  Uiso   1.00
C880   C     0.66045   0.86674   0.27181   0.00000  Uiso   1.00
C881   C     0.91067   0.88361   0.77025   0.00000  Uiso   1.00
C882   C     0.63330   0.66048   0.27169   0.00000  Uiso   1.00
C883   C     0.61815   0.90915   0.77816   0.00000  Uiso   1.00
C884   C     0.83955   0.63326   0.27181   0.00000  Uiso   1.00
C885   C     0.84085   0.63185   0.72185   0.00000  Uiso   1.00
C886   C     0.75000   0.50000   0.52665   0.00000  Uiso   1.00
C887   C     0.61674   0.91045   0.22819   0.00000  Uiso   1.00
C888   C     0.63361   0.66067   0.72975   0.00000  Uiso   1.00
C889   C     0.91048   0.88330   0.22831   0.00000  Uiso   1.00
C890   C     0.65915   0.86815   0.72184   0.00000  Uiso   1.00
C891   C     0.88326   0.58955   0.22819   0.00000  Uiso   1.00
C892   C     0.86639   0.83933   0.72975   0.00000  Uiso   1.00
C893   C     0.58952   0.61670   0.22831   0.00000  Uiso   1.00
C894   C     0.88305   0.91029   0.22688   0.00000  Uiso   1.00
C895   C     0.66055   0.63322   0.72802   0.00000  Uiso   1.00
C896   C     0.58974   0.88301   0.22678   0.00000  Uiso   1.00
C897   C     0.75000   0.50000   0.47335   0.00000  Uiso   1.00
C898   C     0.86797   0.65919   0.72259   0.00000  Uiso   1.00
C899   C     0.61695   0.58971   0.22688   0.00000  Uiso   1.00
C900   C     0.83945   0.86678   0.72803   0.00000  Uiso   1.00
C901   C     0.91026   0.61699   0.22678   0.00000  Uiso   1.00
C902   C     0.63203   0.84081   0.72258   0.00000  Uiso   1.00
C903   C     0.65186   0.90186   0.25000   0.00000  Uiso   1.00
C904   C     0.84802   0.59802   0.75000   0.00000  Uiso   1.00
C905   C     0.90185   0.84815   0.25000   0.00000  Uiso   1.00
C906   C     0.59818   0.65182   0.75000   0.00000  Uiso   1.00
C907   C     0.84814   0.59814   0.25000   0.00000  Uiso   1.00
C908   C     0.50000   0.75000   0.52665   0.00000  Uiso   1.00
C909   C     0.65198   0.90198   0.75000   0.00000  Uiso   1.00
C910   C     0.59815   0.65185   0.25000   0.00000  Uiso   1.00
C911   C     0.90182   0.84818   0.75000   0.00000  Uiso   1.00
C912   C     0.65200   0.59800   0.75000   0.00000  Uiso   1.00
C913   C     0.84804   0.90196   0.25000   0.00000  Uiso   1.00
C914   C     0.90184   0.65184   0.75000   0.00000  Uiso   1.00
C915   C     0.59803   0.84803   0.25000   0.00000  Uiso   1.00
C916   C     0.84800   0.90200   0.75000   0.00000  Uiso   1.00
C917   C     0.65196   0.59804   0.25000   0.00000  Uiso   1.00
C918   C     0.59816   0.84816   0.75000   0.00000  Uiso   1.00
C919   C     0.50000   0.75000   0.47335   0.00000  Uiso   1.00
C920   C     0.90197   0.65197   0.25000   0.00000  Uiso   1.00
C921   C     0.64109   0.80264   0.30063   0.00000  Uiso   1.00
C922   C     0.94631   0.61192   0.80604   0.00000  Uiso   1.00
C923   C     0.80259   0.85882   0.30044   0.00000  Uiso   1.00
C924   C     0.60844   0.55212   0.79838   0.00000  Uiso   1.00
C925   C     0.85891   0.69736   0.30063   0.00000  Uiso   1.00
C926   C     0.55370   0.88808   0.80606   0.00000  Uiso   1.00
C927   C     0.69741   0.64117   0.30044   0.00000  Uiso   1.00
C928   C     0.89156   0.94788   0.79838   0.00000  Uiso   1.00
C929   C     0.55052   0.60842   0.79051   0.00000  Uiso   1.00
C930   C     0.50000   0.75000   0.41010   0.00000  Uiso   1.00
C931   C     0.85917   0.80103   0.29411   0.00000  Uiso   1.00
C932   C     0.88882   0.55480   0.80972   0.00000  Uiso   1.00
C933   C     0.69891   0.85926   0.29435   0.00000  Uiso   1.00
C934   C     0.94948   0.89158   0.79050   0.00000  Uiso   1.00
C935   C     0.64083   0.69897   0.29411   0.00000  Uiso   1.00
C936   C     0.61118   0.94520   0.80973   0.00000  Uiso   1.00
C937   C     0.80109   0.64074   0.29435   0.00000  Uiso   1.00
C938   C     0.80480   0.63882   0.69028   0.00000  Uiso   1.00
C939   C     0.60926   0.94891   0.20565   0.00000  Uiso   1.00
C940   C     0.64158   0.69948   0.70950   0.00000  Uiso   1.00
H941   H     0.65036   0.80621   0.34735   0.00000  Uiso   1.00
H942   H     0.58753   0.53807   0.77090   0.00000  Uiso   1.00
H943   H     0.63228   0.53372   0.80147   0.00000  Uiso   1.00
H944   H     0.59833   0.55533   0.84470   0.00000  Uiso   1.00
H945   H     0.84964   0.69379   0.34735   0.00000  Uiso   1.00
H946   H     0.88266   0.71597   0.30281   0.00000  Uiso   1.00
H947   H     0.83742   0.71140   0.27439   0.00000  Uiso   1.00
H948   H     0.55012   0.91496   0.82757   0.00000  Uiso   1.00
H949   H     0.53221   0.88584   0.77153   0.00000  Uiso   1.00
H950   H     0.54887   0.86702   0.84075   0.00000  Uiso   1.00
H951   H     0.69387   0.65050   0.34713   0.00000  Uiso   1.00
H952   H     0.61734   0.78403   0.30281   0.00000  Uiso   1.00
H953   H     0.71600   0.61743   0.30267   0.00000  Uiso   1.00
H954   H     0.71145   0.66264   0.27410   0.00000  Uiso   1.00
H955   H     0.91247   0.96193   0.77089   0.00000  Uiso   1.00
H956   H     0.86773   0.96628   0.80147   0.00000  Uiso   1.00
H957   H     0.90167   0.94467   0.84470   0.00000  Uiso   1.00
H958   H     0.54607   0.58066   0.80830   0.00000  Uiso   1.00
H959   H     0.54249   0.62786   0.82610   0.00000  Uiso   1.00
H960   H     0.53177   0.61147   0.75208   0.00000  Uiso   1.00
H961   H     0.83148   0.79671   0.31232   0.00000  Uiso   1.00
H962   H     0.86237   0.78134   0.25695   0.00000  Uiso   1.00
H963   H     0.66258   0.78860   0.27439   0.00000  Uiso   1.00
H964   H     0.87876   0.79403   0.33006   0.00000  Uiso   1.00
H965   H     0.91180   0.54029   0.78786   0.00000  Uiso   1.00
H966   H     0.89549   0.55995   0.85721   0.00000  Uiso   1.00
H967   H     0.86527   0.53589   0.80982   0.00000  Uiso   1.00
H968   H     0.70320   0.83160   0.31266   0.00000  Uiso   1.00
H969   H     0.71865   0.86244   0.25724   0.00000  Uiso   1.00
H970   H     0.70590   0.87890   0.33026   0.00000  Uiso   1.00
H971   H     0.95393   0.91934   0.80829   0.00000  Uiso   1.00
H972   H     0.95751   0.87214   0.82610   0.00000  Uiso   1.00
H973   H     0.96823   0.88853   0.75207   0.00000  Uiso   1.00
H974   H     0.94988   0.58503   0.82755   0.00000  Uiso   1.00
H975   H     0.66852   0.70329   0.31232   0.00000  Uiso   1.00
H976   H     0.63763   0.71866   0.25696   0.00000  Uiso   1.00
H977   H     0.62124   0.70597   0.33006   0.00000  Uiso   1.00
H978   H     0.58820   0.95971   0.78788   0.00000  Uiso   1.00
H979   H     0.60451   0.94004   0.85723   0.00000  Uiso   1.00
H980   H     0.63473   0.96411   0.80983   0.00000  Uiso   1.00
H981   H     0.79680   0.66840   0.31266   0.00000  Uiso   1.00
H982   H     0.78135   0.63756   0.25724   0.00000  Uiso   1.00
H983   H     0.79410   0.62110   0.33026   0.00000  Uiso   1.00
H984   H     0.79029   0.66180   0.71214   0.00000  Uiso   1.00
H985   H     0.96779   0.61415   0.77150   0.00000  Uiso   1.00
H986   H     0.80995   0.64549   0.64279   0.00000  Uiso   1.00
H987   H     0.78589   0.61527   0.69018   0.00000  Uiso   1.00
H988   H     0.58160   0.95320   0.18734   0.00000  Uiso   1.00
H989   H     0.61244   0.96865   0.24276   0.00000  Uiso   1.00
H990   H     0.62890   0.95590   0.16974   0.00000  Uiso   1.00
H991   H     0.66934   0.70393   0.69170   0.00000  Uiso   1.00
H992   H     0.62214   0.70751   0.67390   0.00000  Uiso   1.00
H993   H     0.63853   0.71823   0.74792   0.00000  Uiso   1.00
H994   H     0.95329   0.91852   0.18768   0.00000  Uiso   1.00
H995   H     0.96866   0.88763   0.24305   0.00000  Uiso   1.00
H996   H     0.95114   0.63298   0.84073   0.00000  Uiso   1.00
H997   H     0.95597   0.87124   0.16994   0.00000  Uiso   1.00
H998   H     0.70971   0.83820   0.71212   0.00000  Uiso   1.00
H999   H     0.69004   0.85451   0.64277   0.00000  Uiso   1.00
H1000  H     0.71411   0.88473   0.69017   0.00000  Uiso   1.00
H1001  H     0.91840   0.54680   0.18734   0.00000  Uiso   1.00
H1002  H     0.88756   0.53135   0.24277   0.00000  Uiso   1.00
H1003  H     0.87110   0.54410   0.16974   0.00000  Uiso   1.00
H1004  H     0.83066   0.79607   0.69171   0.00000  Uiso   1.00
H1005  H     0.87786   0.79249   0.67390   0.00000  Uiso   1.00
H1006  H     0.86147   0.78177   0.74793   0.00000  Uiso   1.00
H1007  H     0.80613   0.84950   0.34713   0.00000  Uiso   1.00
H1008  H     0.54671   0.58148   0.18768   0.00000  Uiso   1.00
H1009  H     0.53134   0.61237   0.24305   0.00000  Uiso   1.00
H1010  H     0.54403   0.62876   0.16994   0.00000  Uiso   1.00
H1011  H     0.90050   0.94387   0.15287   0.00000  Uiso   1.00
H1012  H     0.86744   0.96600   0.19733   0.00000  Uiso   1.00
H1013  H     0.91264   0.96145   0.22590   0.00000  Uiso   1.00
H1014  H     0.71193   0.66247   0.72911   0.00000  Uiso   1.00
H1015  H     0.71628   0.61772   0.69853   0.00000  Uiso   1.00
H1016  H     0.69467   0.65167   0.65530   0.00000  Uiso   1.00
H1017  H     0.55621   0.90036   0.15265   0.00000  Uiso   1.00
H1018  H     0.78400   0.88256   0.30267   0.00000  Uiso   1.00
H1019  H     0.53403   0.86734   0.19719   0.00000  Uiso   1.00
H1020  H     0.53860   0.91258   0.22562   0.00000  Uiso   1.00
H1021  H     0.83503   0.69988   0.67245   0.00000  Uiso   1.00
H1022  H     0.86416   0.71779   0.72850   0.00000  Uiso   1.00
H1023  H     0.88298   0.70114   0.65927   0.00000  Uiso   1.00
H1024  H     0.59950   0.55613   0.15287   0.00000  Uiso   1.00
H1025  H     0.63257   0.53400   0.19733   0.00000  Uiso   1.00
H1026  H     0.58736   0.53855   0.22590   0.00000  Uiso   1.00
H1027  H     0.78807   0.83753   0.72911   0.00000  Uiso   1.00
H1028  H     0.78372   0.88227   0.69853   0.00000  Uiso   1.00
H1029  H     0.78855   0.83736   0.27410   0.00000  Uiso   1.00
H1030  H     0.80533   0.84833   0.65530   0.00000  Uiso   1.00
H1031  H     0.94379   0.59964   0.15265   0.00000  Uiso   1.00
H1032  H     0.96597   0.63266   0.19719   0.00000  Uiso   1.00
H1033  H     0.96140   0.58742   0.22562   0.00000  Uiso   1.00
H1034  H     0.66496   0.80012   0.67243   0.00000  Uiso   1.00
H1035  H     0.63584   0.78221   0.72847   0.00000  Uiso   1.00
H1036  H     0.61702   0.79887   0.65925   0.00000  Uiso   1.00
O1037  O     0.50000   0.75000   0.25000   0.00000  Uiso   1.00
O1038  O     0.50000   0.78035   0.61781   0.00000  Uiso   1.00
O1039  O     0.71965   0.50000   0.38219   0.00000  Uiso   1.00
O1040  O     0.78036   0.50000   0.61781   0.00000  Uiso   1.00
O1041  O     0.75000   0.53035   0.88219   0.00000  Uiso   1.00
O1042  O     0.75000   0.96964   0.11781   0.00000  Uiso   1.00
O1043  O     0.53036   0.75000   0.88219   0.00000  Uiso   1.00
O1044  O     0.96965   0.75000   0.11781   0.00000  Uiso   1.00
O1045  O     0.75000   0.96964   0.88219   0.00000  Uiso   1.00
O1046  O     0.75000   0.53035   0.11781   0.00000  Uiso   1.00
O1047  O     0.96965   0.75000   0.88219   0.00000  Uiso   1.00
O1048  O     0.50000   0.75000   0.75000   0.00000  Uiso   1.00
O1049  O     0.53036   0.75000   0.11781   0.00000  Uiso   1.00
O1050  O     0.54268   0.67692   0.28474   0.00000  Uiso   1.00
O1051  O     0.95733   0.82307   0.71526   0.00000  Uiso   1.00
O1052  O     0.67693   0.95732   0.28474   0.00000  Uiso   1.00
O1053  O     0.82308   0.54267   0.71526   0.00000  Uiso   1.00
O1054  O     0.95733   0.82307   0.28474   0.00000  Uiso   1.00
O1055  O     0.54268   0.67692   0.71526   0.00000  Uiso   1.00
O1056  O     0.82308   0.54267   0.28474   0.00000  Uiso   1.00
O1057  O     0.67693   0.95732   0.71526   0.00000  Uiso   1.00
O1058  O     0.54268   0.82307   0.71526   0.00000  Uiso   1.00
O1059  O     0.75000   0.50000   0.25000   0.00000  Uiso   1.00
O1060  O     0.95733   0.67692   0.28474   0.00000  Uiso   1.00
O1061  O     0.67693   0.54267   0.71526   0.00000  Uiso   1.00
O1062  O     0.82308   0.95732   0.28474   0.00000  Uiso   1.00
O1063  O     0.95733   0.67692   0.71526   0.00000  Uiso   1.00
O1064  O     0.54268   0.82307   0.28474   0.00000  Uiso   1.00
O1065  O     0.82308   0.95732   0.71526   0.00000  Uiso   1.00
O1066  O     0.67693   0.54267   0.28474   0.00000  Uiso   1.00
O1067  O     0.79268   0.92692   0.78474   0.00000  Uiso   1.00
O1068  O     0.70733   0.57307   0.21526   0.00000  Uiso   1.00
O1069  O     0.92693   0.70732   0.78474   0.00000  Uiso   1.00
O1070  O     0.75000   0.50000   0.75000   0.00000  Uiso   1.00
O1071  O     0.57308   0.79267   0.21526   0.00000  Uiso   1.00
O1072  O     0.70733   0.57307   0.78474   0.00000  Uiso   1.00
O1073  O     0.79268   0.92692   0.21526   0.00000  Uiso   1.00
O1074  O     0.57308   0.79267   0.78474   0.00000  Uiso   1.00
O1075  O     0.92693   0.70732   0.21526   0.00000  Uiso   1.00
O1076  O     0.79268   0.57307   0.21526   0.00000  Uiso   1.00
O1077  O     0.70733   0.92692   0.78474   0.00000  Uiso   1.00
O1078  O     0.92693   0.79267   0.21526   0.00000  Uiso   1.00
O1079  O     0.57308   0.70732   0.78474   0.00000  Uiso   1.00
O1080  O     0.70733   0.92692   0.21526   0.00000  Uiso   1.00
O1081  O     0.50000   0.78035   0.38219   0.00000  Uiso   1.00
O1082  O     0.79268   0.57307   0.78474   0.00000  Uiso   1.00
O1083  O     0.57308   0.70732   0.21526   0.00000  Uiso   1.00
O1084  O     0.92693   0.79267   0.78474   0.00000  Uiso   1.00
O1085  O     0.50000   0.71964   0.61781   0.00000  Uiso   1.00
O1086  O     0.78036   0.50000   0.38219   0.00000  Uiso   1.00
O1087  O     0.71965   0.50000   0.61781   0.00000  Uiso   1.00
O1088  O     0.50000   0.71964   0.38219   0.00000  Uiso   1.00
Zn1089 Zn    0.54333   0.75000   0.20067   0.00000  Uiso   1.00
Zn1090 Zn    0.70667   0.50000   0.29933   0.00000  Uiso   1.00
Zn1091 Zn    0.50000   0.70667   0.70067   0.00000  Uiso   1.00
Zn1092 Zn    0.50000   0.79333   0.29933   0.00000  Uiso   1.00
Zn1093 Zn    0.70667   0.50000   0.70067   0.00000  Uiso   1.00
Zn1094 Zn    0.79333   0.50000   0.29933   0.00000  Uiso   1.00
Zn1095 Zn    0.50000   0.79333   0.70067   0.00000  Uiso   1.00
Zn1096 Zn    0.50000   0.70667   0.29933   0.00000  Uiso   1.00
Zn1097 Zn    0.95667   0.75000   0.79933   0.00000  Uiso   1.00
Zn1098 Zn    0.75000   0.95667   0.20067   0.00000  Uiso   1.00
Zn1099 Zn    0.75000   0.54333   0.79933   0.00000  Uiso   1.00
Zn1100 Zn    0.95667   0.75000   0.20067   0.00000  Uiso   1.00
Zn1101 Zn    0.54333   0.75000   0.79933   0.00000  Uiso   1.00
Zn1102 Zn    0.75000   0.54333   0.20067   0.00000  Uiso   1.00
Zn1103 Zn    0.75000   0.95667   0.79933   0.00000  Uiso   1.00
Zn1104 Zn    0.79333   0.50000   0.70067   0.00000  Uiso   1.00
loop_
_geom_bond_atom_site_label_1
_geom_bond_atom_site_label_2
_geom_bond_distance
_geom_bond_site_symmetry_2
_ccdc_geom_bond_type
C1     C21     1.420   .     S
C1     C25     1.197   1_554 S
C2     O210    1.277   .     A
C2     C80     1.420   .     S
C2     O257    1.277   .     S
C3     C61     1.523   .     S
C3     H167    1.110   .     S
C3     H169    1.111   .     S
C3     H166    1.105   .     S
C4     H171    1.110   .     S
C4     C62     1.521   .     S
C4     H172    1.106   .     S
C4     H170    1.110   .     S
C5     H175    1.111   .     S
C5     H174    1.110   .     S
C5     C63     1.523   .     S
C5     H173    1.105   .     S
C6     C64     1.521   .     S
C6     H178    1.109   .     S
C6     H177    1.111   .     S
C6     H176    1.105   .     S
C7     H181    1.110   .     S
C7     C65     1.523   .     S
C7     H182    1.111   .     S
C7     H180    1.105   .     S
C8     C66     1.521   .     S
C8     H185    1.110   .     S
C8     H183    1.110   .     S
C8     H184    1.106   .     S
C9     H186    1.110   .     S
C9     C67     1.522   .     S
C9     H187    1.106   .     S
C9     H188    1.110   .     S
C10    H189    1.110   .     S
C10    H192    1.110   .     S
C10    C68     1.521   .     S
C10    H191    1.106   .     S
C11    H194    1.108   .     S
C11    C70     1.521   .     S
C11    H195    1.111   .     S
C11    H193    1.105   .     S
C12    H197    1.106   .     S
C12    H196    1.110   .     S
C12    C71     1.521   .     S
C12    H198    1.110   .     S
C13    O211    1.277   .     A
C13    O258    1.277   .     A
C13    C69     1.420   .     S
C14    C72     1.522   .     S
C14    H200    1.106   .     S
C14    H199    1.110   .     S
C14    H202    1.110   .     S
C15    H204    1.106   .     S
C15    H205    1.110   .     S
C15    C73     1.521   .     S
C15    H203    1.110   .     S
C16    C74     1.521   .     S
C16    H207    1.108   .     S
C16    H208    1.111   .     S
C16    H206    1.105   .     S
C17    O259    1.277   .     A
C17    O212    1.277   .     A
C17    C58     1.420   .     S
C18    C47     1.420   .     S
C18    O769    1.277   1_545 A
C18    O213    1.277   .     S
C19    C36     1.420   .     S
C19    O218    1.277   .     A
C19    O766    1.277   1_545 S
C20    C25     1.420   .     S
C20    O495    1.277   1_455 A
C20    O215    1.277   .     S
C21    O221    1.277   .     A
C21    O492    1.277   1_455 S
C22    O222    1.274   .     A
C22    C82     1.459   .     S
C22    O255    1.274   .     A
C23    C83     1.461   .     S
C23    O223    1.274   .     A
C23    O256    1.274   .     A
C24    O224    1.274   .     A
C24    O252    1.274   .     A
C24    C75     1.458   .     S
C25    C1      1.197   1_556 S
C26    O225    1.273   .     A
C26    O254    1.273   .     A
C26    C76     1.453   .     S
C27    O250    1.274   .     A
C27    O226    1.274   .     A
C27    C77     1.459   .     S
C28    C78     1.461   .     S
C28    O227    1.274   .     A
C28    O251    1.274   .     A
C29    C79     1.458   .     S
C29    O248    1.274   .     A
C29    O228    1.274   .     A
C30    O229    1.273   .     A
C30    O249    1.273   .     A
C30    C81     1.453   .     S
C31    O230    1.274   .     A
C31    O246    1.274   .     A
C31    C90     1.459   .     S
C32    O232    1.274   .     A
C32    O247    1.274   .     A
C32    C92     1.454   .     S
C33    O233    1.273   .     A
C33    C84     1.454   .     S
C33    O244    1.273   .     A
C34    C85     1.455   .     S
C34    O245    1.273   .     A
C34    O234    1.273   .     A
C35    C86     1.459   .     S
C35    O241    1.274   .     A
C35    O235    1.274   .     A
C36    C47     1.197   1_554 S
C37    O243    1.274   .     A
C37    O236    1.274   .     A
C37    C87     1.454   .     S
C38    O239    1.273   .     A
C38    C88     1.454   .     S
C38    O237    1.273   .     A
C39    C89     1.455   .     S
C39    O240    1.273   .     A
C39    O238    1.273   .     A
C40    C93     1.521   .     S
C40    C52     1.411   .     A
C40    C87     1.417   .     A
C41    C86     1.412   .     A
C41    C94     1.521   .     S
C41    C51     1.411   .     A
C42    C95     1.521   .     S
C42    C50     1.411   .     A
C42    C85     1.417   .     A
C43    C84     1.416   .     A
C43    C49     1.410   .     A
C43    C96     1.522   .     S
C44    C97     1.521   .     S
C44    C56     1.411   .     A
C44    C92     1.417   .     A
C45    C90     1.412   .     A
C45    C98     1.521   .     S
C45    C55     1.411   .     A
C46    C99     1.521   .     S
C46    C89     1.417   .     A
C46    C54     1.411   .     A
C47    C36     1.197   1_556 S
C48    C53     1.410   .     A
C48    C100    1.522   .     S
C48    C88     1.416   .     A
C49    C78     1.413   .     A
C49    C101    1.521   .     S
C50    C103    1.523   .     S
C50    C77     1.413   .     A
C51    C76     1.416   .     A
C51    C104    1.521   .     S
C52    C75     1.413   .     A
C52    C105    1.523   .     S
C53    C106    1.521   .     S
C53    C83     1.413   .     A
C54    C107    1.523   .     S
C54    C82     1.413   .     A
C55    C81     1.416   .     A
C55    C108    1.521   .     S
C56    C79     1.413   .     A
C56    C109    1.523   .     S
C57    C70     1.411   .     A
C57    C110    1.521   .     S
C57    C76     1.416   .     A
C58    C69     1.197   .     T
C59    C111    1.523   .     S
C59    C68     1.411   .     A
C59    C75     1.413   .     A
C60    C67     1.410   .     A
C60    C112    1.521   .     S
C60    C78     1.413   .     A
C61    C66     1.411   .     A
C61    C77     1.413   .     A
C62    C81     1.416   .     A
C62    C74     1.411   .     A
C63    C79     1.413   .     A
C63    C73     1.411   .     A
C64    C83     1.413   .     A
C64    C72     1.410   .     A
C65    C82     1.413   .     A
C65    C71     1.411   .     A
C66    C85     1.417   .     A
C67    C84     1.416   .     A
C68    C87     1.417   .     A
C70    C86     1.412   .     A
C71    C89     1.417   .     A
C72    C88     1.416   .     A
C73    C92     1.417   .     A
C74    C90     1.412   .     A
C80    C91     1.197   .     T
C91    C102    1.420   .     S
C93    H124    1.106   .     S
C93    H113    1.110   .     S
C93    H135    1.110   .     S
C94    H146    1.105   .     S
C94    H168    1.111   .     S
C94    H157    1.108   .     S
C95    H190    1.106   .     S
C95    H179    1.110   .     S
C95    H201    1.110   .     S
C96    H114    1.110   .     S
C96    H116    1.110   .     S
C96    H115    1.106   .     S
C97    H118    1.106   .     S
C97    H119    1.110   .     S
C97    H117    1.110   .     S
C98    H121    1.108   .     S
C98    H122    1.111   .     S
C98    H120    1.105   .     S
C99    H125    1.106   .     S
C99    H123    1.110   .     S
C99    H126    1.110   .     S
C100   H127    1.110   .     S
C100   H129    1.110   .     S
C100   H128    1.106   .     S
C101   H130    1.105   .     S
C101   H131    1.111   .     S
C101   H132    1.109   .     S
C102   O253    1.277   .     S
C102   O260    1.277   .     S
C103   H134    1.110   .     S
C103   H133    1.105   .     S
C103   H136    1.111   .     S
C104   H137    1.110   .     S
C104   H138    1.110   .     S
C104   H139    1.106   .     S
C105   H141    1.109   .     S
C105   H142    1.111   .     S
C105   H140    1.105   .     S
C106   H143    1.105   .     S
C106   H144    1.111   .     S
C106   H145    1.109   .     S
C107   H147    1.105   .     S
C107   H149    1.111   .     S
C107   H148    1.110   .     S
C108   H152    1.106   .     S
C108   H151    1.110   .     S
C108   H150    1.110   .     S
C109   H153    1.105   .     S
C109   H154    1.110   .     S
C109   H155    1.111   .     S
C110   H158    1.110   .     S
C110   H156    1.110   .     S
C110   H159    1.106   .     S
C111   H161    1.109   .     S
C111   H162    1.111   .     S
C111   H160    1.105   .     S
C112   H164    1.111   .     S
C112   H163    1.105   .     S
C112   H165    1.109   .     S
O209   Zn264   1.936   .     S
O209   Zn548   1.936   1_455 S
O209   Zn261   1.936   .     S
O209   Zn268   1.936   .     S
O210   Zn267   1.920   .     S
O211   Zn262   1.920   .     S
O212   Zn276   1.920   .     S
O213   Zn271   1.920   .     S
O214   Zn270   1.920   .     S
O214   C571    1.277   .     S
O215   Zn273   1.920   .     S
O216   Zn272   1.920   .     S
O216   C297    1.277   .     S
O217   Zn275   1.920   .     S
O217   C570    1.277   .     A
O218   Zn274   1.920   .     S
O219   Zn269   1.920   .     S
O219   C296    1.277   .     A
O220   Zn263   1.936   .     S
O220   Zn273   1.936   .     S
O220   Zn267   1.936   .     S
O220   Zn545   1.936   1_455 S
O221   Zn261   1.920   .     S
O222   Zn268   1.935   .     S
O223   Zn543   1.935   .     S
O224   Zn814   1.934   .     S
O225   Zn276   1.934   .     S
O226   Zn540   1.935   .     S
O227   Zn263   1.935   .     S
O228   Zn266   1.934   .     S
O229   Zn817   1.934   .     S
O230   Zn267   1.934   .     S
O231   Zn822   1.936   1_545 S
O231   Zn262   1.936   .     S
O231   Zn266   1.936   .     S
O231   Zn274   1.936   .     S
O232   Zn544   1.934   .     S
O233   Zn265   1.935   .     S
O234   Zn818   1.935   .     S
O235   Zn539   1.934   .     S
O236   Zn264   1.934   .     S
O237   Zn828   1.935   .     S
O238   Zn262   1.935   .     S
O239   Zn275   1.935   .     S
O240   Zn274   1.935   .     S
O241   Zn269   1.934   .     S
O242   Zn265   1.936   .     S
O242   Zn271   1.936   .     S
O242   Zn276   1.936   .     S
O242   Zn827   1.936   1_545 S
O243   Zn261   1.934   .     S
O244   Zn271   1.935   .     S
O245   Zn270   1.935   .     S
O246   Zn273   1.934   .     S
O247   Zn272   1.934   .     S
O248   Zn274   1.934   .     S
O249   Zn275   1.934   .     S
O250   Zn272   1.935   .     S
O251   Zn273   1.935   .     S
O252   Zn270   1.934   .     S
O253   Zn264   1.920   .     S
O254   Zn271   1.934   .     S
O255   Zn261   1.935   .     S
O256   Zn269   1.935   .     S
O257   Zn263   1.920   .     S
O258   Zn266   1.920   .     S
O259   Zn265   1.920   .     S
O260   Zn268   1.920   .     S
Zn262  O776    1.934   1_545 S
Zn263  O511    1.934   1_455 S
Zn264  O502    1.935   1_455 S
Zn265  O781    1.934   1_545 S
Zn266  O786    1.935   1_545 S
Zn267  O499    1.935   1_455 S
Zn268  O508    1.934   1_455 S
Zn269  O496    1.936   .     S
Zn270  O783    1.936   .     S
Zn272  O485    1.936   .     S
Zn275  O794    1.936   .     S
Zn276  O789    1.935   1_545 S
C277   C297    1.420   .     S
C277   C301    1.197   1_554 S
C278   O486    1.277   .     A
C278   C356    1.420   .     S
C278   O533    1.277   .     S
C279   C337    1.523   .     S
C279   H443    1.110   .     S
C279   H445    1.111   .     S
C279   H442    1.105   .     S
C280   H447    1.110   .     S
C280   C338    1.521   .     S
C280   H448    1.106   .     S
C280   H446    1.110   .     S
C281   H451    1.111   .     S
C281   H450    1.110   .     S
C281   C339    1.523   .     S
C281   H449    1.105   .     S
C282   C340    1.521   .     S
C282   H454    1.109   .     S
C282   H453    1.111   .     S
C282   H452    1.105   .     S
C283   H457    1.110   .     S
C283   C341    1.523   .     S
C283   H458    1.111   .     S
C283   H456    1.105   .     S
C284   C342    1.521   .     S
C284   H461    1.110   .     S
C284   H459    1.110   .     S
C284   H460    1.106   .     S
C285   H462    1.110   .     S
C285   C343    1.522   .     S
C285   H463    1.106   .     S
C285   H464    1.110   .     S
C286   H465    1.110   .     S
C286   H468    1.110   .     S
C286   C344    1.521   .     S
C286   H467    1.106   .     S
C287   H470    1.108   .     S
C287   C346    1.521   .     S
C287   H471    1.111   .     S
C287   H469    1.105   .     S
C288   H473    1.106   .     S
C288   H472    1.110   .     S
C288   C347    1.521   .     S
C288   H474    1.110   .     S
C289   O487    1.277   .     A
C289   O534    1.277   .     A
C289   C345    1.420   .     S
C290   C348    1.522   .     S
C290   H476    1.106   .     S
C290   H475    1.110   .     S
C290   H478    1.110   .     S
C291   H480    1.106   .     S
C291   H481    1.110   .     S
C291   C349    1.521   .     S
C291   H479    1.110   .     S
C292   C350    1.521   .     S
C292   H483    1.108   .     S
C292   H484    1.111   .     S
C292   H482    1.105   .     S
C293   O535    1.277   .     A
C293   O488    1.277   .     A
C293   C334    1.420   .     S
C294   C323    1.420   .     S
C294   O1045   1.277   1_545 A
C294   O489    1.277   .     S
C295   C312    1.420   .     S
C295   O494    1.277   .     A
C295   O1042   1.277   1_545 S
C296   C301    1.420   .     S
C296   O491    1.277   .     S
C297   O497    1.277   .     A
C298   O498    1.274   .     A
C298   C358    1.459   .     S
C298   O531    1.274   .     A
C299   C359    1.461   .     S
C299   O499    1.274   .     A
C299   O532    1.274   .     A
C300   O500    1.274   .     A
C300   O528    1.274   .     A
C300   C351    1.458   .     S
C301   C277    1.197   1_556 S
C302   O501    1.273   .     A
C302   O530    1.273   .     A
C302   C352    1.453   .     S
C303   O526    1.274   .     A
C303   O502    1.274   .     A
C303   C353    1.459   .     S
C304   C354    1.461   .     S
C304   O503    1.274   .     A
C304   O527    1.274   .     A
C305   C355    1.458   .     S
C305   O524    1.274   .     A
C305   O504    1.274   .     A
C306   O505    1.273   .     A
C306   O525    1.273   .     A
C306   C357    1.453   .     S
C307   O506    1.274   .     A
C307   O522    1.274   .     A
C307   C366    1.459   .     S
C308   O508    1.274   .     A
C308   O523    1.274   .     A
C308   C368    1.454   .     S
C309   O509    1.273   .     A
C309   C360    1.454   .     S
C309   O520    1.273   .     A
C310   C361    1.455   .     S
C310   O521    1.273   .     A
C310   O510    1.273   .     A
C311   C362    1.459   .     S
C311   O517    1.274   .     A
C311   O511    1.274   .     A
C312   C323    1.197   1_554 S
C313   O519    1.274   .     A
C313   O512    1.274   .     A
C313   C363    1.454   .     S
C314   O515    1.273   .     A
C314   C364    1.454   .     S
C314   O513    1.273   .     A
C315   C365    1.455   .     S
C315   O516    1.273   .     A
C315   O514    1.273   .     A
C316   C369    1.521   .     S
C316   C328    1.411   .     A
C316   C363    1.417   .     A
C317   C362    1.412   .     A
C317   C370    1.521   .     S
C317   C327    1.411   .     A
C318   C371    1.521   .     S
C318   C326    1.411   .     A
C318   C361    1.417   .     A
C319   C360    1.416   .     A
C319   C325    1.410   .     A
C319   C372    1.522   .     S
C320   C373    1.521   .     S
C320   C332    1.411   .     A
C320   C368    1.417   .     A
C321   C366    1.412   .     A
C321   C374    1.521   .     S
C321   C331    1.411   .     A
C322   C375    1.521   .     S
C322   C365    1.417   .     A
C322   C330    1.411   .     A
C323   C312    1.197   1_556 S
C324   C329    1.410   .     A
C324   C376    1.522   .     S
C324   C364    1.416   .     A
C325   C354    1.413   .     A
C325   C377    1.521   .     S
C326   C379    1.523   .     S
C326   C353    1.413   .     A
C327   C352    1.416   .     A
C327   C380    1.521   .     S
C328   C351    1.413   .     A
C328   C381    1.523   .     S
C329   C382    1.521   .     S
C329   C359    1.413   .     A
C330   C383    1.523   .     S
C330   C358    1.413   .     A
C331   C357    1.416   .     A
C331   C384    1.521   .     S
C332   C355    1.413   .     A
C332   C385    1.523   .     S
C333   C346    1.411   .     A
C333   C386    1.521   .     S
C333   C352    1.416   .     A
C334   C345    1.197   .     T
C335   C387    1.523   .     S
C335   C344    1.411   .     A
C335   C351    1.413   .     A
C336   C343    1.410   .     A
C336   C388    1.521   .     S
C336   C354    1.413   .     A
C337   C342    1.411   .     A
C337   C353    1.413   .     A
C338   C357    1.416   .     A
C338   C350    1.411   .     A
C339   C355    1.413   .     A
C339   C349    1.411   .     A
C340   C359    1.413   .     A
C340   C348    1.410   .     A
C341   C358    1.413   .     A
C341   C347    1.411   .     A
C342   C361    1.417   .     A
C343   C360    1.416   .     A
C344   C363    1.417   .     A
C346   C362    1.412   .     A
C347   C365    1.417   .     A
C348   C364    1.416   .     A
C349   C368    1.417   .     A
C350   C366    1.412   .     A
C356   C367    1.197   .     T
C367   C378    1.420   .     S
C369   H400    1.106   .     S
C369   H389    1.110   .     S
C369   H411    1.110   .     S
C370   H422    1.105   .     S
C370   H444    1.111   .     S
C370   H433    1.108   .     S
C371   H466    1.106   .     S
C371   H455    1.110   .     S
C371   H477    1.110   .     S
C372   H390    1.110   .     S
C372   H392    1.110   .     S
C372   H391    1.106   .     S
C373   H394    1.106   .     S
C373   H395    1.110   .     S
C373   H393    1.110   .     S
C374   H397    1.108   .     S
C374   H398    1.111   .     S
C374   H396    1.105   .     S
C375   H401    1.106   .     S
C375   H399    1.110   .     S
C375   H402    1.110   .     S
C376   H403    1.110   .     S
C376   H405    1.110   .     S
C376   H404    1.106   .     S
C377   H406    1.105   .     S
C377   H407    1.111   .     S
C377   H408    1.109   .     S
C378   O529    1.277   .     S
C378   O536    1.277   .     S
C379   H410    1.110   .     S
C379   H409    1.105   .     S
C379   H412    1.111   .     S
C380   H413    1.110   .     S
C380   H414    1.110   .     S
C380   H415    1.106   .     S
C381   H417    1.109   .     S
C381   H418    1.111   .     S
C381   H416    1.105   .     S
C382   H419    1.105   .     S
C382   H420    1.111   .     S
C382   H421    1.109   .     S
C383   H423    1.105   .     S
C383   H425    1.111   .     S
C383   H424    1.110   .     S
C384   H428    1.106   .     S
C384   H427    1.110   .     S
C384   H426    1.110   .     S
C385   H429    1.105   .     S
C385   H430    1.110   .     S
C385   H431    1.111   .     S
C386   H434    1.110   .     S
C386   H432    1.110   .     S
C386   H435    1.106   .     S
C387   H437    1.109   .     S
C387   H438    1.111   .     S
C387   H436    1.105   .     S
C388   H440    1.111   .     S
C388   H439    1.105   .     S
C388   H441    1.109   .     S
O485   Zn540   1.936   .     S
O485   Zn537   1.936   .     S
O485   Zn544   1.936   .     S
O486   Zn543   1.920   .     S
O487   Zn538   1.920   .     S
O488   Zn552   1.920   .     S
O489   Zn547   1.920   .     S
O490   Zn546   1.920   .     S
O490   C847    1.277   .     S
O491   Zn549   1.920   .     S
O492   Zn548   1.920   .     S
O492   C21     1.277   1_655 S
O493   Zn551   1.920   .     S
O493   C846    1.277   .     A
O494   Zn550   1.920   .     S
O495   Zn545   1.920   .     S
O495   C20     1.277   1_655 A
O496   Zn539   1.936   .     S
O496   Zn549   1.936   .     S
O496   Zn543   1.936   .     S
O497   Zn537   1.920   .     S
O498   Zn544   1.935   .     S
O499   Zn267   1.935   1_655 S
O500   Zn1090  1.934   .     S
O501   Zn552   1.934   .     S
O502   Zn264   1.935   1_655 S
O503   Zn539   1.935   .     S
O504   Zn542   1.934   .     S
O505   Zn1093  1.934   .     S
O506   Zn543   1.934   .     S
O507   Zn1098  1.936   1_545 S
O507   Zn538   1.936   .     S
O507   Zn542   1.936   .     S
O507   Zn550   1.936   .     S
O508   Zn268   1.934   1_655 S
O509   Zn541   1.935   .     S
O510   Zn1094  1.935   .     S
O511   Zn263   1.934   1_655 S
O512   Zn540   1.934   .     S
O513   Zn1104  1.935   .     S
O514   Zn538   1.935   .     S
O515   Zn551   1.935   .     S
O516   Zn550   1.935   .     S
O517   Zn545   1.934   .     S
O518   Zn541   1.936   .     S
O518   Zn547   1.936   .     S
O518   Zn552   1.936   .     S
O518   Zn1103  1.936   1_545 S
O519   Zn537   1.934   .     S
O520   Zn547   1.935   .     S
O521   Zn546   1.935   .     S
O522   Zn549   1.934   .     S
O523   Zn548   1.934   .     S
O524   Zn550   1.934   .     S
O525   Zn551   1.934   .     S
O526   Zn548   1.935   .     S
O527   Zn549   1.935   .     S
O528   Zn546   1.934   .     S
O529   Zn540   1.920   .     S
O530   Zn547   1.934   .     S
O531   Zn537   1.935   .     S
O532   Zn545   1.935   .     S
O533   Zn539   1.920   .     S
O534   Zn542   1.920   .     S
O535   Zn541   1.920   .     S
O536   Zn544   1.920   .     S
Zn538  O1052   1.934   1_545 S
Zn541  O1057   1.934   1_545 S
Zn542  O1062   1.935   1_545 S
Zn545  O220    1.936   1_655 S
Zn546  O1059   1.936   .     S
Zn548  O209    1.936   1_655 S
Zn551  O1070   1.936   .     S
Zn552  O1065   1.935   1_545 S
C553   C573    1.420   .     S
C553   C577    1.197   1_554 S
C554   O762    1.277   .     A
C554   C632    1.420   .     S
C554   O809    1.277   .     S
C555   C613    1.523   .     S
C555   H719    1.110   .     S
C555   H721    1.111   .     S
C555   H718    1.105   .     S
C556   H723    1.110   .     S
C556   C614    1.521   .     S
C556   H724    1.106   .     S
C556   H722    1.110   .     S
C557   H727    1.111   .     S
C557   H726    1.110   .     S
C557   C615    1.523   .     S
C557   H725    1.105   .     S
C558   C616    1.521   .     S
C558   H730    1.109   .     S
C558   H729    1.111   .     S
C558   H728    1.105   .     S
C559   H733    1.110   .     S
C559   C617    1.523   .     S
C559   H734    1.111   .     S
C559   H732    1.105   .     S
C560   C618    1.521   .     S
C560   H737    1.110   .     S
C560   H735    1.110   .     S
C560   H736    1.106   .     S
C561   H738    1.110   .     S
C561   C619    1.522   .     S
C561   H739    1.106   .     S
C561   H740    1.110   .     S
C562   H741    1.110   .     S
C562   H744    1.110   .     S
C562   C620    1.521   .     S
C562   H743    1.106   .     S
C563   H746    1.108   .     S
C563   C622    1.521   .     S
C563   H747    1.111   .     S
C563   H745    1.105   .     S
C564   H749    1.106   .     S
C564   H748    1.110   .     S
C564   C623    1.521   .     S
C564   H750    1.110   .     S
C565   O763    1.277   .     A
C565   O810    1.277   .     A
C565   C621    1.420   .     S
C566   C624    1.522   .     S
C566   H752    1.106   .     S
C566   H751    1.110   .     S
C566   H754    1.110   .     S
C567   H756    1.106   .     S
C567   H757    1.110   .     S
C567   C625    1.521   .     S
C567   H755    1.110   .     S
C568   C626    1.521   .     S
C568   H759    1.108   .     S
C568   H760    1.111   .     S
C568   H758    1.105   .     S
C569   O811    1.277   .     A
C569   O764    1.277   .     A
C569   C610    1.420   .     S
C570   C599    1.420   .     S
C570   O765    1.277   .     S
C571   C588    1.420   .     S
C571   O770    1.277   .     A
C572   C577    1.420   .     S
C572   O1047   1.277   1_455 A
C572   O767    1.277   .     S
C573   O773    1.277   .     A
C573   O1044   1.277   1_455 S
C574   O774    1.274   .     A
C574   C634    1.459   .     S
C574   O807    1.274   .     A
C575   C635    1.461   .     S
C575   O775    1.274   .     A
C575   O808    1.274   .     A
C576   O776    1.274   .     A
C576   O804    1.274   .     A
C576   C627    1.458   .     S
C577   C553    1.197   1_556 S
C578   O777    1.273   .     A
C578   O806    1.273   .     A
C578   C628    1.453   .     S
C579   O802    1.274   .     A
C579   O778    1.274   .     A
C579   C629    1.459   .     S
C580   C630    1.461   .     S
C580   O779    1.274   .     A
C580   O803    1.274   .     A
C581   C631    1.458   .     S
C581   O800    1.274   .     A
C581   O780    1.274   .     A
C582   O781    1.273   .     A
C582   O801    1.273   .     A
C582   C633    1.453   .     S
C583   O782    1.274   .     A
C583   O798    1.274   .     A
C583   C642    1.459   .     S
C584   O784    1.274   .     A
C584   O799    1.274   .     A
C584   C644    1.454   .     S
C585   O785    1.273   .     A
C585   C636    1.454   .     S
C585   O796    1.273   .     A
C586   C637    1.455   .     S
C586   O797    1.273   .     A
C586   O786    1.273   .     A
C587   C638    1.459   .     S
C587   O793    1.274   .     A
C587   O787    1.274   .     A
C588   C599    1.197   1_554 S
C589   O795    1.274   .     A
C589   O788    1.274   .     A
C589   C639    1.454   .     S
C590   O791    1.273   .     A
C590   C640    1.454   .     S
C590   O789    1.273   .     A
C591   C641    1.455   .     S
C591   O792    1.273   .     A
C591   O790    1.273   .     A
C592   C645    1.521   .     S
C592   C604    1.411   .     A
C592   C639    1.417   .     A
C593   C638    1.412   .     A
C593   C646    1.521   .     S
C593   C603    1.411   .     A
C594   C647    1.521   .     S
C594   C602    1.411   .     A
C594   C637    1.417   .     A
C595   C636    1.416   .     A
C595   C601    1.410   .     A
C595   C648    1.522   .     S
C596   C649    1.521   .     S
C596   C608    1.411   .     A
C596   C644    1.417   .     A
C597   C642    1.412   .     A
C597   C650    1.521   .     S
C597   C607    1.411   .     A
C598   C651    1.521   .     S
C598   C641    1.417   .     A
C598   C606    1.411   .     A
C599   C588    1.197   1_556 S
C600   C605    1.410   .     A
C600   C652    1.522   .     S
C600   C640    1.416   .     A
C601   C630    1.413   .     A
C601   C653    1.521   .     S
C602   C655    1.523   .     S
C602   C629    1.413   .     A
C603   C628    1.416   .     A
C603   C656    1.521   .     S
C604   C627    1.413   .     A
C604   C657    1.523   .     S
C605   C658    1.521   .     S
C605   C635    1.413   .     A
C606   C659    1.523   .     S
C606   C634    1.413   .     A
C607   C633    1.416   .     A
C607   C660    1.521   .     S
C608   C631    1.413   .     A
C608   C661    1.523   .     S
C609   C622    1.411   .     A
C609   C662    1.521   .     S
C609   C628    1.416   .     A
C610   C621    1.197   .     T
C611   C663    1.523   .     S
C611   C620    1.411   .     A
C611   C627    1.413   .     A
C612   C619    1.410   .     A
C612   C664    1.521   .     S
C612   C630    1.413   .     A
C613   C618    1.411   .     A
C613   C629    1.413   .     A
C614   C633    1.416   .     A
C614   C626    1.411   .     A
C615   C631    1.413   .     A
C615   C625    1.411   .     A
C616   C635    1.413   .     A
C616   C624    1.410   .     A
C617   C634    1.413   .     A
C617   C623    1.411   .     A
C618   C637    1.417   .     A
C619   C636    1.416   .     A
C620   C639    1.417   .     A
C622   C638    1.412   .     A
C623   C641    1.417   .     A
C624   C640    1.416   .     A
C625   C644    1.417   .     A
C626   C642    1.412   .     A
C632   C643    1.197   .     T
C643   C654    1.420   .     S
C645   H676    1.106   .     S
C645   H665    1.110   .     S
C645   H687    1.110   .     S
C646   H698    1.105   .     S
C646   H720    1.111   .     S
C646   H709    1.108   .     S
C647   H742    1.106   .     S
C647   H731    1.110   .     S
C647   H753    1.110   .     S
C648   H666    1.110   .     S
C648   H668    1.110   .     S
C648   H667    1.106   .     S
C649   H670    1.106   .     S
C649   H671    1.110   .     S
C649   H669    1.110   .     S
C650   H673    1.108   .     S
C650   H674    1.111   .     S
C650   H672    1.105   .     S
C651   H677    1.106   .     S
C651   H675    1.110   .     S
C651   H678    1.110   .     S
C652   H679    1.110   .     S
C652   H681    1.110   .     S
C652   H680    1.106   .     S
C653   H682    1.105   .     S
C653   H683    1.111   .     S
C653   H684    1.109   .     S
C654   O805    1.277   .     S
C654   O812    1.277   .     S
C655   H686    1.110   .     S
C655   H685    1.105   .     S
C655   H688    1.111   .     S
C656   H689    1.110   .     S
C656   H690    1.110   .     S
C656   H691    1.106   .     S
C657   H693    1.109   .     S
C657   H694    1.111   .     S
C657   H692    1.105   .     S
C658   H695    1.105   .     S
C658   H696    1.111   .     S
C658   H697    1.109   .     S
C659   H699    1.105   .     S
C659   H701    1.111   .     S
C659   H700    1.110   .     S
C660   H704    1.106   .     S
C660   H703    1.110   .     S
C660   H702    1.110   .     S
C661   H705    1.105   .     S
C661   H706    1.110   .     S
C661   H707    1.111   .     S
C662   H710    1.110   .     S
C662   H708    1.110   .     S
C662   H711    1.106   .     S
C663   H713    1.109   .     S
C663   H714    1.111   .     S
C663   H712    1.105   .     S
C664   H716    1.111   .     S
C664   H715    1.105   .     S
C664   H717    1.109   .     S
O761   Zn816   1.936   .     S
O761   Zn1100  1.936   1_455 S
O761   Zn813   1.936   .     S
O761   Zn820   1.936   .     S
O762   Zn819   1.920   .     S
O763   Zn814   1.920   .     S
O764   Zn828   1.920   .     S
O765   Zn823   1.920   .     S
O766   Zn822   1.920   .     S
O766   C19     1.277   1_565 S
O767   Zn825   1.920   .     S
O768   Zn824   1.920   .     S
O768   C849    1.277   .     S
O769   Zn827   1.920   .     S
O769   C18     1.277   1_565 A
O770   Zn826   1.920   .     S
O771   Zn821   1.920   .     S
O771   C848    1.277   .     A
O772   Zn815   1.936   .     S
O772   Zn825   1.936   .     S
O772   Zn819   1.936   .     S
O772   Zn1097  1.936   1_455 S
O773   Zn813   1.920   .     S
O774   Zn820   1.935   .     S
O775   Zn1095  1.935   .     S
O776   Zn262   1.934   1_565 S
O777   Zn828   1.934   .     S
O778   Zn1092  1.935   .     S
O779   Zn815   1.935   .     S
O780   Zn818   1.934   .     S
O781   Zn265   1.934   1_565 S
O782   Zn819   1.934   .     S
O783   Zn814   1.936   .     S
O783   Zn818   1.936   .     S
O783   Zn826   1.936   .     S
O784   Zn1096  1.934   .     S
O785   Zn817   1.935   .     S
O786   Zn266   1.935   1_565 S
O787   Zn1091  1.934   .     S
O788   Zn816   1.934   .     S
O789   Zn276   1.935   1_565 S
O790   Zn814   1.935   .     S
O791   Zn827   1.935   .     S
O792   Zn826   1.935   .     S
O793   Zn821   1.934   .     S
O794   Zn817   1.936   .     S
O794   Zn823   1.936   .     S
O794   Zn828   1.936   .     S
O795   Zn813   1.934   .     S
O796   Zn823   1.935   .     S
O797   Zn822   1.935   .     S
O798   Zn825   1.934   .     S
O799   Zn824   1.934   .     S
O800   Zn826   1.934   .     S
O801   Zn827   1.934   .     S
O802   Zn824   1.935   .     S
O803   Zn825   1.935   .     S
O804   Zn822   1.934   .     S
O805   Zn816   1.920   .     S
O806   Zn823   1.934   .     S
O807   Zn813   1.935   .     S
O808   Zn821   1.935   .     S
O809   Zn815   1.920   .     S
O810   Zn818   1.920   .     S
O811   Zn817   1.920   .     S
O812   Zn820   1.920   .     S
Zn815  O1063   1.934   1_455 S
Zn816  O1054   1.935   1_455 S
Zn819  O1051   1.935   1_455 S
Zn820  O1060   1.934   1_455 S
Zn821  O1048   1.936   .     S
Zn822  O231    1.936   1_565 S
Zn824  O1037   1.936   .     S
Zn827  O242    1.936   1_565 S
C829   C849    1.420   .     S
C829   C853    1.197   1_554 S
C830   O1038   1.277   .     A
C830   C908    1.420   .     S
C830   O1085   1.277   .     S
C831   C889    1.523   .     S
C831   H995    1.110   .     S
C831   H997    1.111   .     S
C831   H994    1.105   .     S
C832   H999    1.110   .     S
C832   C890    1.521   .     S
C832   H1000   1.106   .     S
C832   H998    1.110   .     S
C833   H1003   1.111   .     S
C833   H1002   1.110   .     S
C833   C891    1.523   .     S
C833   H1001   1.105   .     S
C834   C892    1.521   .     S
C834   H1006   1.109   .     S
C834   H1005   1.111   .     S
C834   H1004   1.105   .     S
C835   H1009   1.110   .     S
C835   C893    1.523   .     S
C835   H1010   1.111   .     S
C835   H1008   1.105   .     S
C836   C894    1.521   .     S
C836   H1013   1.110   .     S
C836   H1011   1.110   .     S
C836   H1012   1.106   .     S
C837   H1014   1.110   .     S
C837   C895    1.522   .     S
C837   H1015   1.106   .     S
C837   H1016   1.110   .     S
C838   H1017   1.110   .     S
C838   H1020   1.110   .     S
C838   C896    1.521   .     S
C838   H1019   1.106   .     S
C839   H1022   1.108   .     S
C839   C898    1.521   .     S
C839   H1023   1.111   .     S
C839   H1021   1.105   .     S
C840   H1025   1.106   .     S
C840   H1024   1.110   .     S
C840   C899    1.521   .     S
C840   H1026   1.110   .     S
C841   O1039   1.277   .     A
C841   O1086   1.277   .     A
C841   C897    1.420   .     S
C842   C900    1.522   .     S
C842   H1028   1.106   .     S
C842   H1027   1.110   .     S
C842   H1030   1.110   .     S
C843   H1032   1.106   .     S
C843   H1033   1.110   .     S
C843   C901    1.521   .     S
C843   H1031   1.110   .     S
C844   C902    1.521   .     S
C844   H1035   1.108   .     S
C844   H1036   1.111   .     S
C844   H1034   1.105   .     S
C845   O1087   1.277   .     A
C845   O1040   1.277   .     A
C845   C886    1.420   .     S
C846   C875    1.420   .     S
C846   O1041   1.277   .     S
C847   C864    1.420   .     S
C847   O1046   1.277   .     A
C848   C853    1.420   .     S
C848   O1043   1.277   .     S
C849   O1049   1.277   .     A
C850   O1050   1.274   .     A
C850   C910    1.459   .     S
C850   O1083   1.274   .     A
C851   C911    1.461   .     S
C851   O1051   1.274   .     A
C851   O1084   1.274   .     A
C852   O1052   1.274   .     A
C852   O1080   1.274   .     A
C852   C903    1.458   .     S
C853   C829    1.197   1_556 S
C854   O1053   1.273   .     A
C854   O1082   1.273   .     A
C854   C904    1.453   .     S
C855   O1078   1.274   .     A
C855   O1054   1.274   .     A
C855   C905    1.459   .     S
C856   C906    1.461   .     S
C856   O1055   1.274   .     A
C856   O1079   1.274   .     A
C857   C907    1.458   .     S
C857   O1076   1.274   .     A
C857   O1056   1.274   .     A
C858   O1057   1.273   .     A
C858   O1077   1.273   .     A
C858   C909    1.453   .     S
C859   O1058   1.274   .     A
C859   O1074   1.274   .     A
C859   C918    1.459   .     S
C860   O1060   1.274   .     A
C860   O1075   1.274   .     A
C860   C920    1.454   .     S
C861   O1061   1.273   .     A
C861   C912    1.454   .     S
C861   O1072   1.273   .     A
C862   C913    1.455   .     S
C862   O1073   1.273   .     A
C862   O1062   1.273   .     A
C863   C914    1.459   .     S
C863   O1069   1.274   .     A
C863   O1063   1.274   .     A
C864   C875    1.197   1_554 S
C865   O1071   1.274   .     A
C865   O1064   1.274   .     A
C865   C915    1.454   .     S
C866   O1067   1.273   .     A
C866   C916    1.454   .     S
C866   O1065   1.273   .     A
C867   C917    1.455   .     S
C867   O1068   1.273   .     A
C867   O1066   1.273   .     A
C868   C921    1.521   .     S
C868   C880    1.411   .     A
C868   C915    1.417   .     A
C869   C914    1.412   .     A
C869   C922    1.521   .     S
C869   C879    1.411   .     A
C870   C923    1.521   .     S
C870   C878    1.411   .     A
C870   C913    1.417   .     A
C871   C912    1.416   .     A
C871   C877    1.410   .     A
C871   C924    1.522   .     S
C872   C925    1.521   .     S
C872   C884    1.411   .     A
C872   C920    1.417   .     A
C873   C918    1.412   .     A
C873   C926    1.521   .     S
C873   C883    1.411   .     A
C874   C927    1.521   .     S
C874   C917    1.417   .     A
C874   C882    1.411   .     A
C875   C864    1.197   1_556 S
C876   C881    1.410   .     A
C876   C928    1.522   .     S
C876   C916    1.416   .     A
C877   C906    1.413   .     A
C877   C929    1.521   .     S
C878   C931    1.523   .     S
C878   C905    1.413   .     A
C879   C904    1.416   .     A
C879   C932    1.521   .     S
C880   C903    1.413   .     A
C880   C933    1.523   .     S
C881   C934    1.521   .     S
C881   C911    1.413   .     A
C882   C935    1.523   .     S
C882   C910    1.413   .     A
C883   C909    1.416   .     A
C883   C936    1.521   .     S
C884   C907    1.413   .     A
C884   C937    1.523   .     S
C885   C898    1.411   .     A
C885   C938    1.521   .     S
C885   C904    1.416   .     A
C886   C897    1.197   .     T
C887   C939    1.523   .     S
C887   C896    1.411   .     A
C887   C903    1.413   .     A
C888   C895    1.410   .     A
C888   C940    1.521   .     S
C888   C906    1.413   .     A
C889   C894    1.411   .     A
C889   C905    1.413   .     A
C890   C909    1.416   .     A
C890   C902    1.411   .     A
C891   C907    1.413   .     A
C891   C901    1.411   .     A
C892   C911    1.413   .     A
C892   C900    1.410   .     A
C893   C910    1.413   .     A
C893   C899    1.411   .     A
C894   C913    1.417   .     A
C895   C912    1.416   .     A
C896   C915    1.417   .     A
C898   C914    1.412   .     A
C899   C917    1.417   .     A
C900   C916    1.416   .     A
C901   C920    1.417   .     A
C902   C918    1.412   .     A
C908   C919    1.197   .     T
C919   C930    1.420   .     S
C921   H952    1.106   .     S
C921   H941    1.110   .     S
C921   H963    1.110   .     S
C922   H974    1.105   .     S
C922   H996    1.111   .     S
C922   H985    1.108   .     S
C923   H1018   1.106   .     S
C923   H1007   1.110   .     S
C923   H1029   1.110   .     S
C924   H942    1.110   .     S
C924   H944    1.110   .     S
C924   H943    1.106   .     S
C925   H946    1.106   .     S
C925   H947    1.110   .     S
C925   H945    1.110   .     S
C926   H949    1.108   .     S
C926   H950    1.111   .     S
C926   H948    1.105   .     S
C927   H953    1.106   .     S
C927   H951    1.110   .     S
C927   H954    1.110   .     S
C928   H955    1.110   .     S
C928   H957    1.110   .     S
C928   H956    1.106   .     S
C929   H958    1.105   .     S
C929   H959    1.111   .     S
C929   H960    1.109   .     S
C930   O1081   1.277   .     S
C930   O1088   1.277   .     S
C931   H962    1.110   .     S
C931   H961    1.105   .     S
C931   H964    1.111   .     S
C932   H965    1.110   .     S
C932   H966    1.110   .     S
C932   H967    1.106   .     S
C933   H969    1.109   .     S
C933   H970    1.111   .     S
C933   H968    1.105   .     S
C934   H971    1.105   .     S
C934   H972    1.111   .     S
C934   H973    1.109   .     S
C935   H975    1.105   .     S
C935   H977    1.111   .     S
C935   H976    1.110   .     S
C936   H980    1.106   .     S
C936   H979    1.110   .     S
C936   H978    1.110   .     S
C937   H981    1.105   .     S
C937   H982    1.110   .     S
C937   H983    1.111   .     S
C938   H986    1.110   .     S
C938   H984    1.110   .     S
C938   H987    1.106   .     S
C939   H989    1.109   .     S
C939   H990    1.111   .     S
C939   H988    1.105   .     S
C940   H992    1.111   .     S
C940   H991    1.105   .     S
C940   H993    1.109   .     S
O1037  Zn1092  1.936   .     S
O1037  Zn1089  1.936   .     S
O1037  Zn1096  1.936   .     S
O1038  Zn1095  1.920   .     S
O1039  Zn1090  1.920   .     S
O1040  Zn1104  1.920   .     S
O1041  Zn1099  1.920   .     S
O1042  Zn1098  1.920   .     S
O1042  C295    1.277   1_565 S
O1043  Zn1101  1.920   .     S
O1044  Zn1100  1.920   .     S
O1044  C573    1.277   1_655 S
O1045  Zn1103  1.920   .     S
O1045  C294    1.277   1_565 A
O1046  Zn1102  1.920   .     S
O1047  Zn1097  1.920   .     S
O1047  C572    1.277   1_655 A
O1048  Zn1091  1.936   .     S
O1048  Zn1101  1.936   .     S
O1048  Zn1095  1.936   .     S
O1049  Zn1089  1.920   .     S
O1050  Zn1096  1.935   .     S
O1051  Zn819   1.935   1_655 S
O1052  Zn538   1.934   1_565 S
O1053  Zn1104  1.934   .     S
O1054  Zn816   1.935   1_655 S
O1055  Zn1091  1.935   .     S
O1056  Zn1094  1.934   .     S
O1057  Zn541   1.934   1_565 S
O1058  Zn1095  1.934   .     S
O1059  Zn1090  1.936   .     S
O1059  Zn1094  1.936   .     S
O1059  Zn1102  1.936   .     S
O1060  Zn820   1.934   1_655 S
O1061  Zn1093  1.935   .     S
O1062  Zn542   1.935   1_565 S
O1063  Zn815   1.934   1_655 S
O1064  Zn1092  1.934   .     S
O1065  Zn552   1.935   1_565 S
O1066  Zn1090  1.935   .     S
O1067  Zn1103  1.935   .     S
O1068  Zn1102  1.935   .     S
O1069  Zn1097  1.934   .     S
O1070  Zn1093  1.936   .     S
O1070  Zn1099  1.936   .     S
O1070  Zn1104  1.936   .     S
O1071  Zn1089  1.934   .     S
O1072  Zn1099  1.935   .     S
O1073  Zn1098  1.935   .     S
O1074  Zn1101  1.934   .     S
O1075  Zn1100  1.934   .     S
O1076  Zn1102  1.934   .     S
O1077  Zn1103  1.934   .     S
O1078  Zn1100  1.935   .     S
O1079  Zn1101  1.935   .     S
O1080  Zn1098  1.934   .     S
O1081  Zn1092  1.920   .     S
O1082  Zn1099  1.934   .     S
O1083  Zn1089  1.935   .     S
O1084  Zn1097  1.935   .     S
O1085  Zn1091  1.920   .     S
O1086  Zn1094  1.920   .     S
O1087  Zn1093  1.920   .     S
O1088  Zn1096  1.920   .     S
Zn1097 O772    1.936   1_655 S
Zn1098 O507    1.936   1_565 S
Zn1100 O761    1.936   1_655 S
Zn1103 O518    1.936   1_565 S
