data_str_m3_o10_o16_pcu_sym.161
_audit_creation_date              2020-01-03
_audit_creation_method            'Materials Studio'
_symmetry_space_group_name_H-M    'P1'
_symmetry_Int_Tables_number       1
_symmetry_cell_setting            triclinic
loop_
_symmetry_equiv_pos_as_xyz
  x,y,z
_cell_length_a                    23.4949
_cell_length_b                    25.7140
_cell_length_c                    24.1742
_cell_angle_alpha                 92.2565
_cell_angle_beta                  101.4599
_cell_angle_gamma                 94.1381
loop_
_atom_site_label
_atom_site_type_symbol
_atom_site_fract_x
_atom_site_fract_y
_atom_site_fract_z
_atom_site_U_iso_or_equiv
_atom_site_adp_type
_atom_site_occupancy
C1     C     0.01487   0.26490   0.24866   0.00000  Uiso   1.00
C2     C     0.12963   0.15761   0.49712   0.00000  Uiso   1.00
C3     C     0.10194   0.14265   0.44108   0.00000  Uiso   1.00
C4     C     0.18750   0.14438   0.01496   0.00000  Uiso   1.00
C5     C     0.21070   0.10621   0.48361   0.00000  Uiso   1.00
C6     C     0.17760   0.08449   0.43267   0.00000  Uiso   1.00
C7     C     0.12425   0.10326   0.41095   0.00000  Uiso   1.00
C8     C     0.22413   0.17030   0.06151   0.00000  Uiso   1.00
C9     C     0.29869   0.11152   0.05587   0.00000  Uiso   1.00
C10    C     0.05305   0.16809   0.41637   0.00000  Uiso   1.00
C11    C     0.02263   0.31948   0.24799   0.00000  Uiso   1.00
C12    C     0.03549   0.16819   0.35525   0.00000  Uiso   1.00
C13    C     0.31082   0.01388   0.25236   0.00000  Uiso   1.00
C14    C     0.31850   0.06844   0.25145   0.00000  Uiso   1.00
C15    C     0.29736   0.16265   0.14477   0.00000  Uiso   1.00
C16    C     0.26672   0.09055   0.00396   0.00000  Uiso   1.00
C17    C     0.27624   0.15079   0.08499   0.00000  Uiso   1.00
C18    C     0.02470   0.19865   0.44997   0.00000  Uiso   1.00
C19    C     0.04591   0.20545   0.00771   0.00000  Uiso   1.00
C20    C     0.09819   0.18512   0.03226   0.00000  Uiso   1.00
H21    H     0.00605   0.09585   0.07411   0.00000  Uiso   1.00
H22    H     0.26830   0.33005   0.25654   0.00000  Uiso   1.00
H23    H     0.15654   0.12485   0.20839   0.00000  Uiso   1.00
H24    H     0.17682   0.20840   0.29172   0.00000  Uiso   1.00
H25    H     0.19390   0.05453   0.40859   0.00000  Uiso   1.00
H26    H     0.28453   0.06075   0.48105   0.00000  Uiso   1.00
H27    H     0.21195   0.20469   0.08196   0.00000  Uiso   1.00
H28    H     0.31959   0.21763   0.43150   0.00000  Uiso   1.00
H29    H     0.02176   0.22713   0.03329   0.00000  Uiso   1.00
H30    H     0.10024   0.08613   0.37071   0.00000  Uiso   1.00
H31    H     0.06517   0.00332   0.24385   0.00000  Uiso   1.00
N32    N     0.14493   0.15223   0.23542   0.00000  Uiso   1.00
N33    N     0.18840   0.18110   0.26457   0.00000  Uiso   1.00
O34    O     0.29769   0.24629   0.25357   0.00000  Uiso   1.00
O35    O     0.05742   0.23704   0.24423   0.00000  Uiso   1.00
O36    O     0.31490   0.17358   0.33380   0.00000  Uiso   1.00
O37    O     0.07463   0.16433   0.32446   0.00000  Uiso   1.00
O38    O     0.27592   0.09629   0.25577   0.00000  Uiso   1.00
O39    O     0.03565   0.08704   0.24643   0.00000  Uiso   1.00
O40    O     0.25870   0.16901   0.17554   0.00000  Uiso   1.00
O41    O     0.01843   0.15976   0.16620   0.00000  Uiso   1.00
Zn42   Zn    0.27119   0.17284   0.25624   0.00000  Uiso   1.00
Zn43   Zn    0.06214   0.16049   0.24376   0.00000  Uiso   1.00
N44    N     0.11588   0.18792   0.09280   0.00000  Uiso   1.00
H45    H     0.09003   0.21188   0.11147   0.00000  Uiso   1.00
H46    H     0.10924   0.15028   0.10639   0.00000  Uiso   1.00
C47    C     0.34821   0.26490   0.24866   0.00000  Uiso   1.00
C48    C     0.46296   0.15761   0.49712   0.00000  Uiso   1.00
C49    C     0.43527   0.14265   0.44108   0.00000  Uiso   1.00
C50    C     0.52084   0.14438   0.01496   0.00000  Uiso   1.00
C51    C     0.54404   0.10621   0.48361   0.00000  Uiso   1.00
C52    C     0.51094   0.08449   0.43267   0.00000  Uiso   1.00
C53    C     0.45758   0.10326   0.41095   0.00000  Uiso   1.00
C54    C     0.55746   0.17030   0.06151   0.00000  Uiso   1.00
C55    C     0.63203   0.11152   0.05587   0.00000  Uiso   1.00
C56    C     0.38638   0.16809   0.41637   0.00000  Uiso   1.00
C57    C     0.35597   0.31948   0.24799   0.00000  Uiso   1.00
C58    C     0.36882   0.16819   0.35525   0.00000  Uiso   1.00
C59    C     0.64416   0.01388   0.25236   0.00000  Uiso   1.00
C60    C     0.65183   0.06844   0.25145   0.00000  Uiso   1.00
C61    C     0.63069   0.16265   0.14477   0.00000  Uiso   1.00
C62    C     0.60005   0.09055   0.00396   0.00000  Uiso   1.00
C63    C     0.60957   0.15079   0.08499   0.00000  Uiso   1.00
C64    C     0.35803   0.19865   0.44997   0.00000  Uiso   1.00
C65    C     0.37925   0.20545   0.00771   0.00000  Uiso   1.00
C66    C     0.43152   0.18512   0.03226   0.00000  Uiso   1.00
H67    H     0.33938   0.09585   0.07411   0.00000  Uiso   1.00
H68    H     0.60163   0.33005   0.25654   0.00000  Uiso   1.00
H69    H     0.48987   0.12485   0.20839   0.00000  Uiso   1.00
H70    H     0.51015   0.20840   0.29172   0.00000  Uiso   1.00
H71    H     0.52723   0.05453   0.40859   0.00000  Uiso   1.00
H72    H     0.61787   0.06075   0.48105   0.00000  Uiso   1.00
H73    H     0.54528   0.20469   0.08196   0.00000  Uiso   1.00
H74    H     0.65292   0.21763   0.43150   0.00000  Uiso   1.00
H75    H     0.35510   0.22713   0.03329   0.00000  Uiso   1.00
H76    H     0.43357   0.08613   0.37071   0.00000  Uiso   1.00
H77    H     0.39850   0.00332   0.24385   0.00000  Uiso   1.00
N78    N     0.47827   0.15223   0.23542   0.00000  Uiso   1.00
N79    N     0.52173   0.18110   0.26457   0.00000  Uiso   1.00
O80    O     0.63102   0.24629   0.25357   0.00000  Uiso   1.00
O81    O     0.39075   0.23704   0.24423   0.00000  Uiso   1.00
O82    O     0.64823   0.17358   0.33380   0.00000  Uiso   1.00
O83    O     0.40796   0.16433   0.32446   0.00000  Uiso   1.00
O84    O     0.60925   0.09629   0.25577   0.00000  Uiso   1.00
O85    O     0.36898   0.08704   0.24643   0.00000  Uiso   1.00
O86    O     0.59204   0.16901   0.17554   0.00000  Uiso   1.00
O87    O     0.35177   0.15976   0.16620   0.00000  Uiso   1.00
Zn88   Zn    0.60453   0.17284   0.25624   0.00000  Uiso   1.00
Zn89   Zn    0.39547   0.16049   0.24376   0.00000  Uiso   1.00
N90    N     0.44921   0.18792   0.09280   0.00000  Uiso   1.00
H91    H     0.42337   0.21188   0.11147   0.00000  Uiso   1.00
H92    H     0.44257   0.15028   0.10639   0.00000  Uiso   1.00
C93    C     0.68154   0.26490   0.24866   0.00000  Uiso   1.00
C94    C     0.79629   0.15761   0.49712   0.00000  Uiso   1.00
C95    C     0.76861   0.14265   0.44108   0.00000  Uiso   1.00
C96    C     0.85417   0.14438   0.01496   0.00000  Uiso   1.00
C97    C     0.87737   0.10621   0.48361   0.00000  Uiso   1.00
C98    C     0.84427   0.08449   0.43267   0.00000  Uiso   1.00
C99    C     0.79091   0.10326   0.41095   0.00000  Uiso   1.00
C100   C     0.89079   0.17030   0.06151   0.00000  Uiso   1.00
C101   C     0.96536   0.11152   0.05587   0.00000  Uiso   1.00
C102   C     0.71971   0.16809   0.41637   0.00000  Uiso   1.00
C103   C     0.68930   0.31948   0.24799   0.00000  Uiso   1.00
C104   C     0.70215   0.16819   0.35525   0.00000  Uiso   1.00
C105   C     0.97749   0.01388   0.25236   0.00000  Uiso   1.00
C106   C     0.98517   0.06844   0.25145   0.00000  Uiso   1.00
C107   C     0.96403   0.16265   0.14477   0.00000  Uiso   1.00
C108   C     0.93338   0.09055   0.00396   0.00000  Uiso   1.00
C109   C     0.94291   0.15079   0.08499   0.00000  Uiso   1.00
C110   C     0.69137   0.19865   0.44997   0.00000  Uiso   1.00
C111   C     0.71258   0.20545   0.00771   0.00000  Uiso   1.00
C112   C     0.76486   0.18512   0.03226   0.00000  Uiso   1.00
H113   H     0.67271   0.09585   0.07411   0.00000  Uiso   1.00
H114   H     0.93496   0.33005   0.25654   0.00000  Uiso   1.00
H115   H     0.82321   0.12485   0.20839   0.00000  Uiso   1.00
H116   H     0.84349   0.20840   0.29172   0.00000  Uiso   1.00
H117   H     0.86056   0.05453   0.40859   0.00000  Uiso   1.00
H118   H     0.95120   0.06075   0.48105   0.00000  Uiso   1.00
H119   H     0.87862   0.20469   0.08196   0.00000  Uiso   1.00
H120   H     0.98625   0.21763   0.43150   0.00000  Uiso   1.00
H121   H     0.68843   0.22713   0.03329   0.00000  Uiso   1.00
H122   H     0.76691   0.08613   0.37071   0.00000  Uiso   1.00
H123   H     0.73184   0.00332   0.24385   0.00000  Uiso   1.00
N124   N     0.81160   0.15223   0.23542   0.00000  Uiso   1.00
N125   N     0.85507   0.18110   0.26457   0.00000  Uiso   1.00
O126   O     0.96435   0.24629   0.25357   0.00000  Uiso   1.00
O127   O     0.72408   0.23704   0.24423   0.00000  Uiso   1.00
O128   O     0.98157   0.17358   0.33380   0.00000  Uiso   1.00
O129   O     0.74130   0.16433   0.32446   0.00000  Uiso   1.00
O130   O     0.94258   0.09629   0.25577   0.00000  Uiso   1.00
O131   O     0.70231   0.08704   0.24643   0.00000  Uiso   1.00
O132   O     0.92537   0.16901   0.17554   0.00000  Uiso   1.00
O133   O     0.68510   0.15976   0.16620   0.00000  Uiso   1.00
Zn134  Zn    0.93786   0.17284   0.25624   0.00000  Uiso   1.00
Zn135  Zn    0.72881   0.16049   0.24376   0.00000  Uiso   1.00
N136   N     0.78255   0.18792   0.09280   0.00000  Uiso   1.00
H137   H     0.75670   0.21188   0.11147   0.00000  Uiso   1.00
H138   H     0.77590   0.15028   0.10639   0.00000  Uiso   1.00
C139   C     0.01487   0.59824   0.24866   0.00000  Uiso   1.00
C140   C     0.12963   0.49094   0.49712   0.00000  Uiso   1.00
C141   C     0.10194   0.47599   0.44108   0.00000  Uiso   1.00
C142   C     0.18750   0.47771   0.01496   0.00000  Uiso   1.00
C143   C     0.21070   0.43955   0.48361   0.00000  Uiso   1.00
C144   C     0.17760   0.41783   0.43267   0.00000  Uiso   1.00
C145   C     0.12425   0.43660   0.41095   0.00000  Uiso   1.00
C146   C     0.22413   0.50364   0.06151   0.00000  Uiso   1.00
C147   C     0.29869   0.44486   0.05587   0.00000  Uiso   1.00
C148   C     0.05305   0.50143   0.41637   0.00000  Uiso   1.00
C149   C     0.02263   0.65282   0.24799   0.00000  Uiso   1.00
C150   C     0.03549   0.50153   0.35525   0.00000  Uiso   1.00
C151   C     0.31082   0.34721   0.25236   0.00000  Uiso   1.00
C152   C     0.31850   0.40177   0.25145   0.00000  Uiso   1.00
C153   C     0.29736   0.49598   0.14477   0.00000  Uiso   1.00
C154   C     0.26672   0.42388   0.00396   0.00000  Uiso   1.00
C155   C     0.27624   0.48412   0.08499   0.00000  Uiso   1.00
C156   C     0.02470   0.53198   0.44997   0.00000  Uiso   1.00
C157   C     0.04591   0.53878   0.00771   0.00000  Uiso   1.00
C158   C     0.09819   0.51845   0.03226   0.00000  Uiso   1.00
H159   H     0.00605   0.42918   0.07411   0.00000  Uiso   1.00
H160   H     0.26830   0.66338   0.25654   0.00000  Uiso   1.00
H161   H     0.15654   0.45818   0.20839   0.00000  Uiso   1.00
H162   H     0.17682   0.54174   0.29172   0.00000  Uiso   1.00
H163   H     0.19390   0.38786   0.40859   0.00000  Uiso   1.00
H164   H     0.28453   0.39408   0.48105   0.00000  Uiso   1.00
H165   H     0.21195   0.53803   0.08196   0.00000  Uiso   1.00
H166   H     0.31959   0.55096   0.43150   0.00000  Uiso   1.00
H167   H     0.02176   0.56046   0.03329   0.00000  Uiso   1.00
H168   H     0.10024   0.41946   0.37071   0.00000  Uiso   1.00
H169   H     0.06517   0.33665   0.24385   0.00000  Uiso   1.00
N170   N     0.14493   0.48556   0.23542   0.00000  Uiso   1.00
N171   N     0.18840   0.51444   0.26457   0.00000  Uiso   1.00
O172   O     0.29769   0.57963   0.25357   0.00000  Uiso   1.00
O173   O     0.05742   0.57038   0.24423   0.00000  Uiso   1.00
O174   O     0.31490   0.50691   0.33380   0.00000  Uiso   1.00
O175   O     0.07463   0.49766   0.32446   0.00000  Uiso   1.00
O176   O     0.27592   0.42962   0.25577   0.00000  Uiso   1.00
O177   O     0.03565   0.42037   0.24643   0.00000  Uiso   1.00
O178   O     0.25870   0.50234   0.17554   0.00000  Uiso   1.00
O179   O     0.01843   0.49309   0.16620   0.00000  Uiso   1.00
Zn180  Zn    0.27119   0.50618   0.25624   0.00000  Uiso   1.00
Zn181  Zn    0.06214   0.49382   0.24376   0.00000  Uiso   1.00
N182   N     0.11588   0.52125   0.09280   0.00000  Uiso   1.00
H183   H     0.09003   0.54521   0.11147   0.00000  Uiso   1.00
H184   H     0.10924   0.48361   0.10639   0.00000  Uiso   1.00
C185   C     0.34821   0.59824   0.24866   0.00000  Uiso   1.00
C186   C     0.46296   0.49094   0.49712   0.00000  Uiso   1.00
C187   C     0.43527   0.47599   0.44108   0.00000  Uiso   1.00
C188   C     0.52084   0.47771   0.01496   0.00000  Uiso   1.00
C189   C     0.54404   0.43955   0.48361   0.00000  Uiso   1.00
C190   C     0.51094   0.41783   0.43267   0.00000  Uiso   1.00
C191   C     0.45758   0.43660   0.41095   0.00000  Uiso   1.00
C192   C     0.55746   0.50364   0.06151   0.00000  Uiso   1.00
C193   C     0.63203   0.44486   0.05587   0.00000  Uiso   1.00
C194   C     0.38638   0.50143   0.41637   0.00000  Uiso   1.00
C195   C     0.35597   0.65282   0.24799   0.00000  Uiso   1.00
C196   C     0.36882   0.50153   0.35525   0.00000  Uiso   1.00
C197   C     0.64416   0.34721   0.25236   0.00000  Uiso   1.00
C198   C     0.65183   0.40177   0.25145   0.00000  Uiso   1.00
C199   C     0.63069   0.49598   0.14477   0.00000  Uiso   1.00
C200   C     0.60005   0.42388   0.00396   0.00000  Uiso   1.00
C201   C     0.60957   0.48412   0.08499   0.00000  Uiso   1.00
C202   C     0.35803   0.53198   0.44997   0.00000  Uiso   1.00
C203   C     0.37925   0.53878   0.00771   0.00000  Uiso   1.00
C204   C     0.43152   0.51845   0.03226   0.00000  Uiso   1.00
H205   H     0.33938   0.42918   0.07411   0.00000  Uiso   1.00
H206   H     0.60163   0.66338   0.25654   0.00000  Uiso   1.00
H207   H     0.48987   0.45818   0.20839   0.00000  Uiso   1.00
H208   H     0.51015   0.54174   0.29172   0.00000  Uiso   1.00
H209   H     0.52723   0.38786   0.40859   0.00000  Uiso   1.00
H210   H     0.61787   0.39408   0.48105   0.00000  Uiso   1.00
H211   H     0.54528   0.53803   0.08196   0.00000  Uiso   1.00
H212   H     0.65292   0.55096   0.43150   0.00000  Uiso   1.00
H213   H     0.35510   0.56046   0.03329   0.00000  Uiso   1.00
H214   H     0.43357   0.41946   0.37071   0.00000  Uiso   1.00
H215   H     0.39850   0.33665   0.24385   0.00000  Uiso   1.00
N216   N     0.47827   0.48556   0.23542   0.00000  Uiso   1.00
N217   N     0.52173   0.51444   0.26457   0.00000  Uiso   1.00
O218   O     0.63102   0.57963   0.25357   0.00000  Uiso   1.00
O219   O     0.39075   0.57038   0.24423   0.00000  Uiso   1.00
O220   O     0.64823   0.50691   0.33380   0.00000  Uiso   1.00
O221   O     0.40796   0.49766   0.32446   0.00000  Uiso   1.00
O222   O     0.60925   0.42962   0.25577   0.00000  Uiso   1.00
O223   O     0.36898   0.42037   0.24643   0.00000  Uiso   1.00
O224   O     0.59204   0.50234   0.17554   0.00000  Uiso   1.00
O225   O     0.35177   0.49309   0.16620   0.00000  Uiso   1.00
Zn226  Zn    0.60453   0.50618   0.25624   0.00000  Uiso   1.00
Zn227  Zn    0.39547   0.49382   0.24376   0.00000  Uiso   1.00
N228   N     0.44921   0.52125   0.09280   0.00000  Uiso   1.00
H229   H     0.42337   0.54521   0.11147   0.00000  Uiso   1.00
H230   H     0.44257   0.48361   0.10639   0.00000  Uiso   1.00
C231   C     0.68154   0.59824   0.24866   0.00000  Uiso   1.00
C232   C     0.79629   0.49094   0.49712   0.00000  Uiso   1.00
C233   C     0.76861   0.47599   0.44108   0.00000  Uiso   1.00
C234   C     0.85417   0.47771   0.01496   0.00000  Uiso   1.00
C235   C     0.87737   0.43955   0.48361   0.00000  Uiso   1.00
C236   C     0.84427   0.41783   0.43267   0.00000  Uiso   1.00
C237   C     0.79091   0.43660   0.41095   0.00000  Uiso   1.00
C238   C     0.89079   0.50364   0.06151   0.00000  Uiso   1.00
C239   C     0.96536   0.44486   0.05587   0.00000  Uiso   1.00
C240   C     0.71971   0.50143   0.41637   0.00000  Uiso   1.00
C241   C     0.68930   0.65282   0.24799   0.00000  Uiso   1.00
C242   C     0.70215   0.50153   0.35525   0.00000  Uiso   1.00
C243   C     0.97749   0.34721   0.25236   0.00000  Uiso   1.00
C244   C     0.98517   0.40177   0.25145   0.00000  Uiso   1.00
C245   C     0.96403   0.49598   0.14477   0.00000  Uiso   1.00
C246   C     0.93338   0.42388   0.00396   0.00000  Uiso   1.00
C247   C     0.94291   0.48412   0.08499   0.00000  Uiso   1.00
C248   C     0.69137   0.53198   0.44997   0.00000  Uiso   1.00
C249   C     0.71258   0.53878   0.00771   0.00000  Uiso   1.00
C250   C     0.76486   0.51845   0.03226   0.00000  Uiso   1.00
H251   H     0.67271   0.42918   0.07411   0.00000  Uiso   1.00
H252   H     0.93496   0.66338   0.25654   0.00000  Uiso   1.00
H253   H     0.82321   0.45818   0.20839   0.00000  Uiso   1.00
H254   H     0.84349   0.54174   0.29172   0.00000  Uiso   1.00
H255   H     0.86056   0.38786   0.40859   0.00000  Uiso   1.00
H256   H     0.95120   0.39408   0.48105   0.00000  Uiso   1.00
H257   H     0.87862   0.53803   0.08196   0.00000  Uiso   1.00
H258   H     0.98625   0.55096   0.43150   0.00000  Uiso   1.00
H259   H     0.68843   0.56046   0.03329   0.00000  Uiso   1.00
H260   H     0.76691   0.41946   0.37071   0.00000  Uiso   1.00
H261   H     0.73184   0.33665   0.24385   0.00000  Uiso   1.00
N262   N     0.81160   0.48556   0.23542   0.00000  Uiso   1.00
N263   N     0.85507   0.51444   0.26457   0.00000  Uiso   1.00
O264   O     0.96435   0.57963   0.25357   0.00000  Uiso   1.00
O265   O     0.72408   0.57038   0.24423   0.00000  Uiso   1.00
O266   O     0.98157   0.50691   0.33380   0.00000  Uiso   1.00
O267   O     0.74130   0.49766   0.32446   0.00000  Uiso   1.00
O268   O     0.94258   0.42962   0.25577   0.00000  Uiso   1.00
O269   O     0.70231   0.42037   0.24643   0.00000  Uiso   1.00
O270   O     0.92537   0.50234   0.17554   0.00000  Uiso   1.00
O271   O     0.68510   0.49309   0.16620   0.00000  Uiso   1.00
Zn272  Zn    0.93786   0.50618   0.25624   0.00000  Uiso   1.00
Zn273  Zn    0.72881   0.49382   0.24376   0.00000  Uiso   1.00
N274   N     0.78255   0.52125   0.09280   0.00000  Uiso   1.00
H275   H     0.75670   0.54521   0.11147   0.00000  Uiso   1.00
H276   H     0.77590   0.48361   0.10639   0.00000  Uiso   1.00
C277   C     0.01487   0.93157   0.24866   0.00000  Uiso   1.00
C278   C     0.12963   0.82428   0.49712   0.00000  Uiso   1.00
C279   C     0.10194   0.80932   0.44108   0.00000  Uiso   1.00
C280   C     0.18750   0.81105   0.01496   0.00000  Uiso   1.00
C281   C     0.21070   0.77288   0.48361   0.00000  Uiso   1.00
C282   C     0.17760   0.75116   0.43267   0.00000  Uiso   1.00
C283   C     0.12425   0.76993   0.41095   0.00000  Uiso   1.00
C284   C     0.22413   0.83697   0.06151   0.00000  Uiso   1.00
C285   C     0.29869   0.77819   0.05587   0.00000  Uiso   1.00
C286   C     0.05305   0.83476   0.41637   0.00000  Uiso   1.00
C287   C     0.02263   0.98615   0.24799   0.00000  Uiso   1.00
C288   C     0.03549   0.83486   0.35525   0.00000  Uiso   1.00
C289   C     0.31082   0.68055   0.25236   0.00000  Uiso   1.00
C290   C     0.31850   0.73511   0.25145   0.00000  Uiso   1.00
C291   C     0.29736   0.82931   0.14477   0.00000  Uiso   1.00
C292   C     0.26672   0.75721   0.00396   0.00000  Uiso   1.00
C293   C     0.27624   0.81745   0.08499   0.00000  Uiso   1.00
C294   C     0.02470   0.86532   0.44997   0.00000  Uiso   1.00
C295   C     0.04591   0.87212   0.00771   0.00000  Uiso   1.00
C296   C     0.09819   0.85179   0.03226   0.00000  Uiso   1.00
H297   H     0.00605   0.76251   0.07411   0.00000  Uiso   1.00
H298   H     0.26830   0.99672   0.25654   0.00000  Uiso   1.00
H299   H     0.15654   0.79152   0.20839   0.00000  Uiso   1.00
H300   H     0.17682   0.87507   0.29172   0.00000  Uiso   1.00
H301   H     0.19390   0.72119   0.40859   0.00000  Uiso   1.00
H302   H     0.28453   0.72741   0.48105   0.00000  Uiso   1.00
H303   H     0.21195   0.87136   0.08196   0.00000  Uiso   1.00
H304   H     0.31959   0.88430   0.43150   0.00000  Uiso   1.00
H305   H     0.02176   0.89379   0.03329   0.00000  Uiso   1.00
H306   H     0.10024   0.75279   0.37071   0.00000  Uiso   1.00
H307   H     0.06517   0.66998   0.24385   0.00000  Uiso   1.00
N308   N     0.14493   0.81890   0.23542   0.00000  Uiso   1.00
N309   N     0.18840   0.84777   0.26457   0.00000  Uiso   1.00
O310   O     0.29769   0.91296   0.25357   0.00000  Uiso   1.00
O311   O     0.05742   0.90371   0.24423   0.00000  Uiso   1.00
O312   O     0.31490   0.84024   0.33380   0.00000  Uiso   1.00
O313   O     0.07463   0.83099   0.32446   0.00000  Uiso   1.00
O314   O     0.27592   0.76296   0.25577   0.00000  Uiso   1.00
O315   O     0.03565   0.75371   0.24643   0.00000  Uiso   1.00
O316   O     0.25870   0.83567   0.17554   0.00000  Uiso   1.00
O317   O     0.01843   0.82642   0.16620   0.00000  Uiso   1.00
Zn318  Zn    0.27119   0.83951   0.25624   0.00000  Uiso   1.00
Zn319  Zn    0.06214   0.82716   0.24376   0.00000  Uiso   1.00
N320   N     0.11588   0.85458   0.09280   0.00000  Uiso   1.00
H321   H     0.09003   0.87855   0.11147   0.00000  Uiso   1.00
H322   H     0.10924   0.81695   0.10639   0.00000  Uiso   1.00
C323   C     0.34821   0.93157   0.24866   0.00000  Uiso   1.00
C324   C     0.46296   0.82428   0.49712   0.00000  Uiso   1.00
C325   C     0.43527   0.80932   0.44108   0.00000  Uiso   1.00
C326   C     0.52084   0.81105   0.01496   0.00000  Uiso   1.00
C327   C     0.54404   0.77288   0.48361   0.00000  Uiso   1.00
C328   C     0.51094   0.75116   0.43267   0.00000  Uiso   1.00
C329   C     0.45758   0.76993   0.41095   0.00000  Uiso   1.00
C330   C     0.55746   0.83697   0.06151   0.00000  Uiso   1.00
C331   C     0.63203   0.77819   0.05587   0.00000  Uiso   1.00
C332   C     0.38638   0.83476   0.41637   0.00000  Uiso   1.00
C333   C     0.35597   0.98615   0.24799   0.00000  Uiso   1.00
C334   C     0.36882   0.83486   0.35525   0.00000  Uiso   1.00
C335   C     0.64416   0.68055   0.25236   0.00000  Uiso   1.00
C336   C     0.65183   0.73511   0.25145   0.00000  Uiso   1.00
C337   C     0.63069   0.82931   0.14477   0.00000  Uiso   1.00
C338   C     0.60005   0.75721   0.00396   0.00000  Uiso   1.00
C339   C     0.60957   0.81745   0.08499   0.00000  Uiso   1.00
C340   C     0.35803   0.86532   0.44997   0.00000  Uiso   1.00
C341   C     0.37925   0.87212   0.00771   0.00000  Uiso   1.00
C342   C     0.43152   0.85179   0.03226   0.00000  Uiso   1.00
H343   H     0.33938   0.76251   0.07411   0.00000  Uiso   1.00
H344   H     0.60163   0.99672   0.25654   0.00000  Uiso   1.00
H345   H     0.48987   0.79152   0.20839   0.00000  Uiso   1.00
H346   H     0.51015   0.87507   0.29172   0.00000  Uiso   1.00
H347   H     0.52723   0.72119   0.40859   0.00000  Uiso   1.00
H348   H     0.61787   0.72741   0.48105   0.00000  Uiso   1.00
H349   H     0.54528   0.87136   0.08196   0.00000  Uiso   1.00
H350   H     0.65292   0.88430   0.43150   0.00000  Uiso   1.00
H351   H     0.35510   0.89379   0.03329   0.00000  Uiso   1.00
H352   H     0.43357   0.75279   0.37071   0.00000  Uiso   1.00
H353   H     0.39850   0.66998   0.24385   0.00000  Uiso   1.00
N354   N     0.47827   0.81890   0.23542   0.00000  Uiso   1.00
N355   N     0.52173   0.84777   0.26457   0.00000  Uiso   1.00
O356   O     0.63102   0.91296   0.25357   0.00000  Uiso   1.00
O357   O     0.39075   0.90371   0.24423   0.00000  Uiso   1.00
O358   O     0.64823   0.84024   0.33380   0.00000  Uiso   1.00
O359   O     0.40796   0.83099   0.32446   0.00000  Uiso   1.00
O360   O     0.60925   0.76296   0.25577   0.00000  Uiso   1.00
O361   O     0.36898   0.75371   0.24643   0.00000  Uiso   1.00
O362   O     0.59204   0.83567   0.17554   0.00000  Uiso   1.00
O363   O     0.35177   0.82642   0.16620   0.00000  Uiso   1.00
Zn364  Zn    0.60453   0.83951   0.25624   0.00000  Uiso   1.00
Zn365  Zn    0.39547   0.82716   0.24376   0.00000  Uiso   1.00
N366   N     0.44921   0.85458   0.09280   0.00000  Uiso   1.00
H367   H     0.42337   0.87855   0.11147   0.00000  Uiso   1.00
H368   H     0.44257   0.81695   0.10639   0.00000  Uiso   1.00
C369   C     0.68154   0.93157   0.24866   0.00000  Uiso   1.00
C370   C     0.79629   0.82428   0.49712   0.00000  Uiso   1.00
C371   C     0.76861   0.80932   0.44108   0.00000  Uiso   1.00
C372   C     0.85417   0.81105   0.01496   0.00000  Uiso   1.00
C373   C     0.87737   0.77288   0.48361   0.00000  Uiso   1.00
C374   C     0.84427   0.75116   0.43267   0.00000  Uiso   1.00
C375   C     0.79091   0.76993   0.41095   0.00000  Uiso   1.00
C376   C     0.89079   0.83697   0.06151   0.00000  Uiso   1.00
C377   C     0.96536   0.77819   0.05587   0.00000  Uiso   1.00
C378   C     0.71971   0.83476   0.41637   0.00000  Uiso   1.00
C379   C     0.68930   0.98615   0.24799   0.00000  Uiso   1.00
C380   C     0.70215   0.83486   0.35525   0.00000  Uiso   1.00
C381   C     0.97749   0.68055   0.25236   0.00000  Uiso   1.00
C382   C     0.98517   0.73511   0.25145   0.00000  Uiso   1.00
C383   C     0.96403   0.82931   0.14477   0.00000  Uiso   1.00
C384   C     0.93338   0.75721   0.00396   0.00000  Uiso   1.00
C385   C     0.94291   0.81745   0.08499   0.00000  Uiso   1.00
C386   C     0.69137   0.86532   0.44997   0.00000  Uiso   1.00
C387   C     0.71258   0.87212   0.00771   0.00000  Uiso   1.00
C388   C     0.76486   0.85179   0.03226   0.00000  Uiso   1.00
H389   H     0.67271   0.76251   0.07411   0.00000  Uiso   1.00
H390   H     0.93496   0.99672   0.25654   0.00000  Uiso   1.00
H391   H     0.82321   0.79152   0.20839   0.00000  Uiso   1.00
H392   H     0.84349   0.87507   0.29172   0.00000  Uiso   1.00
H393   H     0.86056   0.72119   0.40859   0.00000  Uiso   1.00
H394   H     0.95120   0.72741   0.48105   0.00000  Uiso   1.00
H395   H     0.87862   0.87136   0.08196   0.00000  Uiso   1.00
H396   H     0.98625   0.88430   0.43150   0.00000  Uiso   1.00
H397   H     0.68843   0.89379   0.03329   0.00000  Uiso   1.00
H398   H     0.76691   0.75279   0.37071   0.00000  Uiso   1.00
H399   H     0.73184   0.66998   0.24385   0.00000  Uiso   1.00
N400   N     0.81160   0.81890   0.23542   0.00000  Uiso   1.00
N401   N     0.85507   0.84777   0.26457   0.00000  Uiso   1.00
O402   O     0.96435   0.91296   0.25357   0.00000  Uiso   1.00
O403   O     0.72408   0.90371   0.24423   0.00000  Uiso   1.00
O404   O     0.98157   0.84024   0.33380   0.00000  Uiso   1.00
O405   O     0.74130   0.83099   0.32446   0.00000  Uiso   1.00
O406   O     0.94258   0.76296   0.25577   0.00000  Uiso   1.00
O407   O     0.70231   0.75371   0.24643   0.00000  Uiso   1.00
O408   O     0.92537   0.83567   0.17554   0.00000  Uiso   1.00
O409   O     0.68510   0.82642   0.16620   0.00000  Uiso   1.00
Zn410  Zn    0.93786   0.83951   0.25624   0.00000  Uiso   1.00
Zn411  Zn    0.72881   0.82716   0.24376   0.00000  Uiso   1.00
N412   N     0.78255   0.85458   0.09280   0.00000  Uiso   1.00
H413   H     0.75670   0.87855   0.11147   0.00000  Uiso   1.00
H414   H     0.77590   0.81695   0.10639   0.00000  Uiso   1.00
C415   C     0.01487   0.26490   0.74866   0.00000  Uiso   1.00
C416   C     0.12963   0.15761   0.99712   0.00000  Uiso   1.00
C417   C     0.10194   0.14265   0.94108   0.00000  Uiso   1.00
C418   C     0.18750   0.14438   0.51496   0.00000  Uiso   1.00
C419   C     0.21070   0.10621   0.98361   0.00000  Uiso   1.00
C420   C     0.17760   0.08449   0.93267   0.00000  Uiso   1.00
C421   C     0.12425   0.10326   0.91095   0.00000  Uiso   1.00
C422   C     0.22413   0.17030   0.56151   0.00000  Uiso   1.00
C423   C     0.29869   0.11152   0.55587   0.00000  Uiso   1.00
C424   C     0.05305   0.16809   0.91637   0.00000  Uiso   1.00
C425   C     0.02263   0.31948   0.74799   0.00000  Uiso   1.00
C426   C     0.03549   0.16819   0.85525   0.00000  Uiso   1.00
C427   C     0.31082   0.01388   0.75236   0.00000  Uiso   1.00
C428   C     0.31850   0.06844   0.75145   0.00000  Uiso   1.00
C429   C     0.29736   0.16265   0.64477   0.00000  Uiso   1.00
C430   C     0.26672   0.09055   0.50396   0.00000  Uiso   1.00
C431   C     0.27624   0.15079   0.58499   0.00000  Uiso   1.00
C432   C     0.02470   0.19865   0.94997   0.00000  Uiso   1.00
C433   C     0.04591   0.20545   0.50771   0.00000  Uiso   1.00
C434   C     0.09819   0.18512   0.53226   0.00000  Uiso   1.00
H435   H     0.00605   0.09585   0.57411   0.00000  Uiso   1.00
H436   H     0.26830   0.33005   0.75654   0.00000  Uiso   1.00
H437   H     0.15654   0.12485   0.70839   0.00000  Uiso   1.00
H438   H     0.17682   0.20840   0.79172   0.00000  Uiso   1.00
H439   H     0.19390   0.05453   0.90859   0.00000  Uiso   1.00
H440   H     0.28453   0.06075   0.98105   0.00000  Uiso   1.00
H441   H     0.21195   0.20469   0.58196   0.00000  Uiso   1.00
H442   H     0.31959   0.21763   0.93150   0.00000  Uiso   1.00
H443   H     0.02176   0.22713   0.53329   0.00000  Uiso   1.00
H444   H     0.10024   0.08613   0.87071   0.00000  Uiso   1.00
H445   H     0.06517   0.00332   0.74385   0.00000  Uiso   1.00
N446   N     0.14493   0.15223   0.73542   0.00000  Uiso   1.00
N447   N     0.18840   0.18110   0.76457   0.00000  Uiso   1.00
O448   O     0.29769   0.24629   0.75357   0.00000  Uiso   1.00
O449   O     0.05742   0.23704   0.74423   0.00000  Uiso   1.00
O450   O     0.31490   0.17358   0.83380   0.00000  Uiso   1.00
O451   O     0.07463   0.16433   0.82446   0.00000  Uiso   1.00
O452   O     0.27592   0.09629   0.75577   0.00000  Uiso   1.00
O453   O     0.03565   0.08704   0.74643   0.00000  Uiso   1.00
O454   O     0.25870   0.16901   0.67554   0.00000  Uiso   1.00
O455   O     0.01843   0.15976   0.66620   0.00000  Uiso   1.00
Zn456  Zn    0.27119   0.17284   0.75624   0.00000  Uiso   1.00
Zn457  Zn    0.06214   0.16049   0.74376   0.00000  Uiso   1.00
N458   N     0.11588   0.18792   0.59280   0.00000  Uiso   1.00
H459   H     0.09003   0.21188   0.61147   0.00000  Uiso   1.00
H460   H     0.10924   0.15028   0.60639   0.00000  Uiso   1.00
C461   C     0.34821   0.26490   0.74866   0.00000  Uiso   1.00
C462   C     0.46296   0.15761   0.99712   0.00000  Uiso   1.00
C463   C     0.43527   0.14265   0.94108   0.00000  Uiso   1.00
C464   C     0.52084   0.14438   0.51496   0.00000  Uiso   1.00
C465   C     0.54404   0.10621   0.98361   0.00000  Uiso   1.00
C466   C     0.51094   0.08449   0.93267   0.00000  Uiso   1.00
C467   C     0.45758   0.10326   0.91095   0.00000  Uiso   1.00
C468   C     0.55746   0.17030   0.56151   0.00000  Uiso   1.00
C469   C     0.63203   0.11152   0.55587   0.00000  Uiso   1.00
C470   C     0.38638   0.16809   0.91637   0.00000  Uiso   1.00
C471   C     0.35597   0.31948   0.74799   0.00000  Uiso   1.00
C472   C     0.36882   0.16819   0.85525   0.00000  Uiso   1.00
C473   C     0.64416   0.01388   0.75236   0.00000  Uiso   1.00
C474   C     0.65183   0.06844   0.75145   0.00000  Uiso   1.00
C475   C     0.63069   0.16265   0.64477   0.00000  Uiso   1.00
C476   C     0.60005   0.09055   0.50396   0.00000  Uiso   1.00
C477   C     0.60957   0.15079   0.58499   0.00000  Uiso   1.00
C478   C     0.35803   0.19865   0.94997   0.00000  Uiso   1.00
C479   C     0.37925   0.20545   0.50771   0.00000  Uiso   1.00
C480   C     0.43152   0.18512   0.53226   0.00000  Uiso   1.00
H481   H     0.33938   0.09585   0.57411   0.00000  Uiso   1.00
H482   H     0.60163   0.33005   0.75654   0.00000  Uiso   1.00
H483   H     0.48987   0.12485   0.70839   0.00000  Uiso   1.00
H484   H     0.51015   0.20840   0.79172   0.00000  Uiso   1.00
H485   H     0.52723   0.05453   0.90859   0.00000  Uiso   1.00
H486   H     0.61787   0.06075   0.98105   0.00000  Uiso   1.00
H487   H     0.54528   0.20469   0.58196   0.00000  Uiso   1.00
H488   H     0.65292   0.21763   0.93150   0.00000  Uiso   1.00
H489   H     0.35510   0.22713   0.53329   0.00000  Uiso   1.00
H490   H     0.43357   0.08613   0.87071   0.00000  Uiso   1.00
H491   H     0.39850   0.00332   0.74385   0.00000  Uiso   1.00
N492   N     0.47827   0.15223   0.73542   0.00000  Uiso   1.00
N493   N     0.52173   0.18110   0.76457   0.00000  Uiso   1.00
O494   O     0.63102   0.24629   0.75357   0.00000  Uiso   1.00
O495   O     0.39075   0.23704   0.74423   0.00000  Uiso   1.00
O496   O     0.64823   0.17358   0.83380   0.00000  Uiso   1.00
O497   O     0.40796   0.16433   0.82446   0.00000  Uiso   1.00
O498   O     0.60925   0.09629   0.75577   0.00000  Uiso   1.00
O499   O     0.36898   0.08704   0.74643   0.00000  Uiso   1.00
O500   O     0.59204   0.16901   0.67554   0.00000  Uiso   1.00
O501   O     0.35177   0.15976   0.66620   0.00000  Uiso   1.00
Zn502  Zn    0.60453   0.17284   0.75624   0.00000  Uiso   1.00
Zn503  Zn    0.39547   0.16049   0.74376   0.00000  Uiso   1.00
N504   N     0.44921   0.18792   0.59280   0.00000  Uiso   1.00
H505   H     0.42337   0.21188   0.61147   0.00000  Uiso   1.00
H506   H     0.44257   0.15028   0.60639   0.00000  Uiso   1.00
C507   C     0.68154   0.26490   0.74866   0.00000  Uiso   1.00
C508   C     0.79629   0.15761   0.99712   0.00000  Uiso   1.00
C509   C     0.76861   0.14265   0.94108   0.00000  Uiso   1.00
C510   C     0.85417   0.14438   0.51496   0.00000  Uiso   1.00
C511   C     0.87737   0.10621   0.98361   0.00000  Uiso   1.00
C512   C     0.84427   0.08449   0.93267   0.00000  Uiso   1.00
C513   C     0.79091   0.10326   0.91095   0.00000  Uiso   1.00
C514   C     0.89079   0.17030   0.56151   0.00000  Uiso   1.00
C515   C     0.96536   0.11152   0.55587   0.00000  Uiso   1.00
C516   C     0.71971   0.16809   0.91637   0.00000  Uiso   1.00
C517   C     0.68930   0.31948   0.74799   0.00000  Uiso   1.00
C518   C     0.70215   0.16819   0.85525   0.00000  Uiso   1.00
C519   C     0.97749   0.01388   0.75236   0.00000  Uiso   1.00
C520   C     0.98517   0.06844   0.75145   0.00000  Uiso   1.00
C521   C     0.96403   0.16265   0.64477   0.00000  Uiso   1.00
C522   C     0.93338   0.09055   0.50396   0.00000  Uiso   1.00
C523   C     0.94291   0.15079   0.58499   0.00000  Uiso   1.00
C524   C     0.69137   0.19865   0.94997   0.00000  Uiso   1.00
C525   C     0.71258   0.20545   0.50771   0.00000  Uiso   1.00
C526   C     0.76486   0.18512   0.53226   0.00000  Uiso   1.00
H527   H     0.67271   0.09585   0.57411   0.00000  Uiso   1.00
H528   H     0.93496   0.33005   0.75654   0.00000  Uiso   1.00
H529   H     0.82321   0.12485   0.70839   0.00000  Uiso   1.00
H530   H     0.84349   0.20840   0.79172   0.00000  Uiso   1.00
H531   H     0.86056   0.05453   0.90859   0.00000  Uiso   1.00
H532   H     0.95120   0.06075   0.98105   0.00000  Uiso   1.00
H533   H     0.87862   0.20469   0.58196   0.00000  Uiso   1.00
H534   H     0.98625   0.21763   0.93150   0.00000  Uiso   1.00
H535   H     0.68843   0.22713   0.53329   0.00000  Uiso   1.00
H536   H     0.76691   0.08613   0.87071   0.00000  Uiso   1.00
H537   H     0.73184   0.00332   0.74385   0.00000  Uiso   1.00
N538   N     0.81160   0.15223   0.73542   0.00000  Uiso   1.00
N539   N     0.85507   0.18110   0.76457   0.00000  Uiso   1.00
O540   O     0.96435   0.24629   0.75357   0.00000  Uiso   1.00
O541   O     0.72408   0.23704   0.74423   0.00000  Uiso   1.00
O542   O     0.98157   0.17358   0.83380   0.00000  Uiso   1.00
O543   O     0.74130   0.16433   0.82446   0.00000  Uiso   1.00
O544   O     0.94258   0.09629   0.75577   0.00000  Uiso   1.00
O545   O     0.70231   0.08704   0.74643   0.00000  Uiso   1.00
O546   O     0.92537   0.16901   0.67554   0.00000  Uiso   1.00
O547   O     0.68510   0.15976   0.66620   0.00000  Uiso   1.00
Zn548  Zn    0.93786   0.17284   0.75624   0.00000  Uiso   1.00
Zn549  Zn    0.72881   0.16049   0.74376   0.00000  Uiso   1.00
N550   N     0.78255   0.18792   0.59280   0.00000  Uiso   1.00
H551   H     0.75670   0.21188   0.61147   0.00000  Uiso   1.00
H552   H     0.77590   0.15028   0.60639   0.00000  Uiso   1.00
C553   C     0.01487   0.59824   0.74866   0.00000  Uiso   1.00
C554   C     0.12963   0.49094   0.99712   0.00000  Uiso   1.00
C555   C     0.10194   0.47599   0.94108   0.00000  Uiso   1.00
C556   C     0.18750   0.47771   0.51496   0.00000  Uiso   1.00
C557   C     0.21070   0.43955   0.98361   0.00000  Uiso   1.00
C558   C     0.17760   0.41783   0.93267   0.00000  Uiso   1.00
C559   C     0.12425   0.43660   0.91095   0.00000  Uiso   1.00
C560   C     0.22413   0.50364   0.56151   0.00000  Uiso   1.00
C561   C     0.29869   0.44486   0.55587   0.00000  Uiso   1.00
C562   C     0.05305   0.50143   0.91637   0.00000  Uiso   1.00
C563   C     0.02263   0.65282   0.74799   0.00000  Uiso   1.00
C564   C     0.03549   0.50153   0.85525   0.00000  Uiso   1.00
C565   C     0.31082   0.34721   0.75236   0.00000  Uiso   1.00
C566   C     0.31850   0.40177   0.75145   0.00000  Uiso   1.00
C567   C     0.29736   0.49598   0.64477   0.00000  Uiso   1.00
C568   C     0.26672   0.42388   0.50396   0.00000  Uiso   1.00
C569   C     0.27624   0.48412   0.58499   0.00000  Uiso   1.00
C570   C     0.02470   0.53198   0.94997   0.00000  Uiso   1.00
C571   C     0.04591   0.53878   0.50771   0.00000  Uiso   1.00
C572   C     0.09819   0.51845   0.53226   0.00000  Uiso   1.00
H573   H     0.00605   0.42918   0.57411   0.00000  Uiso   1.00
H574   H     0.26830   0.66338   0.75654   0.00000  Uiso   1.00
H575   H     0.15654   0.45818   0.70839   0.00000  Uiso   1.00
H576   H     0.17682   0.54174   0.79172   0.00000  Uiso   1.00
H577   H     0.19390   0.38786   0.90859   0.00000  Uiso   1.00
H578   H     0.28453   0.39408   0.98105   0.00000  Uiso   1.00
H579   H     0.21195   0.53803   0.58196   0.00000  Uiso   1.00
H580   H     0.31959   0.55096   0.93150   0.00000  Uiso   1.00
H581   H     0.02176   0.56046   0.53329   0.00000  Uiso   1.00
H582   H     0.10024   0.41946   0.87071   0.00000  Uiso   1.00
H583   H     0.06517   0.33665   0.74385   0.00000  Uiso   1.00
N584   N     0.14493   0.48556   0.73542   0.00000  Uiso   1.00
N585   N     0.18840   0.51444   0.76457   0.00000  Uiso   1.00
O586   O     0.29769   0.57963   0.75357   0.00000  Uiso   1.00
O587   O     0.05742   0.57038   0.74423   0.00000  Uiso   1.00
O588   O     0.31490   0.50691   0.83380   0.00000  Uiso   1.00
O589   O     0.07463   0.49766   0.82446   0.00000  Uiso   1.00
O590   O     0.27592   0.42962   0.75577   0.00000  Uiso   1.00
O591   O     0.03565   0.42037   0.74643   0.00000  Uiso   1.00
O592   O     0.25870   0.50234   0.67554   0.00000  Uiso   1.00
O593   O     0.01843   0.49309   0.66620   0.00000  Uiso   1.00
Zn594  Zn    0.27119   0.50618   0.75624   0.00000  Uiso   1.00
Zn595  Zn    0.06214   0.49382   0.74376   0.00000  Uiso   1.00
N596   N     0.11588   0.52125   0.59280   0.00000  Uiso   1.00
H597   H     0.09003   0.54521   0.61147   0.00000  Uiso   1.00
H598   H     0.10924   0.48361   0.60639   0.00000  Uiso   1.00
C599   C     0.34821   0.59824   0.74866   0.00000  Uiso   1.00
C600   C     0.46296   0.49094   0.99712   0.00000  Uiso   1.00
C601   C     0.43527   0.47599   0.94108   0.00000  Uiso   1.00
C602   C     0.52084   0.47771   0.51496   0.00000  Uiso   1.00
C603   C     0.54404   0.43955   0.98361   0.00000  Uiso   1.00
C604   C     0.51094   0.41783   0.93267   0.00000  Uiso   1.00
C605   C     0.45758   0.43660   0.91095   0.00000  Uiso   1.00
C606   C     0.55746   0.50364   0.56151   0.00000  Uiso   1.00
C607   C     0.63203   0.44486   0.55587   0.00000  Uiso   1.00
C608   C     0.38638   0.50143   0.91637   0.00000  Uiso   1.00
C609   C     0.35597   0.65282   0.74799   0.00000  Uiso   1.00
C610   C     0.36882   0.50153   0.85525   0.00000  Uiso   1.00
C611   C     0.64416   0.34721   0.75236   0.00000  Uiso   1.00
C612   C     0.65183   0.40177   0.75145   0.00000  Uiso   1.00
C613   C     0.63069   0.49598   0.64477   0.00000  Uiso   1.00
C614   C     0.60005   0.42388   0.50396   0.00000  Uiso   1.00
C615   C     0.60957   0.48412   0.58499   0.00000  Uiso   1.00
C616   C     0.35803   0.53198   0.94997   0.00000  Uiso   1.00
C617   C     0.37925   0.53878   0.50771   0.00000  Uiso   1.00
C618   C     0.43152   0.51845   0.53226   0.00000  Uiso   1.00
H619   H     0.33938   0.42918   0.57411   0.00000  Uiso   1.00
H620   H     0.60163   0.66338   0.75654   0.00000  Uiso   1.00
H621   H     0.48987   0.45818   0.70839   0.00000  Uiso   1.00
H622   H     0.51015   0.54174   0.79172   0.00000  Uiso   1.00
H623   H     0.52723   0.38786   0.90859   0.00000  Uiso   1.00
H624   H     0.61787   0.39408   0.98105   0.00000  Uiso   1.00
H625   H     0.54528   0.53803   0.58196   0.00000  Uiso   1.00
H626   H     0.65292   0.55096   0.93150   0.00000  Uiso   1.00
H627   H     0.35510   0.56046   0.53329   0.00000  Uiso   1.00
H628   H     0.43357   0.41946   0.87071   0.00000  Uiso   1.00
H629   H     0.39850   0.33665   0.74385   0.00000  Uiso   1.00
N630   N     0.47827   0.48556   0.73542   0.00000  Uiso   1.00
N631   N     0.52173   0.51444   0.76457   0.00000  Uiso   1.00
O632   O     0.63102   0.57963   0.75357   0.00000  Uiso   1.00
O633   O     0.39075   0.57038   0.74423   0.00000  Uiso   1.00
O634   O     0.64823   0.50691   0.83380   0.00000  Uiso   1.00
O635   O     0.40796   0.49766   0.82446   0.00000  Uiso   1.00
O636   O     0.60925   0.42962   0.75577   0.00000  Uiso   1.00
O637   O     0.36898   0.42037   0.74643   0.00000  Uiso   1.00
O638   O     0.59204   0.50234   0.67554   0.00000  Uiso   1.00
O639   O     0.35177   0.49309   0.66620   0.00000  Uiso   1.00
Zn640  Zn    0.60453   0.50618   0.75624   0.00000  Uiso   1.00
Zn641  Zn    0.39547   0.49382   0.74376   0.00000  Uiso   1.00
N642   N     0.44921   0.52125   0.59280   0.00000  Uiso   1.00
H643   H     0.42337   0.54521   0.61147   0.00000  Uiso   1.00
H644   H     0.44257   0.48361   0.60639   0.00000  Uiso   1.00
C645   C     0.68154   0.59824   0.74866   0.00000  Uiso   1.00
C646   C     0.79629   0.49094   0.99712   0.00000  Uiso   1.00
C647   C     0.76861   0.47599   0.94108   0.00000  Uiso   1.00
C648   C     0.85417   0.47771   0.51496   0.00000  Uiso   1.00
C649   C     0.87737   0.43955   0.98361   0.00000  Uiso   1.00
C650   C     0.84427   0.41783   0.93267   0.00000  Uiso   1.00
C651   C     0.79091   0.43660   0.91095   0.00000  Uiso   1.00
C652   C     0.89079   0.50364   0.56151   0.00000  Uiso   1.00
C653   C     0.96536   0.44486   0.55587   0.00000  Uiso   1.00
C654   C     0.71971   0.50143   0.91637   0.00000  Uiso   1.00
C655   C     0.68930   0.65282   0.74799   0.00000  Uiso   1.00
C656   C     0.70215   0.50153   0.85525   0.00000  Uiso   1.00
C657   C     0.97749   0.34721   0.75236   0.00000  Uiso   1.00
C658   C     0.98517   0.40177   0.75145   0.00000  Uiso   1.00
C659   C     0.96403   0.49598   0.64477   0.00000  Uiso   1.00
C660   C     0.93338   0.42388   0.50396   0.00000  Uiso   1.00
C661   C     0.94291   0.48412   0.58499   0.00000  Uiso   1.00
C662   C     0.69137   0.53198   0.94997   0.00000  Uiso   1.00
C663   C     0.71258   0.53878   0.50771   0.00000  Uiso   1.00
C664   C     0.76486   0.51845   0.53226   0.00000  Uiso   1.00
H665   H     0.67271   0.42918   0.57411   0.00000  Uiso   1.00
H666   H     0.93496   0.66338   0.75654   0.00000  Uiso   1.00
H667   H     0.82321   0.45818   0.70839   0.00000  Uiso   1.00
H668   H     0.84349   0.54174   0.79172   0.00000  Uiso   1.00
H669   H     0.86056   0.38786   0.90859   0.00000  Uiso   1.00
H670   H     0.95120   0.39408   0.98105   0.00000  Uiso   1.00
H671   H     0.87862   0.53803   0.58196   0.00000  Uiso   1.00
H672   H     0.98625   0.55096   0.93150   0.00000  Uiso   1.00
H673   H     0.68843   0.56046   0.53329   0.00000  Uiso   1.00
H674   H     0.76691   0.41946   0.87071   0.00000  Uiso   1.00
H675   H     0.73184   0.33665   0.74385   0.00000  Uiso   1.00
N676   N     0.81160   0.48556   0.73542   0.00000  Uiso   1.00
N677   N     0.85507   0.51444   0.76457   0.00000  Uiso   1.00
O678   O     0.96435   0.57963   0.75357   0.00000  Uiso   1.00
O679   O     0.72408   0.57038   0.74423   0.00000  Uiso   1.00
O680   O     0.98157   0.50691   0.83380   0.00000  Uiso   1.00
O681   O     0.74130   0.49766   0.82446   0.00000  Uiso   1.00
O682   O     0.94258   0.42962   0.75577   0.00000  Uiso   1.00
O683   O     0.70231   0.42037   0.74643   0.00000  Uiso   1.00
O684   O     0.92537   0.50234   0.67554   0.00000  Uiso   1.00
O685   O     0.68510   0.49309   0.66620   0.00000  Uiso   1.00
Zn686  Zn    0.93786   0.50618   0.75624   0.00000  Uiso   1.00
Zn687  Zn    0.72881   0.49382   0.74376   0.00000  Uiso   1.00
N688   N     0.78255   0.52125   0.59280   0.00000  Uiso   1.00
H689   H     0.75670   0.54521   0.61147   0.00000  Uiso   1.00
H690   H     0.77590   0.48361   0.60639   0.00000  Uiso   1.00
C691   C     0.01487   0.93157   0.74866   0.00000  Uiso   1.00
C692   C     0.12963   0.82428   0.99712   0.00000  Uiso   1.00
C693   C     0.10194   0.80932   0.94108   0.00000  Uiso   1.00
C694   C     0.18750   0.81105   0.51496   0.00000  Uiso   1.00
C695   C     0.21070   0.77288   0.98361   0.00000  Uiso   1.00
C696   C     0.17760   0.75116   0.93267   0.00000  Uiso   1.00
C697   C     0.12425   0.76993   0.91095   0.00000  Uiso   1.00
C698   C     0.22413   0.83697   0.56151   0.00000  Uiso   1.00
C699   C     0.29869   0.77819   0.55587   0.00000  Uiso   1.00
C700   C     0.05305   0.83476   0.91637   0.00000  Uiso   1.00
C701   C     0.02263   0.98615   0.74799   0.00000  Uiso   1.00
C702   C     0.03549   0.83486   0.85525   0.00000  Uiso   1.00
C703   C     0.31082   0.68055   0.75236   0.00000  Uiso   1.00
C704   C     0.31850   0.73511   0.75145   0.00000  Uiso   1.00
C705   C     0.29736   0.82931   0.64477   0.00000  Uiso   1.00
C706   C     0.26672   0.75721   0.50396   0.00000  Uiso   1.00
C707   C     0.27624   0.81745   0.58499   0.00000  Uiso   1.00
C708   C     0.02470   0.86532   0.94997   0.00000  Uiso   1.00
C709   C     0.04591   0.87212   0.50771   0.00000  Uiso   1.00
C710   C     0.09819   0.85179   0.53226   0.00000  Uiso   1.00
H711   H     0.00605   0.76251   0.57411   0.00000  Uiso   1.00
H712   H     0.26830   0.99672   0.75654   0.00000  Uiso   1.00
H713   H     0.15654   0.79152   0.70839   0.00000  Uiso   1.00
H714   H     0.17682   0.87507   0.79172   0.00000  Uiso   1.00
H715   H     0.19390   0.72119   0.90859   0.00000  Uiso   1.00
H716   H     0.28453   0.72741   0.98105   0.00000  Uiso   1.00
H717   H     0.21195   0.87136   0.58196   0.00000  Uiso   1.00
H718   H     0.31959   0.88430   0.93150   0.00000  Uiso   1.00
H719   H     0.02176   0.89379   0.53329   0.00000  Uiso   1.00
H720   H     0.10024   0.75279   0.87071   0.00000  Uiso   1.00
H721   H     0.06517   0.66998   0.74385   0.00000  Uiso   1.00
N722   N     0.14493   0.81890   0.73542   0.00000  Uiso   1.00
N723   N     0.18840   0.84777   0.76457   0.00000  Uiso   1.00
O724   O     0.29769   0.91296   0.75357   0.00000  Uiso   1.00
O725   O     0.05742   0.90371   0.74423   0.00000  Uiso   1.00
O726   O     0.31490   0.84024   0.83380   0.00000  Uiso   1.00
O727   O     0.07463   0.83099   0.82446   0.00000  Uiso   1.00
O728   O     0.27592   0.76296   0.75577   0.00000  Uiso   1.00
O729   O     0.03565   0.75371   0.74643   0.00000  Uiso   1.00
O730   O     0.25870   0.83567   0.67554   0.00000  Uiso   1.00
O731   O     0.01843   0.82642   0.66620   0.00000  Uiso   1.00
Zn732  Zn    0.27119   0.83951   0.75624   0.00000  Uiso   1.00
Zn733  Zn    0.06214   0.82716   0.74376   0.00000  Uiso   1.00
N734   N     0.11588   0.85458   0.59280   0.00000  Uiso   1.00
H735   H     0.09003   0.87855   0.61147   0.00000  Uiso   1.00
H736   H     0.10924   0.81695   0.60639   0.00000  Uiso   1.00
C737   C     0.34821   0.93157   0.74866   0.00000  Uiso   1.00
C738   C     0.46296   0.82428   0.99712   0.00000  Uiso   1.00
C739   C     0.43527   0.80932   0.94108   0.00000  Uiso   1.00
C740   C     0.52084   0.81105   0.51496   0.00000  Uiso   1.00
C741   C     0.54404   0.77288   0.98361   0.00000  Uiso   1.00
C742   C     0.51094   0.75116   0.93267   0.00000  Uiso   1.00
C743   C     0.45758   0.76993   0.91095   0.00000  Uiso   1.00
C744   C     0.55746   0.83697   0.56151   0.00000  Uiso   1.00
C745   C     0.63203   0.77819   0.55587   0.00000  Uiso   1.00
C746   C     0.38638   0.83476   0.91637   0.00000  Uiso   1.00
C747   C     0.35597   0.98615   0.74799   0.00000  Uiso   1.00
C748   C     0.36882   0.83486   0.85525   0.00000  Uiso   1.00
C749   C     0.64416   0.68055   0.75236   0.00000  Uiso   1.00
C750   C     0.65183   0.73511   0.75145   0.00000  Uiso   1.00
C751   C     0.63069   0.82931   0.64477   0.00000  Uiso   1.00
C752   C     0.60005   0.75721   0.50396   0.00000  Uiso   1.00
C753   C     0.60957   0.81745   0.58499   0.00000  Uiso   1.00
C754   C     0.35803   0.86532   0.94997   0.00000  Uiso   1.00
C755   C     0.37925   0.87212   0.50771   0.00000  Uiso   1.00
C756   C     0.43152   0.85179   0.53226   0.00000  Uiso   1.00
H757   H     0.33938   0.76251   0.57411   0.00000  Uiso   1.00
H758   H     0.60163   0.99672   0.75654   0.00000  Uiso   1.00
H759   H     0.48987   0.79152   0.70839   0.00000  Uiso   1.00
H760   H     0.51015   0.87507   0.79172   0.00000  Uiso   1.00
H761   H     0.52723   0.72119   0.90859   0.00000  Uiso   1.00
H762   H     0.61787   0.72741   0.98105   0.00000  Uiso   1.00
H763   H     0.54528   0.87136   0.58196   0.00000  Uiso   1.00
H764   H     0.65292   0.88430   0.93150   0.00000  Uiso   1.00
H765   H     0.35510   0.89379   0.53329   0.00000  Uiso   1.00
H766   H     0.43357   0.75279   0.87071   0.00000  Uiso   1.00
H767   H     0.39850   0.66998   0.74385   0.00000  Uiso   1.00
N768   N     0.47827   0.81890   0.73542   0.00000  Uiso   1.00
N769   N     0.52173   0.84777   0.76457   0.00000  Uiso   1.00
O770   O     0.63102   0.91296   0.75357   0.00000  Uiso   1.00
O771   O     0.39075   0.90371   0.74423   0.00000  Uiso   1.00
O772   O     0.64823   0.84024   0.83380   0.00000  Uiso   1.00
O773   O     0.40796   0.83099   0.82446   0.00000  Uiso   1.00
O774   O     0.60925   0.76296   0.75577   0.00000  Uiso   1.00
O775   O     0.36898   0.75371   0.74643   0.00000  Uiso   1.00
O776   O     0.59204   0.83567   0.67554   0.00000  Uiso   1.00
O777   O     0.35177   0.82642   0.66620   0.00000  Uiso   1.00
Zn778  Zn    0.60453   0.83951   0.75624   0.00000  Uiso   1.00
Zn779  Zn    0.39547   0.82716   0.74376   0.00000  Uiso   1.00
N780   N     0.44921   0.85458   0.59280   0.00000  Uiso   1.00
H781   H     0.42337   0.87855   0.61147   0.00000  Uiso   1.00
H782   H     0.44257   0.81695   0.60639   0.00000  Uiso   1.00
C783   C     0.68154   0.93157   0.74866   0.00000  Uiso   1.00
C784   C     0.79629   0.82428   0.99712   0.00000  Uiso   1.00
C785   C     0.76861   0.80932   0.94108   0.00000  Uiso   1.00
C786   C     0.85417   0.81105   0.51496   0.00000  Uiso   1.00
C787   C     0.87737   0.77288   0.98361   0.00000  Uiso   1.00
C788   C     0.84427   0.75116   0.93267   0.00000  Uiso   1.00
C789   C     0.79091   0.76993   0.91095   0.00000  Uiso   1.00
C790   C     0.89079   0.83697   0.56151   0.00000  Uiso   1.00
C791   C     0.96536   0.77819   0.55587   0.00000  Uiso   1.00
C792   C     0.71971   0.83476   0.91637   0.00000  Uiso   1.00
C793   C     0.68930   0.98615   0.74799   0.00000  Uiso   1.00
C794   C     0.70215   0.83486   0.85525   0.00000  Uiso   1.00
C795   C     0.97749   0.68055   0.75236   0.00000  Uiso   1.00
C796   C     0.98517   0.73511   0.75145   0.00000  Uiso   1.00
C797   C     0.96403   0.82931   0.64477   0.00000  Uiso   1.00
C798   C     0.93338   0.75721   0.50396   0.00000  Uiso   1.00
C799   C     0.94291   0.81745   0.58499   0.00000  Uiso   1.00
C800   C     0.69137   0.86532   0.94997   0.00000  Uiso   1.00
C801   C     0.71258   0.87212   0.50771   0.00000  Uiso   1.00
C802   C     0.76486   0.85179   0.53226   0.00000  Uiso   1.00
H803   H     0.67271   0.76251   0.57411   0.00000  Uiso   1.00
H804   H     0.93496   0.99672   0.75654   0.00000  Uiso   1.00
H805   H     0.82321   0.79152   0.70839   0.00000  Uiso   1.00
H806   H     0.84349   0.87507   0.79172   0.00000  Uiso   1.00
H807   H     0.86056   0.72119   0.90859   0.00000  Uiso   1.00
H808   H     0.95120   0.72741   0.98105   0.00000  Uiso   1.00
H809   H     0.87862   0.87136   0.58196   0.00000  Uiso   1.00
H810   H     0.98625   0.88430   0.93150   0.00000  Uiso   1.00
H811   H     0.68843   0.89379   0.53329   0.00000  Uiso   1.00
H812   H     0.76691   0.75279   0.87071   0.00000  Uiso   1.00
H813   H     0.73184   0.66998   0.74385   0.00000  Uiso   1.00
N814   N     0.81160   0.81890   0.73542   0.00000  Uiso   1.00
N815   N     0.85507   0.84777   0.76457   0.00000  Uiso   1.00
O816   O     0.96435   0.91296   0.75357   0.00000  Uiso   1.00
O817   O     0.72408   0.90371   0.74423   0.00000  Uiso   1.00
O818   O     0.98157   0.84024   0.83380   0.00000  Uiso   1.00
O819   O     0.74130   0.83099   0.82446   0.00000  Uiso   1.00
O820   O     0.94258   0.76296   0.75577   0.00000  Uiso   1.00
O821   O     0.70231   0.75371   0.74643   0.00000  Uiso   1.00
O822   O     0.92537   0.83567   0.67554   0.00000  Uiso   1.00
O823   O     0.68510   0.82642   0.66620   0.00000  Uiso   1.00
Zn824  Zn    0.93786   0.83951   0.75624   0.00000  Uiso   1.00
Zn825  Zn    0.72881   0.82716   0.74376   0.00000  Uiso   1.00
N826   N     0.78255   0.85458   0.59280   0.00000  Uiso   1.00
H827   H     0.75670   0.87855   0.61147   0.00000  Uiso   1.00
H828   H     0.77590   0.81695   0.60639   0.00000  Uiso   1.00
loop_
_geom_bond_atom_site_label_1
_geom_bond_atom_site_label_2
_geom_bond_distance
_geom_bond_site_symmetry_2
_ccdc_geom_bond_type
C1     O35     1.290   .     A
C1     C11     1.403   .     S
C1     O126    1.277   1_455 S
C2     C3      1.407   .     A
C2     C418    1.413   .     S
C2     C434    1.430   .     S
C3     C10     1.404   .     A
C3     C7      1.415   .     A
C4     C8      1.387   .     A
C4     C416    1.413   1_554 S
C4     C419    1.420   1_554 S
C5     C6      1.391   .     A
C5     C418    1.420   .     S
C5     C430    1.404   .     S
C6     C7      1.388   .     A
C6     H25     1.084   .     S
C7     H30     1.082   .     S
C8     C17     1.381   .     A
C8     H27     1.080   .     S
C9     C17     1.401   .     A
C9     C16     1.394   .     A
C9     H67     1.083   .     S
C10    C12     1.453   .     S
C10    C18     1.400   .     A
C11    C243    1.339   1_455 S
C11    H169    1.088   .     S
C12    O37     1.300   .     A
C12    O128    1.290   1_455 S
C13    C14     1.403   .     S
C13    C333    1.339   1_545 S
C13    H298    1.088   1_545 S
C14    O38     1.290   .     A
C14    O85     1.277   .     S
C15    O40     1.298   .     A
C15    C17     1.444   .     S
C15    O87     1.289   .     S
C16    C419    1.404   1_554 S
C16    H440    1.084   1_554 S
C18    C433    1.385   .     S
C18    H120    1.083   1_455 S
C19    H29     1.083   .     S
C19    C20     1.401   .     A
C19    C432    1.385   1_554 S
C20    N44     1.437   .     S
C20    C416    1.430   1_554 S
H21    C101    1.083   1_455 S
H22    C151    1.088   .     S
H23    N32     1.029   .     S
H24    N33     1.029   .     S
H26    C430    1.084   .     S
H28    C64     1.083   .     S
H31    C287    1.088   1_545 S
N32    N33     1.286   .     D
N32    Zn43    2.020   .     S
N33    Zn42    2.020   .     S
O34    Zn42    1.953   .     S
O34    C47     1.277   .     S
O35    Zn43    1.979   .     S
O36    Zn42    1.949   .     S
O36    C58     1.290   .     S
O37    Zn43    1.912   .     S
O38    Zn42    1.979   .     S
O39    Zn43    1.953   .     S
O39    C106    1.277   1_455 S
O40    Zn42    1.912   .     S
O41    Zn43    1.949   .     S
O41    C107    1.289   1_455 S
N44    H46     1.045   .     S
N44    H45     1.046   .     S
C47    O81     1.290   .     A
C47    C57     1.403   .     S
C48    C49     1.407   .     A
C48    C464    1.413   .     S
C48    C480    1.430   .     S
C49    C56     1.404   .     A
C49    C53     1.415   .     A
C50    C54     1.387   .     A
C50    C462    1.413   1_554 S
C50    C465    1.420   1_554 S
C51    C52     1.391   .     A
C51    C464    1.420   .     S
C51    C476    1.404   .     S
C52    C53     1.388   .     A
C52    H71     1.084   .     S
C53    H76     1.082   .     S
C54    C63     1.381   .     A
C54    H73     1.080   .     S
C55    C63     1.401   .     A
C55    C62     1.394   .     A
C55    H113    1.083   .     S
C56    C58     1.453   .     S
C56    C64     1.400   .     A
C57    C151    1.339   .     S
C57    H215    1.088   .     S
C58    O83     1.300   .     A
C59    C60     1.403   .     S
C59    C379    1.339   1_545 S
C59    H344    1.088   1_545 S
C60    O84     1.290   .     A
C60    O131    1.277   .     S
C61    O86     1.298   .     A
C61    C63     1.444   .     S
C61    O133    1.289   .     S
C62    C465    1.404   1_554 S
C62    H486    1.084   1_554 S
C64    C479    1.385   .     S
C65    H75     1.083   .     S
C65    C66     1.401   .     A
C65    C478    1.385   1_554 S
C66    N90     1.437   .     S
C66    C462    1.430   1_554 S
H68    C197    1.088   .     S
H69    N78     1.029   .     S
H70    N79     1.029   .     S
H72    C476    1.084   .     S
H74    C110    1.083   .     S
H77    C333    1.088   1_545 S
N78    N79     1.286   .     D
N78    Zn89    2.020   .     S
N79    Zn88    2.020   .     S
O80    Zn88    1.953   .     S
O80    C93     1.277   .     S
O81    Zn89    1.979   .     S
O82    Zn88    1.949   .     S
O82    C104    1.290   .     S
O83    Zn89    1.912   .     S
O84    Zn88    1.979   .     S
O85    Zn89    1.953   .     S
O86    Zn88    1.912   .     S
O87    Zn89    1.949   .     S
N90    H92     1.045   .     S
N90    H91     1.046   .     S
C93    O127    1.290   .     A
C93    C103    1.403   .     S
C94    C95     1.407   .     A
C94    C510    1.413   .     S
C94    C526    1.430   .     S
C95    C102    1.404   .     A
C95    C99     1.415   .     A
C96    C100    1.387   .     A
C96    C508    1.413   1_554 S
C96    C511    1.420   1_554 S
C97    C98     1.391   .     A
C97    C510    1.420   .     S
C97    C522    1.404   .     S
C98    C99     1.388   .     A
C98    H117    1.084   .     S
C99    H122    1.082   .     S
C100   C109    1.381   .     A
C100   H119    1.080   .     S
C101   C109    1.401   .     A
C101   C108    1.394   .     A
C101   H21     1.083   1_655 S
C102   C104    1.453   .     S
C102   C110    1.400   .     A
C103   C197    1.339   .     S
C103   H261    1.088   .     S
C104   O129    1.300   .     A
C105   C106    1.403   .     S
C105   C287    1.339   1_645 S
C105   H390    1.088   1_545 S
C106   O130    1.290   .     A
C106   O39     1.277   1_655 S
C107   O132    1.298   .     A
C107   C109    1.444   .     S
C107   O41     1.289   1_655 S
C108   C511    1.404   1_554 S
C108   H532    1.084   1_554 S
C110   C525    1.385   .     S
C111   H121    1.083   .     S
C111   C112    1.401   .     A
C111   C524    1.385   1_554 S
C112   N136    1.437   .     S
C112   C508    1.430   1_554 S
H114   C243    1.088   .     S
H115   N124    1.029   .     S
H116   N125    1.029   .     S
H118   C522    1.084   .     S
H120   C18     1.083   1_655 S
H123   C379    1.088   1_545 S
N124   N125    1.286   .     D
N124   Zn135   2.020   .     S
N125   Zn134   2.020   .     S
O126   Zn134   1.953   .     S
O126   C1      1.277   1_655 S
O127   Zn135   1.979   .     S
O128   Zn134   1.949   .     S
O128   C12     1.290   1_655 S
O129   Zn135   1.912   .     S
O130   Zn134   1.979   .     S
O131   Zn135   1.953   .     S
O132   Zn134   1.912   .     S
O133   Zn135   1.949   .     S
N136   H138    1.045   .     S
N136   H137    1.046   .     S
C139   O173    1.290   .     A
C139   C149    1.403   .     S
C139   O264    1.277   1_455 S
C140   C141    1.407   .     A
C140   C556    1.413   .     S
C140   C572    1.430   .     S
C141   C148    1.404   .     A
C141   C145    1.415   .     A
C142   C146    1.387   .     A
C142   C554    1.413   1_554 S
C142   C557    1.420   1_554 S
C143   C144    1.391   .     A
C143   C556    1.420   .     S
C143   C568    1.404   .     S
C144   C145    1.388   .     A
C144   H163    1.084   .     S
C145   H168    1.082   .     S
C146   C155    1.381   .     A
C146   H165    1.080   .     S
C147   C155    1.401   .     A
C147   C154    1.394   .     A
C147   H205    1.083   .     S
C148   C150    1.453   .     S
C148   C156    1.400   .     A
C149   C381    1.339   1_455 S
C149   H307    1.088   .     S
C150   O175    1.300   .     A
C150   O266    1.290   1_455 S
C151   C152    1.403   .     S
C152   O176    1.290   .     A
C152   O223    1.277   .     S
C153   O178    1.298   .     A
C153   C155    1.444   .     S
C153   O225    1.289   .     S
C154   C557    1.404   1_554 S
C154   H578    1.084   1_554 S
C156   C571    1.385   .     S
C156   H258    1.083   1_455 S
C157   H167    1.083   .     S
C157   C158    1.401   .     A
C157   C570    1.385   1_554 S
C158   N182    1.437   .     S
C158   C554    1.430   1_554 S
H159   C239    1.083   1_455 S
H160   C289    1.088   .     S
H161   N170    1.029   .     S
H162   N171    1.029   .     S
H164   C568    1.084   .     S
H166   C202    1.083   .     S
N170   N171    1.286   .     D
N170   Zn181   2.020   .     S
N171   Zn180   2.020   .     S
O172   Zn180   1.953   .     S
O172   C185    1.277   .     S
O173   Zn181   1.979   .     S
O174   Zn180   1.949   .     S
O174   C196    1.290   .     S
O175   Zn181   1.912   .     S
O176   Zn180   1.979   .     S
O177   Zn181   1.953   .     S
O177   C244    1.277   1_455 S
O178   Zn180   1.912   .     S
O179   Zn181   1.949   .     S
O179   C245    1.289   1_455 S
N182   H184    1.045   .     S
N182   H183    1.046   .     S
C185   O219    1.290   .     A
C185   C195    1.403   .     S
C186   C187    1.407   .     A
C186   C602    1.413   .     S
C186   C618    1.430   .     S
C187   C194    1.404   .     A
C187   C191    1.415   .     A
C188   C192    1.387   .     A
C188   C600    1.413   1_554 S
C188   C603    1.420   1_554 S
C189   C190    1.391   .     A
C189   C602    1.420   .     S
C189   C614    1.404   .     S
C190   C191    1.388   .     A
C190   H209    1.084   .     S
C191   H214    1.082   .     S
C192   C201    1.381   .     A
C192   H211    1.080   .     S
C193   C201    1.401   .     A
C193   C200    1.394   .     A
C193   H251    1.083   .     S
C194   C196    1.453   .     S
C194   C202    1.400   .     A
C195   C289    1.339   .     S
C195   H353    1.088   .     S
C196   O221    1.300   .     A
C197   C198    1.403   .     S
C198   O222    1.290   .     A
C198   O269    1.277   .     S
C199   O224    1.298   .     A
C199   C201    1.444   .     S
C199   O271    1.289   .     S
C200   C603    1.404   1_554 S
C200   H624    1.084   1_554 S
C202   C617    1.385   .     S
C203   H213    1.083   .     S
C203   C204    1.401   .     A
C203   C616    1.385   1_554 S
C204   N228    1.437   .     S
C204   C600    1.430   1_554 S
H206   C335    1.088   .     S
H207   N216    1.029   .     S
H208   N217    1.029   .     S
H210   C614    1.084   .     S
H212   C248    1.083   .     S
N216   N217    1.286   .     D
N216   Zn227   2.020   .     S
N217   Zn226   2.020   .     S
O218   Zn226   1.953   .     S
O218   C231    1.277   .     S
O219   Zn227   1.979   .     S
O220   Zn226   1.949   .     S
O220   C242    1.290   .     S
O221   Zn227   1.912   .     S
O222   Zn226   1.979   .     S
O223   Zn227   1.953   .     S
O224   Zn226   1.912   .     S
O225   Zn227   1.949   .     S
N228   H230    1.045   .     S
N228   H229    1.046   .     S
C231   O265    1.290   .     A
C231   C241    1.403   .     S
C232   C233    1.407   .     A
C232   C648    1.413   .     S
C232   C664    1.430   .     S
C233   C240    1.404   .     A
C233   C237    1.415   .     A
C234   C238    1.387   .     A
C234   C646    1.413   1_554 S
C234   C649    1.420   1_554 S
C235   C236    1.391   .     A
C235   C648    1.420   .     S
C235   C660    1.404   .     S
C236   C237    1.388   .     A
C236   H255    1.084   .     S
C237   H260    1.082   .     S
C238   C247    1.381   .     A
C238   H257    1.080   .     S
C239   C247    1.401   .     A
C239   C246    1.394   .     A
C239   H159    1.083   1_655 S
C240   C242    1.453   .     S
C240   C248    1.400   .     A
C241   C335    1.339   .     S
C241   H399    1.088   .     S
C242   O267    1.300   .     A
C243   C244    1.403   .     S
C243   C11     1.339   1_655 S
C244   O268    1.290   .     A
C244   O177    1.277   1_655 S
C245   O270    1.298   .     A
C245   C247    1.444   .     S
C245   O179    1.289   1_655 S
C246   C649    1.404   1_554 S
C246   H670    1.084   1_554 S
C248   C663    1.385   .     S
C249   H259    1.083   .     S
C249   C250    1.401   .     A
C249   C662    1.385   1_554 S
C250   N274    1.437   .     S
C250   C646    1.430   1_554 S
H252   C381    1.088   .     S
H253   N262    1.029   .     S
H254   N263    1.029   .     S
H256   C660    1.084   .     S
H258   C156    1.083   1_655 S
N262   N263    1.286   .     D
N262   Zn273   2.020   .     S
N263   Zn272   2.020   .     S
O264   Zn272   1.953   .     S
O264   C139    1.277   1_655 S
O265   Zn273   1.979   .     S
O266   Zn272   1.949   .     S
O266   C150    1.290   1_655 S
O267   Zn273   1.912   .     S
O268   Zn272   1.979   .     S
O269   Zn273   1.953   .     S
O270   Zn272   1.912   .     S
O271   Zn273   1.949   .     S
N274   H276    1.045   .     S
N274   H275    1.046   .     S
C277   O311    1.290   .     A
C277   C287    1.403   .     S
C277   O402    1.277   1_455 S
C278   C279    1.407   .     A
C278   C694    1.413   .     S
C278   C710    1.430   .     S
C279   C286    1.404   .     A
C279   C283    1.415   .     A
C280   C284    1.387   .     A
C280   C692    1.413   1_554 S
C280   C695    1.420   1_554 S
C281   C282    1.391   .     A
C281   C694    1.420   .     S
C281   C706    1.404   .     S
C282   C283    1.388   .     A
C282   H301    1.084   .     S
C283   H306    1.082   .     S
C284   C293    1.381   .     A
C284   H303    1.080   .     S
C285   C293    1.401   .     A
C285   C292    1.394   .     A
C285   H343    1.083   .     S
C286   C288    1.453   .     S
C286   C294    1.400   .     A
C287   C105    1.339   1_465 S
C287   H31     1.088   1_565 S
C288   O313    1.300   .     A
C288   O404    1.290   1_455 S
C289   C290    1.403   .     S
C290   O314    1.290   .     A
C290   O361    1.277   .     S
C291   O316    1.298   .     A
C291   C293    1.444   .     S
C291   O363    1.289   .     S
C292   C695    1.404   1_554 S
C292   H716    1.084   1_554 S
C294   C709    1.385   .     S
C294   H396    1.083   1_455 S
C295   H305    1.083   .     S
C295   C296    1.401   .     A
C295   C708    1.385   1_554 S
C296   N320    1.437   .     S
C296   C692    1.430   1_554 S
H297   C377    1.083   1_455 S
H298   C13     1.088   1_565 S
H299   N308    1.029   .     S
H300   N309    1.029   .     S
H302   C706    1.084   .     S
H304   C340    1.083   .     S
N308   N309    1.286   .     D
N308   Zn319   2.020   .     S
N309   Zn318   2.020   .     S
O310   Zn318   1.953   .     S
O310   C323    1.277   .     S
O311   Zn319   1.979   .     S
O312   Zn318   1.949   .     S
O312   C334    1.290   .     S
O313   Zn319   1.912   .     S
O314   Zn318   1.979   .     S
O315   Zn319   1.953   .     S
O315   C382    1.277   1_455 S
O316   Zn318   1.912   .     S
O317   Zn319   1.949   .     S
O317   C383    1.289   1_455 S
N320   H322    1.045   .     S
N320   H321    1.046   .     S
C323   O357    1.290   .     A
C323   C333    1.403   .     S
C324   C325    1.407   .     A
C324   C740    1.413   .     S
C324   C756    1.430   .     S
C325   C332    1.404   .     A
C325   C329    1.415   .     A
C326   C330    1.387   .     A
C326   C738    1.413   1_554 S
C326   C741    1.420   1_554 S
C327   C328    1.391   .     A
C327   C740    1.420   .     S
C327   C752    1.404   .     S
C328   C329    1.388   .     A
C328   H347    1.084   .     S
C329   H352    1.082   .     S
C330   C339    1.381   .     A
C330   H349    1.080   .     S
C331   C339    1.401   .     A
C331   C338    1.394   .     A
C331   H389    1.083   .     S
C332   C334    1.453   .     S
C332   C340    1.400   .     A
C333   C13     1.339   1_565 S
C333   H77     1.088   1_565 S
C334   O359    1.300   .     A
C335   C336    1.403   .     S
C336   O360    1.290   .     A
C336   O407    1.277   .     S
C337   O362    1.298   .     A
C337   C339    1.444   .     S
C337   O409    1.289   .     S
C338   C741    1.404   1_554 S
C338   H762    1.084   1_554 S
C340   C755    1.385   .     S
C341   H351    1.083   .     S
C341   C342    1.401   .     A
C341   C754    1.385   1_554 S
C342   N366    1.437   .     S
C342   C738    1.430   1_554 S
H344   C59     1.088   1_565 S
H345   N354    1.029   .     S
H346   N355    1.029   .     S
H348   C752    1.084   .     S
H350   C386    1.083   .     S
N354   N355    1.286   .     D
N354   Zn365   2.020   .     S
N355   Zn364   2.020   .     S
O356   Zn364   1.953   .     S
O356   C369    1.277   .     S
O357   Zn365   1.979   .     S
O358   Zn364   1.949   .     S
O358   C380    1.290   .     S
O359   Zn365   1.912   .     S
O360   Zn364   1.979   .     S
O361   Zn365   1.953   .     S
O362   Zn364   1.912   .     S
O363   Zn365   1.949   .     S
N366   H368    1.045   .     S
N366   H367    1.046   .     S
C369   O403    1.290   .     A
C369   C379    1.403   .     S
C370   C371    1.407   .     A
C370   C786    1.413   .     S
C370   C802    1.430   .     S
C371   C378    1.404   .     A
C371   C375    1.415   .     A
C372   C376    1.387   .     A
C372   C784    1.413   1_554 S
C372   C787    1.420   1_554 S
C373   C374    1.391   .     A
C373   C786    1.420   .     S
C373   C798    1.404   .     S
C374   C375    1.388   .     A
C374   H393    1.084   .     S
C375   H398    1.082   .     S
C376   C385    1.381   .     A
C376   H395    1.080   .     S
C377   C385    1.401   .     A
C377   C384    1.394   .     A
C377   H297    1.083   1_655 S
C378   C380    1.453   .     S
C378   C386    1.400   .     A
C379   C59     1.339   1_565 S
C379   H123    1.088   1_565 S
C380   O405    1.300   .     A
C381   C382    1.403   .     S
C381   C149    1.339   1_655 S
C382   O406    1.290   .     A
C382   O315    1.277   1_655 S
C383   O408    1.298   .     A
C383   C385    1.444   .     S
C383   O317    1.289   1_655 S
C384   C787    1.404   1_554 S
C384   H808    1.084   1_554 S
C386   C801    1.385   .     S
C387   H397    1.083   .     S
C387   C388    1.401   .     A
C387   C800    1.385   1_554 S
C388   N412    1.437   .     S
C388   C784    1.430   1_554 S
H390   C105    1.088   1_565 S
H391   N400    1.029   .     S
H392   N401    1.029   .     S
H394   C798    1.084   .     S
H396   C294    1.083   1_655 S
N400   N401    1.286   .     D
N400   Zn411   2.020   .     S
N401   Zn410   2.020   .     S
O402   Zn410   1.953   .     S
O402   C277    1.277   1_655 S
O403   Zn411   1.979   .     S
O404   Zn410   1.949   .     S
O404   C288    1.290   1_655 S
O405   Zn411   1.912   .     S
O406   Zn410   1.979   .     S
O407   Zn411   1.953   .     S
O408   Zn410   1.912   .     S
O409   Zn411   1.949   .     S
N412   H414    1.045   .     S
N412   H413    1.046   .     S
C415   O449    1.290   .     A
C415   C425    1.403   .     S
C415   O540    1.277   1_455 S
C416   C417    1.407   .     A
C416   C4      1.413   1_556 S
C416   C20     1.430   1_556 S
C417   C424    1.404   .     A
C417   C421    1.415   .     A
C418   C422    1.387   .     A
C419   C420    1.391   .     A
C419   C4      1.420   1_556 S
C419   C16     1.404   1_556 S
C420   C421    1.388   .     A
C420   H439    1.084   .     S
C421   H444    1.082   .     S
C422   C431    1.381   .     A
C422   H441    1.080   .     S
C423   C431    1.401   .     A
C423   C430    1.394   .     A
C423   H481    1.083   .     S
C424   C426    1.453   .     S
C424   C432    1.400   .     A
C425   C657    1.339   1_455 S
C425   H583    1.088   .     S
C426   O451    1.300   .     A
C426   O542    1.290   1_455 S
C427   C428    1.403   .     S
C427   C747    1.339   1_545 S
C427   H712    1.088   1_545 S
C428   O452    1.290   .     A
C428   O499    1.277   .     S
C429   O454    1.298   .     A
C429   C431    1.444   .     S
C429   O501    1.289   .     S
C432   C19     1.385   1_556 S
C432   H534    1.083   1_455 S
C433   H443    1.083   .     S
C433   C434    1.401   .     A
C434   N458    1.437   .     S
H435   C515    1.083   1_455 S
H436   C565    1.088   .     S
H437   N446    1.029   .     S
H438   N447    1.029   .     S
H440   C16     1.084   1_556 S
H442   C478    1.083   .     S
H445   C701    1.088   1_545 S
N446   N447    1.286   .     D
N446   Zn457   2.020   .     S
N447   Zn456   2.020   .     S
O448   Zn456   1.953   .     S
O448   C461    1.277   .     S
O449   Zn457   1.979   .     S
O450   Zn456   1.949   .     S
O450   C472    1.290   .     S
O451   Zn457   1.912   .     S
O452   Zn456   1.979   .     S
O453   Zn457   1.953   .     S
O453   C520    1.277   1_455 S
O454   Zn456   1.912   .     S
O455   Zn457   1.949   .     S
O455   C521    1.289   1_455 S
N458   H460    1.045   .     S
N458   H459    1.046   .     S
C461   O495    1.290   .     A
C461   C471    1.403   .     S
C462   C463    1.407   .     A
C462   C50     1.413   1_556 S
C462   C66     1.430   1_556 S
C463   C470    1.404   .     A
C463   C467    1.415   .     A
C464   C468    1.387   .     A
C465   C466    1.391   .     A
C465   C50     1.420   1_556 S
C465   C62     1.404   1_556 S
C466   C467    1.388   .     A
C466   H485    1.084   .     S
C467   H490    1.082   .     S
C468   C477    1.381   .     A
C468   H487    1.080   .     S
C469   C477    1.401   .     A
C469   C476    1.394   .     A
C469   H527    1.083   .     S
C470   C472    1.453   .     S
C470   C478    1.400   .     A
C471   C565    1.339   .     S
C471   H629    1.088   .     S
C472   O497    1.300   .     A
C473   C474    1.403   .     S
C473   C793    1.339   1_545 S
C473   H758    1.088   1_545 S
C474   O498    1.290   .     A
C474   O545    1.277   .     S
C475   O500    1.298   .     A
C475   C477    1.444   .     S
C475   O547    1.289   .     S
C478   C65     1.385   1_556 S
C479   H489    1.083   .     S
C479   C480    1.401   .     A
C480   N504    1.437   .     S
H482   C611    1.088   .     S
H483   N492    1.029   .     S
H484   N493    1.029   .     S
H486   C62     1.084   1_556 S
H488   C524    1.083   .     S
H491   C747    1.088   1_545 S
N492   N493    1.286   .     D
N492   Zn503   2.020   .     S
N493   Zn502   2.020   .     S
O494   Zn502   1.953   .     S
O494   C507    1.277   .     S
O495   Zn503   1.979   .     S
O496   Zn502   1.949   .     S
O496   C518    1.290   .     S
O497   Zn503   1.912   .     S
O498   Zn502   1.979   .     S
O499   Zn503   1.953   .     S
O500   Zn502   1.912   .     S
O501   Zn503   1.949   .     S
N504   H506    1.045   .     S
N504   H505    1.046   .     S
C507   O541    1.290   .     A
C507   C517    1.403   .     S
C508   C509    1.407   .     A
C508   C96     1.413   1_556 S
C508   C112    1.430   1_556 S
C509   C516    1.404   .     A
C509   C513    1.415   .     A
C510   C514    1.387   .     A
C511   C512    1.391   .     A
C511   C96     1.420   1_556 S
C511   C108    1.404   1_556 S
C512   C513    1.388   .     A
C512   H531    1.084   .     S
C513   H536    1.082   .     S
C514   C523    1.381   .     A
C514   H533    1.080   .     S
C515   C523    1.401   .     A
C515   C522    1.394   .     A
C515   H435    1.083   1_655 S
C516   C518    1.453   .     S
C516   C524    1.400   .     A
C517   C611    1.339   .     S
C517   H675    1.088   .     S
C518   O543    1.300   .     A
C519   C520    1.403   .     S
C519   C701    1.339   1_645 S
C519   H804    1.088   1_545 S
C520   O544    1.290   .     A
C520   O453    1.277   1_655 S
C521   O546    1.298   .     A
C521   C523    1.444   .     S
C521   O455    1.289   1_655 S
C524   C111    1.385   1_556 S
C525   H535    1.083   .     S
C525   C526    1.401   .     A
C526   N550    1.437   .     S
H528   C657    1.088   .     S
H529   N538    1.029   .     S
H530   N539    1.029   .     S
H532   C108    1.084   1_556 S
H534   C432    1.083   1_655 S
H537   C793    1.088   1_545 S
N538   N539    1.286   .     D
N538   Zn549   2.020   .     S
N539   Zn548   2.020   .     S
O540   Zn548   1.953   .     S
O540   C415    1.277   1_655 S
O541   Zn549   1.979   .     S
O542   Zn548   1.949   .     S
O542   C426    1.290   1_655 S
O543   Zn549   1.912   .     S
O544   Zn548   1.979   .     S
O545   Zn549   1.953   .     S
O546   Zn548   1.912   .     S
O547   Zn549   1.949   .     S
N550   H552    1.045   .     S
N550   H551    1.046   .     S
C553   O587    1.290   .     A
C553   C563    1.403   .     S
C553   O678    1.277   1_455 S
C554   C555    1.407   .     A
C554   C142    1.413   1_556 S
C554   C158    1.430   1_556 S
C555   C562    1.404   .     A
C555   C559    1.415   .     A
C556   C560    1.387   .     A
C557   C558    1.391   .     A
C557   C142    1.420   1_556 S
C557   C154    1.404   1_556 S
C558   C559    1.388   .     A
C558   H577    1.084   .     S
C559   H582    1.082   .     S
C560   C569    1.381   .     A
C560   H579    1.080   .     S
C561   C569    1.401   .     A
C561   C568    1.394   .     A
C561   H619    1.083   .     S
C562   C564    1.453   .     S
C562   C570    1.400   .     A
C563   C795    1.339   1_455 S
C563   H721    1.088   .     S
C564   O589    1.300   .     A
C564   O680    1.290   1_455 S
C565   C566    1.403   .     S
C566   O590    1.290   .     A
C566   O637    1.277   .     S
C567   O592    1.298   .     A
C567   C569    1.444   .     S
C567   O639    1.289   .     S
C570   C157    1.385   1_556 S
C570   H672    1.083   1_455 S
C571   H581    1.083   .     S
C571   C572    1.401   .     A
C572   N596    1.437   .     S
H573   C653    1.083   1_455 S
H574   C703    1.088   .     S
H575   N584    1.029   .     S
H576   N585    1.029   .     S
H578   C154    1.084   1_556 S
H580   C616    1.083   .     S
N584   N585    1.286   .     D
N584   Zn595   2.020   .     S
N585   Zn594   2.020   .     S
O586   Zn594   1.953   .     S
O586   C599    1.277   .     S
O587   Zn595   1.979   .     S
O588   Zn594   1.949   .     S
O588   C610    1.290   .     S
O589   Zn595   1.912   .     S
O590   Zn594   1.979   .     S
O591   Zn595   1.953   .     S
O591   C658    1.277   1_455 S
O592   Zn594   1.912   .     S
O593   Zn595   1.949   .     S
O593   C659    1.289   1_455 S
N596   H598    1.045   .     S
N596   H597    1.046   .     S
C599   O633    1.290   .     A
C599   C609    1.403   .     S
C600   C601    1.407   .     A
C600   C188    1.413   1_556 S
C600   C204    1.430   1_556 S
C601   C608    1.404   .     A
C601   C605    1.415   .     A
C602   C606    1.387   .     A
C603   C604    1.391   .     A
C603   C188    1.420   1_556 S
C603   C200    1.404   1_556 S
C604   C605    1.388   .     A
C604   H623    1.084   .     S
C605   H628    1.082   .     S
C606   C615    1.381   .     A
C606   H625    1.080   .     S
C607   C615    1.401   .     A
C607   C614    1.394   .     A
C607   H665    1.083   .     S
C608   C610    1.453   .     S
C608   C616    1.400   .     A
C609   C703    1.339   .     S
C609   H767    1.088   .     S
C610   O635    1.300   .     A
C611   C612    1.403   .     S
C612   O636    1.290   .     A
C612   O683    1.277   .     S
C613   O638    1.298   .     A
C613   C615    1.444   .     S
C613   O685    1.289   .     S
C616   C203    1.385   1_556 S
C617   H627    1.083   .     S
C617   C618    1.401   .     A
C618   N642    1.437   .     S
H620   C749    1.088   .     S
H621   N630    1.029   .     S
H622   N631    1.029   .     S
H624   C200    1.084   1_556 S
H626   C662    1.083   .     S
N630   N631    1.286   .     D
N630   Zn641   2.020   .     S
N631   Zn640   2.020   .     S
O632   Zn640   1.953   .     S
O632   C645    1.277   .     S
O633   Zn641   1.979   .     S
O634   Zn640   1.949   .     S
O634   C656    1.290   .     S
O635   Zn641   1.912   .     S
O636   Zn640   1.979   .     S
O637   Zn641   1.953   .     S
O638   Zn640   1.912   .     S
O639   Zn641   1.949   .     S
N642   H644    1.045   .     S
N642   H643    1.046   .     S
C645   O679    1.290   .     A
C645   C655    1.403   .     S
C646   C647    1.407   .     A
C646   C234    1.413   1_556 S
C646   C250    1.430   1_556 S
C647   C654    1.404   .     A
C647   C651    1.415   .     A
C648   C652    1.387   .     A
C649   C650    1.391   .     A
C649   C234    1.420   1_556 S
C649   C246    1.404   1_556 S
C650   C651    1.388   .     A
C650   H669    1.084   .     S
C651   H674    1.082   .     S
C652   C661    1.381   .     A
C652   H671    1.080   .     S
C653   C661    1.401   .     A
C653   C660    1.394   .     A
C653   H573    1.083   1_655 S
C654   C656    1.453   .     S
C654   C662    1.400   .     A
C655   C749    1.339   .     S
C655   H813    1.088   .     S
C656   O681    1.300   .     A
C657   C658    1.403   .     S
C657   C425    1.339   1_655 S
C658   O682    1.290   .     A
C658   O591    1.277   1_655 S
C659   O684    1.298   .     A
C659   C661    1.444   .     S
C659   O593    1.289   1_655 S
C662   C249    1.385   1_556 S
C663   H673    1.083   .     S
C663   C664    1.401   .     A
C664   N688    1.437   .     S
H666   C795    1.088   .     S
H667   N676    1.029   .     S
H668   N677    1.029   .     S
H670   C246    1.084   1_556 S
H672   C570    1.083   1_655 S
N676   N677    1.286   .     D
N676   Zn687   2.020   .     S
N677   Zn686   2.020   .     S
O678   Zn686   1.953   .     S
O678   C553    1.277   1_655 S
O679   Zn687   1.979   .     S
O680   Zn686   1.949   .     S
O680   C564    1.290   1_655 S
O681   Zn687   1.912   .     S
O682   Zn686   1.979   .     S
O683   Zn687   1.953   .     S
O684   Zn686   1.912   .     S
O685   Zn687   1.949   .     S
N688   H690    1.045   .     S
N688   H689    1.046   .     S
C691   O725    1.290   .     A
C691   C701    1.403   .     S
C691   O816    1.277   1_455 S
C692   C693    1.407   .     A
C692   C280    1.413   1_556 S
C692   C296    1.430   1_556 S
C693   C700    1.404   .     A
C693   C697    1.415   .     A
C694   C698    1.387   .     A
C695   C696    1.391   .     A
C695   C280    1.420   1_556 S
C695   C292    1.404   1_556 S
C696   C697    1.388   .     A
C696   H715    1.084   .     S
C697   H720    1.082   .     S
C698   C707    1.381   .     A
C698   H717    1.080   .     S
C699   C707    1.401   .     A
C699   C706    1.394   .     A
C699   H757    1.083   .     S
C700   C702    1.453   .     S
C700   C708    1.400   .     A
C701   C519    1.339   1_465 S
C701   H445    1.088   1_565 S
C702   O727    1.300   .     A
C702   O818    1.290   1_455 S
C703   C704    1.403   .     S
C704   O728    1.290   .     A
C704   O775    1.277   .     S
C705   O730    1.298   .     A
C705   C707    1.444   .     S
C705   O777    1.289   .     S
C708   C295    1.385   1_556 S
C708   H810    1.083   1_455 S
C709   H719    1.083   .     S
C709   C710    1.401   .     A
C710   N734    1.437   .     S
H711   C791    1.083   1_455 S
H712   C427    1.088   1_565 S
H713   N722    1.029   .     S
H714   N723    1.029   .     S
H716   C292    1.084   1_556 S
H718   C754    1.083   .     S
N722   N723    1.286   .     D
N722   Zn733   2.020   .     S
N723   Zn732   2.020   .     S
O724   Zn732   1.953   .     S
O724   C737    1.277   .     S
O725   Zn733   1.979   .     S
O726   Zn732   1.949   .     S
O726   C748    1.290   .     S
O727   Zn733   1.912   .     S
O728   Zn732   1.979   .     S
O729   Zn733   1.953   .     S
O729   C796    1.277   1_455 S
O730   Zn732   1.912   .     S
O731   Zn733   1.949   .     S
O731   C797    1.289   1_455 S
N734   H736    1.045   .     S
N734   H735    1.046   .     S
C737   O771    1.290   .     A
C737   C747    1.403   .     S
C738   C739    1.407   .     A
C738   C326    1.413   1_556 S
C738   C342    1.430   1_556 S
C739   C746    1.404   .     A
C739   C743    1.415   .     A
C740   C744    1.387   .     A
C741   C742    1.391   .     A
C741   C326    1.420   1_556 S
C741   C338    1.404   1_556 S
C742   C743    1.388   .     A
C742   H761    1.084   .     S
C743   H766    1.082   .     S
C744   C753    1.381   .     A
C744   H763    1.080   .     S
C745   C753    1.401   .     A
C745   C752    1.394   .     A
C745   H803    1.083   .     S
C746   C748    1.453   .     S
C746   C754    1.400   .     A
C747   C427    1.339   1_565 S
C747   H491    1.088   1_565 S
C748   O773    1.300   .     A
C749   C750    1.403   .     S
C750   O774    1.290   .     A
C750   O821    1.277   .     S
C751   O776    1.298   .     A
C751   C753    1.444   .     S
C751   O823    1.289   .     S
C754   C341    1.385   1_556 S
C755   H765    1.083   .     S
C755   C756    1.401   .     A
C756   N780    1.437   .     S
H758   C473    1.088   1_565 S
H759   N768    1.029   .     S
H760   N769    1.029   .     S
H762   C338    1.084   1_556 S
H764   C800    1.083   .     S
N768   N769    1.286   .     D
N768   Zn779   2.020   .     S
N769   Zn778   2.020   .     S
O770   Zn778   1.953   .     S
O770   C783    1.277   .     S
O771   Zn779   1.979   .     S
O772   Zn778   1.949   .     S
O772   C794    1.290   .     S
O773   Zn779   1.912   .     S
O774   Zn778   1.979   .     S
O775   Zn779   1.953   .     S
O776   Zn778   1.912   .     S
O777   Zn779   1.949   .     S
N780   H782    1.045   .     S
N780   H781    1.046   .     S
C783   O817    1.290   .     A
C783   C793    1.403   .     S
C784   C785    1.407   .     A
C784   C372    1.413   1_556 S
C784   C388    1.430   1_556 S
C785   C792    1.404   .     A
C785   C789    1.415   .     A
C786   C790    1.387   .     A
C787   C788    1.391   .     A
C787   C372    1.420   1_556 S
C787   C384    1.404   1_556 S
C788   C789    1.388   .     A
C788   H807    1.084   .     S
C789   H812    1.082   .     S
C790   C799    1.381   .     A
C790   H809    1.080   .     S
C791   C799    1.401   .     A
C791   C798    1.394   .     A
C791   H711    1.083   1_655 S
C792   C794    1.453   .     S
C792   C800    1.400   .     A
C793   C473    1.339   1_565 S
C793   H537    1.088   1_565 S
C794   O819    1.300   .     A
C795   C796    1.403   .     S
C795   C563    1.339   1_655 S
C796   O820    1.290   .     A
C796   O729    1.277   1_655 S
C797   O822    1.298   .     A
C797   C799    1.444   .     S
C797   O731    1.289   1_655 S
C800   C387    1.385   1_556 S
C801   H811    1.083   .     S
C801   C802    1.401   .     A
C802   N826    1.437   .     S
H804   C519    1.088   1_565 S
H805   N814    1.029   .     S
H806   N815    1.029   .     S
H808   C384    1.084   1_556 S
H810   C708    1.083   1_655 S
N814   N815    1.286   .     D
N814   Zn825   2.020   .     S
N815   Zn824   2.020   .     S
O816   Zn824   1.953   .     S
O816   C691    1.277   1_655 S
O817   Zn825   1.979   .     S
O818   Zn824   1.949   .     S
O818   C702    1.290   1_655 S
O819   Zn825   1.912   .     S
O820   Zn824   1.979   .     S
O821   Zn825   1.953   .     S
O822   Zn824   1.912   .     S
O823   Zn825   1.949   .     S
N826   H828    1.045   .     S
N826   H827    1.046   .     S
