data_str_m3_o5_o17_pcu_sym.29
_audit_creation_date              2020-01-03
_audit_creation_method            'Materials Studio'
_symmetry_space_group_name_H-M    'P1'
_symmetry_Int_Tables_number       1
_symmetry_cell_setting            triclinic
loop_
_symmetry_equiv_pos_as_xyz
  x,y,z
_cell_length_a                    30.0073
_cell_length_b                    26.7223
_cell_length_c                    24.3532
_cell_angle_alpha                 89.9561
_cell_angle_beta                  90.0098
_cell_angle_gamma                 89.9595
loop_
_atom_site_label
_atom_site_type_symbol
_atom_site_fract_x
_atom_site_fract_y
_atom_site_fract_z
_atom_site_U_iso_or_equiv
_atom_site_adp_type
_atom_site_occupancy
O1     O     0.25000   0.09512   0.21228   0.00000  Uiso   1.00
O2     O     0.25000   0.23822   0.12105   0.00000  Uiso   1.00
O3     O     0.25000   0.23822   0.21228   0.00000  Uiso   1.00
O4     O     0.25000   0.09512   0.12105   0.00000  Uiso   1.00
C5     C     0.25001   0.07270   0.16668   0.00000  Uiso   1.00
C6     C     0.25000   0.26064   0.16665   0.00000  Uiso   1.00
O7     O     0.18393   0.16667   0.21230   0.00000  Uiso   1.00
O8     O     0.31608   0.16667   0.12104   0.00000  Uiso   1.00
O9     O     0.31608   0.16667   0.21230   0.00000  Uiso   1.00
O10    O     0.18393   0.16667   0.12104   0.00000  Uiso   1.00
C11    C     0.16347   0.16622   0.16667   0.00000  Uiso   1.00
C12    C     0.33652   0.16710   0.16668   0.00000  Uiso   1.00
Zn13   Zn    0.25000   0.16667   0.22759   0.00000  Uiso   1.00
Zn14   Zn    0.25000   0.16667   0.10574   0.00000  Uiso   1.00
N15    N     0.25000   0.16667   0.02455   0.00000  Uiso   1.00
N16    N     0.25000   0.16667   0.30879   0.00000  Uiso   1.00
C17    C     0.40645   0.21018   0.18292   0.00000  Uiso   1.00
C18    C     0.09370   0.12256   0.15092   0.00000  Uiso   1.00
C19    C     0.40585   0.12377   0.15022   0.00000  Uiso   1.00
C20    C     0.09399   0.20880   0.18418   0.00000  Uiso   1.00
C21    C     0.38407   0.16703   0.16674   0.00000  Uiso   1.00
C22    C     0.11592   0.16593   0.16679   0.00000  Uiso   1.00
C23    C     0.45278   0.12366   0.14707   0.00000  Uiso   1.00
C24    C     0.04714   0.20839   0.18822   0.00000  Uiso   1.00
C25    C     0.45311   0.20917   0.18724   0.00000  Uiso   1.00
C26    C     0.04693   0.12296   0.14779   0.00000  Uiso   1.00
C27    C     0.47649   0.16619   0.16740   0.00000  Uiso   1.00
C28    C     0.02350   0.16583   0.16784   0.00000  Uiso   1.00
C29    C     0.47650   0.08286   0.12426   0.00000  Uiso   1.00
C30    C     0.02344   0.24870   0.21203   0.00000  Uiso   1.00
C31    C     0.47707   0.24920   0.21158   0.00000  Uiso   1.00
C32    C     0.02288   0.08242   0.12455   0.00000  Uiso   1.00
C33    C     0.25001   0.02175   0.16668   0.00000  Uiso   1.00
C34    C     0.25000   0.31158   0.16665   0.00000  Uiso   1.00
N35    N     0.45385   0.04189   0.09823   0.00000  Uiso   1.00
H36    H     0.46320   0.00848   0.11745   0.00000  Uiso   1.00
H37    H     0.46339   0.04033   0.05696   0.00000  Uiso   1.00
N38    N     0.04609   0.28902   0.23925   0.00000  Uiso   1.00
H39    H     0.03646   0.28965   0.28052   0.00000  Uiso   1.00
H40    H     0.03680   0.32287   0.22093   0.00000  Uiso   1.00
N41    N     0.45578   0.29011   0.23955   0.00000  Uiso   1.00
H42    H     0.43365   0.27652   0.26916   0.00000  Uiso   1.00
H43    H     0.44022   0.31381   0.21132   0.00000  Uiso   1.00
N44    N     0.04405   0.04074   0.09783   0.00000  Uiso   1.00
H45    H     0.06022   0.01821   0.12668   0.00000  Uiso   1.00
H46    H     0.06554   0.05345   0.06706   0.00000  Uiso   1.00
N47    N     0.38149   0.25531   0.19247   0.00000  Uiso   1.00
H48    H     0.36335   0.26423   0.15711   0.00000  Uiso   1.00
H49    H     0.35937   0.24965   0.22504   0.00000  Uiso   1.00
N50    N     0.11903   0.07790   0.14023   0.00000  Uiso   1.00
H51    H     0.14047   0.08417   0.10711   0.00000  Uiso   1.00
H52    H     0.13789   0.06893   0.17500   0.00000  Uiso   1.00
N53    N     0.37880   0.08053   0.13882   0.00000  Uiso   1.00
H54    H     0.38964   0.05000   0.16215   0.00000  Uiso   1.00
H55    H     0.37873   0.07298   0.09673   0.00000  Uiso   1.00
N56    N     0.12078   0.25231   0.19531   0.00000  Uiso   1.00
H57    H     0.12165   0.25940   0.23747   0.00000  Uiso   1.00
H58    H     0.10909   0.28293   0.17278   0.00000  Uiso   1.00
O59    O     0.75000   0.09512   0.21228   0.00000  Uiso   1.00
O60    O     0.75000   0.23822   0.12105   0.00000  Uiso   1.00
O61    O     0.75000   0.23822   0.21228   0.00000  Uiso   1.00
O62    O     0.75000   0.09512   0.12105   0.00000  Uiso   1.00
C63    C     0.75001   0.07270   0.16668   0.00000  Uiso   1.00
C64    C     0.75000   0.26064   0.16665   0.00000  Uiso   1.00
O65    O     0.68393   0.16667   0.21230   0.00000  Uiso   1.00
O66    O     0.81608   0.16667   0.12104   0.00000  Uiso   1.00
O67    O     0.81608   0.16667   0.21230   0.00000  Uiso   1.00
O68    O     0.68393   0.16667   0.12104   0.00000  Uiso   1.00
C69    C     0.66347   0.16622   0.16667   0.00000  Uiso   1.00
C70    C     0.83652   0.16710   0.16668   0.00000  Uiso   1.00
Zn71   Zn    0.75000   0.16667   0.22759   0.00000  Uiso   1.00
Zn72   Zn    0.75000   0.16667   0.10574   0.00000  Uiso   1.00
N73    N     0.75000   0.16667   0.02455   0.00000  Uiso   1.00
N74    N     0.75000   0.16667   0.30879   0.00000  Uiso   1.00
C75    C     0.90645   0.21018   0.18292   0.00000  Uiso   1.00
C76    C     0.59370   0.12256   0.15092   0.00000  Uiso   1.00
C77    C     0.90585   0.12377   0.15022   0.00000  Uiso   1.00
C78    C     0.59399   0.20880   0.18418   0.00000  Uiso   1.00
C79    C     0.88407   0.16703   0.16674   0.00000  Uiso   1.00
C80    C     0.61592   0.16593   0.16679   0.00000  Uiso   1.00
C81    C     0.95278   0.12366   0.14707   0.00000  Uiso   1.00
C82    C     0.54714   0.20839   0.18822   0.00000  Uiso   1.00
C83    C     0.95311   0.20917   0.18724   0.00000  Uiso   1.00
C84    C     0.54693   0.12296   0.14779   0.00000  Uiso   1.00
C85    C     0.97649   0.16619   0.16740   0.00000  Uiso   1.00
C86    C     0.52350   0.16583   0.16784   0.00000  Uiso   1.00
C87    C     0.97650   0.08286   0.12426   0.00000  Uiso   1.00
C88    C     0.52344   0.24870   0.21203   0.00000  Uiso   1.00
C89    C     0.97707   0.24920   0.21158   0.00000  Uiso   1.00
C90    C     0.52288   0.08242   0.12455   0.00000  Uiso   1.00
C91    C     0.75001   0.02175   0.16668   0.00000  Uiso   1.00
C92    C     0.75000   0.31158   0.16665   0.00000  Uiso   1.00
N93    N     0.95385   0.04189   0.09823   0.00000  Uiso   1.00
H94    H     0.96320   0.00848   0.11745   0.00000  Uiso   1.00
H95    H     0.96339   0.04033   0.05696   0.00000  Uiso   1.00
N96    N     0.54609   0.28902   0.23925   0.00000  Uiso   1.00
H97    H     0.53646   0.28965   0.28052   0.00000  Uiso   1.00
H98    H     0.53680   0.32287   0.22093   0.00000  Uiso   1.00
N99    N     0.95578   0.29011   0.23955   0.00000  Uiso   1.00
H100   H     0.93365   0.27652   0.26916   0.00000  Uiso   1.00
H101   H     0.94022   0.31381   0.21132   0.00000  Uiso   1.00
N102   N     0.54405   0.04074   0.09783   0.00000  Uiso   1.00
H103   H     0.56022   0.01821   0.12668   0.00000  Uiso   1.00
H104   H     0.56554   0.05345   0.06706   0.00000  Uiso   1.00
N105   N     0.88149   0.25531   0.19247   0.00000  Uiso   1.00
H106   H     0.86335   0.26423   0.15711   0.00000  Uiso   1.00
H107   H     0.85937   0.24965   0.22504   0.00000  Uiso   1.00
N108   N     0.61903   0.07790   0.14023   0.00000  Uiso   1.00
H109   H     0.64047   0.08417   0.10711   0.00000  Uiso   1.00
H110   H     0.63789   0.06893   0.17500   0.00000  Uiso   1.00
N111   N     0.87880   0.08053   0.13882   0.00000  Uiso   1.00
H112   H     0.88964   0.05000   0.16215   0.00000  Uiso   1.00
H113   H     0.87873   0.07298   0.09673   0.00000  Uiso   1.00
N114   N     0.62078   0.25231   0.19531   0.00000  Uiso   1.00
H115   H     0.62165   0.25940   0.23747   0.00000  Uiso   1.00
H116   H     0.60909   0.28293   0.17278   0.00000  Uiso   1.00
O117   O     0.25000   0.42845   0.21228   0.00000  Uiso   1.00
O118   O     0.25000   0.57155   0.12105   0.00000  Uiso   1.00
O119   O     0.25000   0.57155   0.21228   0.00000  Uiso   1.00
O120   O     0.25000   0.42845   0.12105   0.00000  Uiso   1.00
C121   C     0.25001   0.40603   0.16668   0.00000  Uiso   1.00
C122   C     0.25000   0.59397   0.16665   0.00000  Uiso   1.00
O123   O     0.18393   0.50000   0.21230   0.00000  Uiso   1.00
O124   O     0.31608   0.50000   0.12104   0.00000  Uiso   1.00
O125   O     0.31608   0.50000   0.21230   0.00000  Uiso   1.00
O126   O     0.18393   0.50000   0.12104   0.00000  Uiso   1.00
C127   C     0.16347   0.49955   0.16667   0.00000  Uiso   1.00
C128   C     0.33652   0.50044   0.16668   0.00000  Uiso   1.00
Zn129  Zn    0.25000   0.50000   0.22759   0.00000  Uiso   1.00
Zn130  Zn    0.25000   0.50000   0.10574   0.00000  Uiso   1.00
N131   N     0.25000   0.50000   0.02455   0.00000  Uiso   1.00
N132   N     0.25000   0.50000   0.30879   0.00000  Uiso   1.00
C133   C     0.40645   0.54351   0.18292   0.00000  Uiso   1.00
C134   C     0.09370   0.45589   0.15092   0.00000  Uiso   1.00
C135   C     0.40585   0.45710   0.15022   0.00000  Uiso   1.00
C136   C     0.09399   0.54213   0.18418   0.00000  Uiso   1.00
C137   C     0.38407   0.50036   0.16674   0.00000  Uiso   1.00
C138   C     0.11592   0.49926   0.16679   0.00000  Uiso   1.00
C139   C     0.45278   0.45699   0.14707   0.00000  Uiso   1.00
C140   C     0.04714   0.54172   0.18822   0.00000  Uiso   1.00
C141   C     0.45311   0.54250   0.18724   0.00000  Uiso   1.00
C142   C     0.04693   0.45629   0.14779   0.00000  Uiso   1.00
C143   C     0.47649   0.49953   0.16740   0.00000  Uiso   1.00
C144   C     0.02350   0.49916   0.16784   0.00000  Uiso   1.00
C145   C     0.47650   0.41619   0.12426   0.00000  Uiso   1.00
C146   C     0.02344   0.58204   0.21203   0.00000  Uiso   1.00
C147   C     0.47707   0.58253   0.21158   0.00000  Uiso   1.00
C148   C     0.02288   0.41575   0.12455   0.00000  Uiso   1.00
C149   C     0.25001   0.35509   0.16668   0.00000  Uiso   1.00
C150   C     0.25000   0.64491   0.16665   0.00000  Uiso   1.00
N151   N     0.45385   0.37523   0.09823   0.00000  Uiso   1.00
H152   H     0.46320   0.34182   0.11745   0.00000  Uiso   1.00
H153   H     0.46339   0.37366   0.05696   0.00000  Uiso   1.00
N154   N     0.04609   0.62235   0.23925   0.00000  Uiso   1.00
H155   H     0.03646   0.62298   0.28052   0.00000  Uiso   1.00
H156   H     0.03680   0.65620   0.22093   0.00000  Uiso   1.00
N157   N     0.45578   0.62344   0.23955   0.00000  Uiso   1.00
H158   H     0.43365   0.60986   0.26916   0.00000  Uiso   1.00
H159   H     0.44022   0.64714   0.21132   0.00000  Uiso   1.00
N160   N     0.04405   0.37407   0.09783   0.00000  Uiso   1.00
H161   H     0.06022   0.35155   0.12668   0.00000  Uiso   1.00
H162   H     0.06554   0.38678   0.06706   0.00000  Uiso   1.00
N163   N     0.38149   0.58864   0.19247   0.00000  Uiso   1.00
H164   H     0.36335   0.59756   0.15711   0.00000  Uiso   1.00
H165   H     0.35937   0.58299   0.22504   0.00000  Uiso   1.00
N166   N     0.11903   0.41123   0.14023   0.00000  Uiso   1.00
H167   H     0.14047   0.41750   0.10711   0.00000  Uiso   1.00
H168   H     0.13789   0.40226   0.17500   0.00000  Uiso   1.00
N169   N     0.37880   0.41386   0.13882   0.00000  Uiso   1.00
H170   H     0.38964   0.38333   0.16215   0.00000  Uiso   1.00
H171   H     0.37873   0.40631   0.09673   0.00000  Uiso   1.00
N172   N     0.12078   0.58564   0.19531   0.00000  Uiso   1.00
H173   H     0.12165   0.59273   0.23747   0.00000  Uiso   1.00
H174   H     0.10909   0.61627   0.17278   0.00000  Uiso   1.00
O175   O     0.75000   0.42845   0.21228   0.00000  Uiso   1.00
O176   O     0.75000   0.57155   0.12105   0.00000  Uiso   1.00
O177   O     0.75000   0.57155   0.21228   0.00000  Uiso   1.00
O178   O     0.75000   0.42845   0.12105   0.00000  Uiso   1.00
C179   C     0.75001   0.40603   0.16668   0.00000  Uiso   1.00
C180   C     0.75000   0.59397   0.16665   0.00000  Uiso   1.00
O181   O     0.68393   0.50000   0.21230   0.00000  Uiso   1.00
O182   O     0.81608   0.50000   0.12104   0.00000  Uiso   1.00
O183   O     0.81608   0.50000   0.21230   0.00000  Uiso   1.00
O184   O     0.68393   0.50000   0.12104   0.00000  Uiso   1.00
C185   C     0.66347   0.49955   0.16667   0.00000  Uiso   1.00
C186   C     0.83652   0.50044   0.16668   0.00000  Uiso   1.00
Zn187  Zn    0.75000   0.50000   0.22759   0.00000  Uiso   1.00
Zn188  Zn    0.75000   0.50000   0.10574   0.00000  Uiso   1.00
N189   N     0.75000   0.50000   0.02455   0.00000  Uiso   1.00
N190   N     0.75000   0.50000   0.30879   0.00000  Uiso   1.00
C191   C     0.90645   0.54351   0.18292   0.00000  Uiso   1.00
C192   C     0.59370   0.45589   0.15092   0.00000  Uiso   1.00
C193   C     0.90585   0.45710   0.15022   0.00000  Uiso   1.00
C194   C     0.59399   0.54213   0.18418   0.00000  Uiso   1.00
C195   C     0.88407   0.50036   0.16674   0.00000  Uiso   1.00
C196   C     0.61592   0.49926   0.16679   0.00000  Uiso   1.00
C197   C     0.95278   0.45699   0.14707   0.00000  Uiso   1.00
C198   C     0.54714   0.54172   0.18822   0.00000  Uiso   1.00
C199   C     0.95311   0.54250   0.18724   0.00000  Uiso   1.00
C200   C     0.54693   0.45629   0.14779   0.00000  Uiso   1.00
C201   C     0.97649   0.49953   0.16740   0.00000  Uiso   1.00
C202   C     0.52350   0.49916   0.16784   0.00000  Uiso   1.00
C203   C     0.97650   0.41619   0.12426   0.00000  Uiso   1.00
C204   C     0.52344   0.58204   0.21203   0.00000  Uiso   1.00
C205   C     0.97707   0.58253   0.21158   0.00000  Uiso   1.00
C206   C     0.52288   0.41575   0.12455   0.00000  Uiso   1.00
C207   C     0.75001   0.35509   0.16668   0.00000  Uiso   1.00
C208   C     0.75000   0.64491   0.16665   0.00000  Uiso   1.00
N209   N     0.95385   0.37523   0.09823   0.00000  Uiso   1.00
H210   H     0.96320   0.34182   0.11745   0.00000  Uiso   1.00
H211   H     0.96339   0.37366   0.05696   0.00000  Uiso   1.00
N212   N     0.54609   0.62235   0.23925   0.00000  Uiso   1.00
H213   H     0.53646   0.62298   0.28052   0.00000  Uiso   1.00
H214   H     0.53680   0.65620   0.22093   0.00000  Uiso   1.00
N215   N     0.95578   0.62344   0.23955   0.00000  Uiso   1.00
H216   H     0.93365   0.60986   0.26916   0.00000  Uiso   1.00
H217   H     0.94022   0.64714   0.21132   0.00000  Uiso   1.00
N218   N     0.54405   0.37407   0.09783   0.00000  Uiso   1.00
H219   H     0.56022   0.35155   0.12668   0.00000  Uiso   1.00
H220   H     0.56554   0.38678   0.06706   0.00000  Uiso   1.00
N221   N     0.88149   0.58864   0.19247   0.00000  Uiso   1.00
H222   H     0.86335   0.59756   0.15711   0.00000  Uiso   1.00
H223   H     0.85937   0.58299   0.22504   0.00000  Uiso   1.00
N224   N     0.61903   0.41123   0.14023   0.00000  Uiso   1.00
H225   H     0.64047   0.41750   0.10711   0.00000  Uiso   1.00
H226   H     0.63789   0.40226   0.17500   0.00000  Uiso   1.00
N227   N     0.87880   0.41386   0.13882   0.00000  Uiso   1.00
H228   H     0.88964   0.38333   0.16215   0.00000  Uiso   1.00
H229   H     0.87873   0.40631   0.09673   0.00000  Uiso   1.00
N230   N     0.62078   0.58564   0.19531   0.00000  Uiso   1.00
H231   H     0.62165   0.59273   0.23747   0.00000  Uiso   1.00
H232   H     0.60909   0.61627   0.17278   0.00000  Uiso   1.00
O233   O     0.25000   0.76178   0.21228   0.00000  Uiso   1.00
O234   O     0.25000   0.90488   0.12105   0.00000  Uiso   1.00
O235   O     0.25000   0.90488   0.21228   0.00000  Uiso   1.00
O236   O     0.25000   0.76178   0.12105   0.00000  Uiso   1.00
C237   C     0.25001   0.73936   0.16668   0.00000  Uiso   1.00
C238   C     0.25000   0.92730   0.16665   0.00000  Uiso   1.00
O239   O     0.18393   0.83333   0.21230   0.00000  Uiso   1.00
O240   O     0.31608   0.83333   0.12104   0.00000  Uiso   1.00
O241   O     0.31608   0.83333   0.21230   0.00000  Uiso   1.00
O242   O     0.18393   0.83333   0.12104   0.00000  Uiso   1.00
C243   C     0.16347   0.83288   0.16667   0.00000  Uiso   1.00
C244   C     0.33652   0.83377   0.16668   0.00000  Uiso   1.00
Zn245  Zn    0.25000   0.83333   0.22759   0.00000  Uiso   1.00
Zn246  Zn    0.25000   0.83333   0.10574   0.00000  Uiso   1.00
N247   N     0.25000   0.83333   0.02455   0.00000  Uiso   1.00
N248   N     0.25000   0.83333   0.30879   0.00000  Uiso   1.00
C249   C     0.40645   0.87684   0.18292   0.00000  Uiso   1.00
C250   C     0.09370   0.78922   0.15092   0.00000  Uiso   1.00
C251   C     0.40585   0.79044   0.15022   0.00000  Uiso   1.00
C252   C     0.09399   0.87547   0.18418   0.00000  Uiso   1.00
C253   C     0.38407   0.83370   0.16674   0.00000  Uiso   1.00
C254   C     0.11592   0.83260   0.16679   0.00000  Uiso   1.00
C255   C     0.45278   0.79032   0.14707   0.00000  Uiso   1.00
C256   C     0.04714   0.87506   0.18822   0.00000  Uiso   1.00
C257   C     0.45311   0.87584   0.18724   0.00000  Uiso   1.00
C258   C     0.04693   0.78962   0.14779   0.00000  Uiso   1.00
C259   C     0.47649   0.83286   0.16740   0.00000  Uiso   1.00
C260   C     0.02350   0.83249   0.16784   0.00000  Uiso   1.00
C261   C     0.47650   0.74953   0.12426   0.00000  Uiso   1.00
C262   C     0.02344   0.91537   0.21203   0.00000  Uiso   1.00
C263   C     0.47707   0.91587   0.21158   0.00000  Uiso   1.00
C264   C     0.02288   0.74908   0.12455   0.00000  Uiso   1.00
C265   C     0.25001   0.68842   0.16668   0.00000  Uiso   1.00
C266   C     0.25000   0.97825   0.16665   0.00000  Uiso   1.00
N267   N     0.45385   0.70856   0.09823   0.00000  Uiso   1.00
H268   H     0.46320   0.67515   0.11745   0.00000  Uiso   1.00
H269   H     0.46339   0.70700   0.05696   0.00000  Uiso   1.00
N270   N     0.04609   0.95569   0.23925   0.00000  Uiso   1.00
H271   H     0.03646   0.95631   0.28052   0.00000  Uiso   1.00
H272   H     0.03680   0.98953   0.22093   0.00000  Uiso   1.00
N273   N     0.45578   0.95678   0.23955   0.00000  Uiso   1.00
H274   H     0.43365   0.94319   0.26916   0.00000  Uiso   1.00
H275   H     0.44022   0.98047   0.21132   0.00000  Uiso   1.00
N276   N     0.04405   0.70741   0.09783   0.00000  Uiso   1.00
H277   H     0.06022   0.68488   0.12668   0.00000  Uiso   1.00
H278   H     0.06554   0.72011   0.06706   0.00000  Uiso   1.00
N279   N     0.38149   0.92198   0.19247   0.00000  Uiso   1.00
H280   H     0.36335   0.93089   0.15711   0.00000  Uiso   1.00
H281   H     0.35937   0.91632   0.22504   0.00000  Uiso   1.00
N282   N     0.11903   0.74457   0.14023   0.00000  Uiso   1.00
H283   H     0.14047   0.75083   0.10711   0.00000  Uiso   1.00
H284   H     0.13789   0.73560   0.17500   0.00000  Uiso   1.00
N285   N     0.37880   0.74719   0.13882   0.00000  Uiso   1.00
H286   H     0.38964   0.71667   0.16215   0.00000  Uiso   1.00
H287   H     0.37873   0.73965   0.09673   0.00000  Uiso   1.00
N288   N     0.12078   0.91898   0.19531   0.00000  Uiso   1.00
H289   H     0.12165   0.92606   0.23747   0.00000  Uiso   1.00
H290   H     0.10909   0.94960   0.17278   0.00000  Uiso   1.00
O291   O     0.75000   0.76178   0.21228   0.00000  Uiso   1.00
O292   O     0.75000   0.90488   0.12105   0.00000  Uiso   1.00
O293   O     0.75000   0.90488   0.21228   0.00000  Uiso   1.00
O294   O     0.75000   0.76178   0.12105   0.00000  Uiso   1.00
C295   C     0.75001   0.73936   0.16668   0.00000  Uiso   1.00
C296   C     0.75000   0.92730   0.16665   0.00000  Uiso   1.00
O297   O     0.68393   0.83333   0.21230   0.00000  Uiso   1.00
O298   O     0.81608   0.83333   0.12104   0.00000  Uiso   1.00
O299   O     0.81608   0.83333   0.21230   0.00000  Uiso   1.00
O300   O     0.68393   0.83333   0.12104   0.00000  Uiso   1.00
C301   C     0.66347   0.83288   0.16667   0.00000  Uiso   1.00
C302   C     0.83652   0.83377   0.16668   0.00000  Uiso   1.00
Zn303  Zn    0.75000   0.83333   0.22759   0.00000  Uiso   1.00
Zn304  Zn    0.75000   0.83333   0.10574   0.00000  Uiso   1.00
N305   N     0.75000   0.83333   0.02455   0.00000  Uiso   1.00
N306   N     0.75000   0.83333   0.30879   0.00000  Uiso   1.00
C307   C     0.90645   0.87684   0.18292   0.00000  Uiso   1.00
C308   C     0.59370   0.78922   0.15092   0.00000  Uiso   1.00
C309   C     0.90585   0.79044   0.15022   0.00000  Uiso   1.00
C310   C     0.59399   0.87547   0.18418   0.00000  Uiso   1.00
C311   C     0.88407   0.83370   0.16674   0.00000  Uiso   1.00
C312   C     0.61592   0.83260   0.16679   0.00000  Uiso   1.00
C313   C     0.95278   0.79032   0.14707   0.00000  Uiso   1.00
C314   C     0.54714   0.87506   0.18822   0.00000  Uiso   1.00
C315   C     0.95311   0.87584   0.18724   0.00000  Uiso   1.00
C316   C     0.54693   0.78962   0.14779   0.00000  Uiso   1.00
C317   C     0.97649   0.83286   0.16740   0.00000  Uiso   1.00
C318   C     0.52350   0.83249   0.16784   0.00000  Uiso   1.00
C319   C     0.97650   0.74953   0.12426   0.00000  Uiso   1.00
C320   C     0.52344   0.91537   0.21203   0.00000  Uiso   1.00
C321   C     0.97707   0.91587   0.21158   0.00000  Uiso   1.00
C322   C     0.52288   0.74908   0.12455   0.00000  Uiso   1.00
C323   C     0.75001   0.68842   0.16668   0.00000  Uiso   1.00
C324   C     0.75000   0.97825   0.16665   0.00000  Uiso   1.00
N325   N     0.95385   0.70856   0.09823   0.00000  Uiso   1.00
H326   H     0.96320   0.67515   0.11745   0.00000  Uiso   1.00
H327   H     0.96339   0.70700   0.05696   0.00000  Uiso   1.00
N328   N     0.54609   0.95569   0.23925   0.00000  Uiso   1.00
H329   H     0.53646   0.95631   0.28052   0.00000  Uiso   1.00
H330   H     0.53680   0.98953   0.22093   0.00000  Uiso   1.00
N331   N     0.95578   0.95678   0.23955   0.00000  Uiso   1.00
H332   H     0.93365   0.94319   0.26916   0.00000  Uiso   1.00
H333   H     0.94022   0.98047   0.21132   0.00000  Uiso   1.00
N334   N     0.54405   0.70741   0.09783   0.00000  Uiso   1.00
H335   H     0.56022   0.68488   0.12668   0.00000  Uiso   1.00
H336   H     0.56554   0.72011   0.06706   0.00000  Uiso   1.00
N337   N     0.88149   0.92198   0.19247   0.00000  Uiso   1.00
H338   H     0.86335   0.93089   0.15711   0.00000  Uiso   1.00
H339   H     0.85937   0.91632   0.22504   0.00000  Uiso   1.00
N340   N     0.61903   0.74457   0.14023   0.00000  Uiso   1.00
H341   H     0.64047   0.75083   0.10711   0.00000  Uiso   1.00
H342   H     0.63789   0.73560   0.17500   0.00000  Uiso   1.00
N343   N     0.87880   0.74719   0.13882   0.00000  Uiso   1.00
H344   H     0.88964   0.71667   0.16215   0.00000  Uiso   1.00
H345   H     0.87873   0.73965   0.09673   0.00000  Uiso   1.00
N346   N     0.62078   0.91898   0.19531   0.00000  Uiso   1.00
H347   H     0.62165   0.92606   0.23747   0.00000  Uiso   1.00
H348   H     0.60909   0.94960   0.17278   0.00000  Uiso   1.00
O349   O     0.25000   0.09512   0.54562   0.00000  Uiso   1.00
O350   O     0.25000   0.23822   0.45438   0.00000  Uiso   1.00
O351   O     0.25000   0.23822   0.54562   0.00000  Uiso   1.00
O352   O     0.25000   0.09512   0.45438   0.00000  Uiso   1.00
C353   C     0.25001   0.07270   0.50001   0.00000  Uiso   1.00
C354   C     0.25000   0.26064   0.49999   0.00000  Uiso   1.00
O355   O     0.18393   0.16667   0.54563   0.00000  Uiso   1.00
O356   O     0.31608   0.16667   0.45437   0.00000  Uiso   1.00
O357   O     0.31608   0.16667   0.54563   0.00000  Uiso   1.00
O358   O     0.18393   0.16667   0.45437   0.00000  Uiso   1.00
C359   C     0.16347   0.16622   0.50000   0.00000  Uiso   1.00
C360   C     0.33652   0.16710   0.50001   0.00000  Uiso   1.00
Zn361  Zn    0.25000   0.16667   0.56093   0.00000  Uiso   1.00
Zn362  Zn    0.25000   0.16667   0.43907   0.00000  Uiso   1.00
N363   N     0.25000   0.16667   0.35788   0.00000  Uiso   1.00
N364   N     0.25000   0.16667   0.64212   0.00000  Uiso   1.00
C365   C     0.40645   0.21018   0.51626   0.00000  Uiso   1.00
C366   C     0.09370   0.12256   0.48426   0.00000  Uiso   1.00
C367   C     0.40585   0.12377   0.48356   0.00000  Uiso   1.00
C368   C     0.09399   0.20880   0.51752   0.00000  Uiso   1.00
C369   C     0.38407   0.16703   0.50007   0.00000  Uiso   1.00
C370   C     0.11592   0.16593   0.50012   0.00000  Uiso   1.00
C371   C     0.45278   0.12366   0.48040   0.00000  Uiso   1.00
C372   C     0.04714   0.20839   0.52155   0.00000  Uiso   1.00
C373   C     0.45311   0.20917   0.52057   0.00000  Uiso   1.00
C374   C     0.04693   0.12296   0.48113   0.00000  Uiso   1.00
C375   C     0.47649   0.16619   0.50073   0.00000  Uiso   1.00
C376   C     0.02350   0.16583   0.50117   0.00000  Uiso   1.00
C377   C     0.47650   0.08286   0.45759   0.00000  Uiso   1.00
C378   C     0.02344   0.24870   0.54536   0.00000  Uiso   1.00
C379   C     0.47707   0.24920   0.54491   0.00000  Uiso   1.00
C380   C     0.02288   0.08242   0.45788   0.00000  Uiso   1.00
C381   C     0.25001   0.02175   0.50002   0.00000  Uiso   1.00
C382   C     0.25000   0.31158   0.49998   0.00000  Uiso   1.00
N383   N     0.45385   0.04189   0.43156   0.00000  Uiso   1.00
H384   H     0.46320   0.00848   0.45079   0.00000  Uiso   1.00
H385   H     0.46339   0.04033   0.39029   0.00000  Uiso   1.00
N386   N     0.04609   0.28902   0.57258   0.00000  Uiso   1.00
H387   H     0.03646   0.28965   0.61385   0.00000  Uiso   1.00
H388   H     0.03680   0.32287   0.55426   0.00000  Uiso   1.00
N389   N     0.45578   0.29011   0.57289   0.00000  Uiso   1.00
H390   H     0.43365   0.27652   0.60250   0.00000  Uiso   1.00
H391   H     0.44022   0.31381   0.54465   0.00000  Uiso   1.00
N392   N     0.04405   0.04074   0.43117   0.00000  Uiso   1.00
H393   H     0.06022   0.01821   0.46002   0.00000  Uiso   1.00
H394   H     0.06554   0.05345   0.40040   0.00000  Uiso   1.00
N395   N     0.38149   0.25531   0.52580   0.00000  Uiso   1.00
H396   H     0.36335   0.26423   0.49044   0.00000  Uiso   1.00
H397   H     0.35937   0.24965   0.55837   0.00000  Uiso   1.00
N398   N     0.11903   0.07790   0.47357   0.00000  Uiso   1.00
H399   H     0.14047   0.08417   0.44044   0.00000  Uiso   1.00
H400   H     0.13789   0.06893   0.50833   0.00000  Uiso   1.00
N401   N     0.37880   0.08053   0.47215   0.00000  Uiso   1.00
H402   H     0.38964   0.05000   0.49548   0.00000  Uiso   1.00
H403   H     0.37873   0.07298   0.43007   0.00000  Uiso   1.00
N404   N     0.12078   0.25231   0.52864   0.00000  Uiso   1.00
H405   H     0.12165   0.25940   0.57081   0.00000  Uiso   1.00
H406   H     0.10909   0.28293   0.50611   0.00000  Uiso   1.00
O407   O     0.75000   0.09512   0.54562   0.00000  Uiso   1.00
O408   O     0.75000   0.23822   0.45438   0.00000  Uiso   1.00
O409   O     0.75000   0.23822   0.54562   0.00000  Uiso   1.00
O410   O     0.75000   0.09512   0.45438   0.00000  Uiso   1.00
C411   C     0.75001   0.07270   0.50001   0.00000  Uiso   1.00
C412   C     0.75000   0.26064   0.49999   0.00000  Uiso   1.00
O413   O     0.68393   0.16667   0.54563   0.00000  Uiso   1.00
O414   O     0.81608   0.16667   0.45437   0.00000  Uiso   1.00
O415   O     0.81608   0.16667   0.54563   0.00000  Uiso   1.00
O416   O     0.68393   0.16667   0.45437   0.00000  Uiso   1.00
C417   C     0.66347   0.16622   0.50000   0.00000  Uiso   1.00
C418   C     0.83652   0.16710   0.50001   0.00000  Uiso   1.00
Zn419  Zn    0.75000   0.16667   0.56093   0.00000  Uiso   1.00
Zn420  Zn    0.75000   0.16667   0.43907   0.00000  Uiso   1.00
N421   N     0.75000   0.16667   0.35788   0.00000  Uiso   1.00
N422   N     0.75000   0.16667   0.64212   0.00000  Uiso   1.00
C423   C     0.90645   0.21018   0.51626   0.00000  Uiso   1.00
C424   C     0.59370   0.12256   0.48426   0.00000  Uiso   1.00
C425   C     0.90585   0.12377   0.48356   0.00000  Uiso   1.00
C426   C     0.59399   0.20880   0.51752   0.00000  Uiso   1.00
C427   C     0.88407   0.16703   0.50007   0.00000  Uiso   1.00
C428   C     0.61592   0.16593   0.50012   0.00000  Uiso   1.00
C429   C     0.95278   0.12366   0.48040   0.00000  Uiso   1.00
C430   C     0.54714   0.20839   0.52155   0.00000  Uiso   1.00
C431   C     0.95311   0.20917   0.52057   0.00000  Uiso   1.00
C432   C     0.54693   0.12296   0.48113   0.00000  Uiso   1.00
C433   C     0.97649   0.16619   0.50073   0.00000  Uiso   1.00
C434   C     0.52350   0.16583   0.50117   0.00000  Uiso   1.00
C435   C     0.97650   0.08286   0.45759   0.00000  Uiso   1.00
C436   C     0.52344   0.24870   0.54536   0.00000  Uiso   1.00
C437   C     0.97707   0.24920   0.54491   0.00000  Uiso   1.00
C438   C     0.52288   0.08242   0.45788   0.00000  Uiso   1.00
C439   C     0.75001   0.02175   0.50002   0.00000  Uiso   1.00
C440   C     0.75000   0.31158   0.49998   0.00000  Uiso   1.00
N441   N     0.95385   0.04189   0.43156   0.00000  Uiso   1.00
H442   H     0.96320   0.00848   0.45079   0.00000  Uiso   1.00
H443   H     0.96339   0.04033   0.39029   0.00000  Uiso   1.00
N444   N     0.54609   0.28902   0.57258   0.00000  Uiso   1.00
H445   H     0.53646   0.28965   0.61385   0.00000  Uiso   1.00
H446   H     0.53680   0.32287   0.55426   0.00000  Uiso   1.00
N447   N     0.95578   0.29011   0.57289   0.00000  Uiso   1.00
H448   H     0.93365   0.27652   0.60250   0.00000  Uiso   1.00
H449   H     0.94022   0.31381   0.54465   0.00000  Uiso   1.00
N450   N     0.54405   0.04074   0.43117   0.00000  Uiso   1.00
H451   H     0.56022   0.01821   0.46002   0.00000  Uiso   1.00
H452   H     0.56554   0.05345   0.40040   0.00000  Uiso   1.00
N453   N     0.88149   0.25531   0.52580   0.00000  Uiso   1.00
H454   H     0.86335   0.26423   0.49044   0.00000  Uiso   1.00
H455   H     0.85937   0.24965   0.55837   0.00000  Uiso   1.00
N456   N     0.61903   0.07790   0.47357   0.00000  Uiso   1.00
H457   H     0.64047   0.08417   0.44044   0.00000  Uiso   1.00
H458   H     0.63789   0.06893   0.50833   0.00000  Uiso   1.00
N459   N     0.87880   0.08053   0.47215   0.00000  Uiso   1.00
H460   H     0.88964   0.05000   0.49548   0.00000  Uiso   1.00
H461   H     0.87873   0.07298   0.43007   0.00000  Uiso   1.00
N462   N     0.62078   0.25231   0.52864   0.00000  Uiso   1.00
H463   H     0.62165   0.25940   0.57081   0.00000  Uiso   1.00
H464   H     0.60909   0.28293   0.50611   0.00000  Uiso   1.00
O465   O     0.25000   0.42845   0.54562   0.00000  Uiso   1.00
O466   O     0.25000   0.57155   0.45438   0.00000  Uiso   1.00
O467   O     0.25000   0.57155   0.54562   0.00000  Uiso   1.00
O468   O     0.25000   0.42845   0.45438   0.00000  Uiso   1.00
C469   C     0.25001   0.40603   0.50001   0.00000  Uiso   1.00
C470   C     0.25000   0.59397   0.49999   0.00000  Uiso   1.00
O471   O     0.18393   0.50000   0.54563   0.00000  Uiso   1.00
O472   O     0.31608   0.50000   0.45437   0.00000  Uiso   1.00
O473   O     0.31608   0.50000   0.54563   0.00000  Uiso   1.00
O474   O     0.18393   0.50000   0.45437   0.00000  Uiso   1.00
C475   C     0.16347   0.49955   0.50000   0.00000  Uiso   1.00
C476   C     0.33652   0.50044   0.50001   0.00000  Uiso   1.00
Zn477  Zn    0.25000   0.50000   0.56093   0.00000  Uiso   1.00
Zn478  Zn    0.25000   0.50000   0.43907   0.00000  Uiso   1.00
N479   N     0.25000   0.50000   0.35788   0.00000  Uiso   1.00
N480   N     0.25000   0.50000   0.64212   0.00000  Uiso   1.00
C481   C     0.40645   0.54351   0.51626   0.00000  Uiso   1.00
C482   C     0.09370   0.45589   0.48426   0.00000  Uiso   1.00
C483   C     0.40585   0.45710   0.48356   0.00000  Uiso   1.00
C484   C     0.09399   0.54213   0.51752   0.00000  Uiso   1.00
C485   C     0.38407   0.50036   0.50007   0.00000  Uiso   1.00
C486   C     0.11592   0.49926   0.50012   0.00000  Uiso   1.00
C487   C     0.45278   0.45699   0.48040   0.00000  Uiso   1.00
C488   C     0.04714   0.54172   0.52155   0.00000  Uiso   1.00
C489   C     0.45311   0.54250   0.52057   0.00000  Uiso   1.00
C490   C     0.04693   0.45629   0.48113   0.00000  Uiso   1.00
C491   C     0.47649   0.49953   0.50073   0.00000  Uiso   1.00
C492   C     0.02350   0.49916   0.50117   0.00000  Uiso   1.00
C493   C     0.47650   0.41619   0.45759   0.00000  Uiso   1.00
C494   C     0.02344   0.58204   0.54536   0.00000  Uiso   1.00
C495   C     0.47707   0.58253   0.54491   0.00000  Uiso   1.00
C496   C     0.02288   0.41575   0.45788   0.00000  Uiso   1.00
C497   C     0.25001   0.35509   0.50002   0.00000  Uiso   1.00
C498   C     0.25000   0.64491   0.49998   0.00000  Uiso   1.00
N499   N     0.45385   0.37523   0.43156   0.00000  Uiso   1.00
H500   H     0.46320   0.34182   0.45079   0.00000  Uiso   1.00
H501   H     0.46339   0.37366   0.39029   0.00000  Uiso   1.00
N502   N     0.04609   0.62235   0.57258   0.00000  Uiso   1.00
H503   H     0.03646   0.62298   0.61385   0.00000  Uiso   1.00
H504   H     0.03680   0.65620   0.55426   0.00000  Uiso   1.00
N505   N     0.45578   0.62344   0.57289   0.00000  Uiso   1.00
H506   H     0.43365   0.60986   0.60250   0.00000  Uiso   1.00
H507   H     0.44022   0.64714   0.54465   0.00000  Uiso   1.00
N508   N     0.04405   0.37407   0.43117   0.00000  Uiso   1.00
H509   H     0.06022   0.35155   0.46002   0.00000  Uiso   1.00
H510   H     0.06554   0.38678   0.40040   0.00000  Uiso   1.00
N511   N     0.38149   0.58864   0.52580   0.00000  Uiso   1.00
H512   H     0.36335   0.59756   0.49044   0.00000  Uiso   1.00
H513   H     0.35937   0.58299   0.55837   0.00000  Uiso   1.00
N514   N     0.11903   0.41123   0.47357   0.00000  Uiso   1.00
H515   H     0.14047   0.41750   0.44044   0.00000  Uiso   1.00
H516   H     0.13789   0.40226   0.50833   0.00000  Uiso   1.00
N517   N     0.37880   0.41386   0.47215   0.00000  Uiso   1.00
H518   H     0.38964   0.38333   0.49548   0.00000  Uiso   1.00
H519   H     0.37873   0.40631   0.43007   0.00000  Uiso   1.00
N520   N     0.12078   0.58564   0.52864   0.00000  Uiso   1.00
H521   H     0.12165   0.59273   0.57081   0.00000  Uiso   1.00
H522   H     0.10909   0.61627   0.50611   0.00000  Uiso   1.00
O523   O     0.75000   0.42845   0.54562   0.00000  Uiso   1.00
O524   O     0.75000   0.57155   0.45438   0.00000  Uiso   1.00
O525   O     0.75000   0.57155   0.54562   0.00000  Uiso   1.00
O526   O     0.75000   0.42845   0.45438   0.00000  Uiso   1.00
C527   C     0.75001   0.40603   0.50001   0.00000  Uiso   1.00
C528   C     0.75000   0.59397   0.49999   0.00000  Uiso   1.00
O529   O     0.68393   0.50000   0.54563   0.00000  Uiso   1.00
O530   O     0.81608   0.50000   0.45437   0.00000  Uiso   1.00
O531   O     0.81608   0.50000   0.54563   0.00000  Uiso   1.00
O532   O     0.68393   0.50000   0.45437   0.00000  Uiso   1.00
C533   C     0.66347   0.49955   0.50000   0.00000  Uiso   1.00
C534   C     0.83652   0.50044   0.50001   0.00000  Uiso   1.00
Zn535  Zn    0.75000   0.50000   0.56093   0.00000  Uiso   1.00
Zn536  Zn    0.75000   0.50000   0.43907   0.00000  Uiso   1.00
N537   N     0.75000   0.50000   0.35788   0.00000  Uiso   1.00
N538   N     0.75000   0.50000   0.64212   0.00000  Uiso   1.00
C539   C     0.90645   0.54351   0.51626   0.00000  Uiso   1.00
C540   C     0.59370   0.45589   0.48426   0.00000  Uiso   1.00
C541   C     0.90585   0.45710   0.48356   0.00000  Uiso   1.00
C542   C     0.59399   0.54213   0.51752   0.00000  Uiso   1.00
C543   C     0.88407   0.50036   0.50007   0.00000  Uiso   1.00
C544   C     0.61592   0.49926   0.50012   0.00000  Uiso   1.00
C545   C     0.95278   0.45699   0.48040   0.00000  Uiso   1.00
C546   C     0.54714   0.54172   0.52155   0.00000  Uiso   1.00
C547   C     0.95311   0.54250   0.52057   0.00000  Uiso   1.00
C548   C     0.54693   0.45629   0.48113   0.00000  Uiso   1.00
C549   C     0.97649   0.49953   0.50073   0.00000  Uiso   1.00
C550   C     0.52350   0.49916   0.50117   0.00000  Uiso   1.00
C551   C     0.97650   0.41619   0.45759   0.00000  Uiso   1.00
C552   C     0.52344   0.58204   0.54536   0.00000  Uiso   1.00
C553   C     0.97707   0.58253   0.54491   0.00000  Uiso   1.00
C554   C     0.52288   0.41575   0.45788   0.00000  Uiso   1.00
C555   C     0.75001   0.35509   0.50002   0.00000  Uiso   1.00
C556   C     0.75000   0.64491   0.49998   0.00000  Uiso   1.00
N557   N     0.95385   0.37523   0.43156   0.00000  Uiso   1.00
H558   H     0.96320   0.34182   0.45079   0.00000  Uiso   1.00
H559   H     0.96339   0.37366   0.39029   0.00000  Uiso   1.00
N560   N     0.54609   0.62235   0.57258   0.00000  Uiso   1.00
H561   H     0.53646   0.62298   0.61385   0.00000  Uiso   1.00
H562   H     0.53680   0.65620   0.55426   0.00000  Uiso   1.00
N563   N     0.95578   0.62344   0.57289   0.00000  Uiso   1.00
H564   H     0.93365   0.60986   0.60250   0.00000  Uiso   1.00
H565   H     0.94022   0.64714   0.54465   0.00000  Uiso   1.00
N566   N     0.54405   0.37407   0.43117   0.00000  Uiso   1.00
H567   H     0.56022   0.35155   0.46002   0.00000  Uiso   1.00
H568   H     0.56554   0.38678   0.40040   0.00000  Uiso   1.00
N569   N     0.88149   0.58864   0.52580   0.00000  Uiso   1.00
H570   H     0.86335   0.59756   0.49044   0.00000  Uiso   1.00
H571   H     0.85937   0.58299   0.55837   0.00000  Uiso   1.00
N572   N     0.61903   0.41123   0.47357   0.00000  Uiso   1.00
H573   H     0.64047   0.41750   0.44044   0.00000  Uiso   1.00
H574   H     0.63789   0.40226   0.50833   0.00000  Uiso   1.00
N575   N     0.87880   0.41386   0.47215   0.00000  Uiso   1.00
H576   H     0.88964   0.38333   0.49548   0.00000  Uiso   1.00
H577   H     0.87873   0.40631   0.43007   0.00000  Uiso   1.00
N578   N     0.62078   0.58564   0.52864   0.00000  Uiso   1.00
H579   H     0.62165   0.59273   0.57081   0.00000  Uiso   1.00
H580   H     0.60909   0.61627   0.50611   0.00000  Uiso   1.00
O581   O     0.25000   0.76178   0.54562   0.00000  Uiso   1.00
O582   O     0.25000   0.90488   0.45438   0.00000  Uiso   1.00
O583   O     0.25000   0.90488   0.54562   0.00000  Uiso   1.00
O584   O     0.25000   0.76178   0.45438   0.00000  Uiso   1.00
C585   C     0.25001   0.73936   0.50001   0.00000  Uiso   1.00
C586   C     0.25000   0.92730   0.49999   0.00000  Uiso   1.00
O587   O     0.18393   0.83333   0.54563   0.00000  Uiso   1.00
O588   O     0.31608   0.83333   0.45437   0.00000  Uiso   1.00
O589   O     0.31608   0.83333   0.54563   0.00000  Uiso   1.00
O590   O     0.18393   0.83333   0.45437   0.00000  Uiso   1.00
C591   C     0.16347   0.83288   0.50000   0.00000  Uiso   1.00
C592   C     0.33652   0.83377   0.50001   0.00000  Uiso   1.00
Zn593  Zn    0.25000   0.83333   0.56093   0.00000  Uiso   1.00
Zn594  Zn    0.25000   0.83333   0.43907   0.00000  Uiso   1.00
N595   N     0.25000   0.83333   0.35788   0.00000  Uiso   1.00
N596   N     0.25000   0.83333   0.64212   0.00000  Uiso   1.00
C597   C     0.40645   0.87684   0.51626   0.00000  Uiso   1.00
C598   C     0.09370   0.78922   0.48426   0.00000  Uiso   1.00
C599   C     0.40585   0.79044   0.48356   0.00000  Uiso   1.00
C600   C     0.09399   0.87547   0.51752   0.00000  Uiso   1.00
C601   C     0.38407   0.83370   0.50007   0.00000  Uiso   1.00
C602   C     0.11592   0.83260   0.50012   0.00000  Uiso   1.00
C603   C     0.45278   0.79032   0.48040   0.00000  Uiso   1.00
C604   C     0.04714   0.87506   0.52155   0.00000  Uiso   1.00
C605   C     0.45311   0.87584   0.52057   0.00000  Uiso   1.00
C606   C     0.04693   0.78962   0.48113   0.00000  Uiso   1.00
C607   C     0.47649   0.83286   0.50073   0.00000  Uiso   1.00
C608   C     0.02350   0.83249   0.50117   0.00000  Uiso   1.00
C609   C     0.47650   0.74953   0.45759   0.00000  Uiso   1.00
C610   C     0.02344   0.91537   0.54536   0.00000  Uiso   1.00
C611   C     0.47707   0.91587   0.54491   0.00000  Uiso   1.00
C612   C     0.02288   0.74908   0.45788   0.00000  Uiso   1.00
C613   C     0.25001   0.68842   0.50002   0.00000  Uiso   1.00
C614   C     0.25000   0.97825   0.49998   0.00000  Uiso   1.00
N615   N     0.45385   0.70856   0.43156   0.00000  Uiso   1.00
H616   H     0.46320   0.67515   0.45079   0.00000  Uiso   1.00
H617   H     0.46339   0.70700   0.39029   0.00000  Uiso   1.00
N618   N     0.04609   0.95569   0.57258   0.00000  Uiso   1.00
H619   H     0.03646   0.95631   0.61385   0.00000  Uiso   1.00
H620   H     0.03680   0.98953   0.55426   0.00000  Uiso   1.00
N621   N     0.45578   0.95678   0.57289   0.00000  Uiso   1.00
H622   H     0.43365   0.94319   0.60250   0.00000  Uiso   1.00
H623   H     0.44022   0.98047   0.54465   0.00000  Uiso   1.00
N624   N     0.04405   0.70741   0.43117   0.00000  Uiso   1.00
H625   H     0.06022   0.68488   0.46002   0.00000  Uiso   1.00
H626   H     0.06554   0.72011   0.40040   0.00000  Uiso   1.00
N627   N     0.38149   0.92198   0.52580   0.00000  Uiso   1.00
H628   H     0.36335   0.93089   0.49044   0.00000  Uiso   1.00
H629   H     0.35937   0.91632   0.55837   0.00000  Uiso   1.00
N630   N     0.11903   0.74457   0.47357   0.00000  Uiso   1.00
H631   H     0.14047   0.75083   0.44044   0.00000  Uiso   1.00
H632   H     0.13789   0.73560   0.50833   0.00000  Uiso   1.00
N633   N     0.37880   0.74719   0.47215   0.00000  Uiso   1.00
H634   H     0.38964   0.71667   0.49548   0.00000  Uiso   1.00
H635   H     0.37873   0.73965   0.43007   0.00000  Uiso   1.00
N636   N     0.12078   0.91898   0.52864   0.00000  Uiso   1.00
H637   H     0.12165   0.92606   0.57081   0.00000  Uiso   1.00
H638   H     0.10909   0.94960   0.50611   0.00000  Uiso   1.00
O639   O     0.75000   0.76178   0.54562   0.00000  Uiso   1.00
O640   O     0.75000   0.90488   0.45438   0.00000  Uiso   1.00
O641   O     0.75000   0.90488   0.54562   0.00000  Uiso   1.00
O642   O     0.75000   0.76178   0.45438   0.00000  Uiso   1.00
C643   C     0.75001   0.73936   0.50001   0.00000  Uiso   1.00
C644   C     0.75000   0.92730   0.49999   0.00000  Uiso   1.00
O645   O     0.68393   0.83333   0.54563   0.00000  Uiso   1.00
O646   O     0.81608   0.83333   0.45437   0.00000  Uiso   1.00
O647   O     0.81608   0.83333   0.54563   0.00000  Uiso   1.00
O648   O     0.68393   0.83333   0.45437   0.00000  Uiso   1.00
C649   C     0.66347   0.83288   0.50000   0.00000  Uiso   1.00
C650   C     0.83652   0.83377   0.50001   0.00000  Uiso   1.00
Zn651  Zn    0.75000   0.83333   0.56093   0.00000  Uiso   1.00
Zn652  Zn    0.75000   0.83333   0.43907   0.00000  Uiso   1.00
N653   N     0.75000   0.83333   0.35788   0.00000  Uiso   1.00
N654   N     0.75000   0.83333   0.64212   0.00000  Uiso   1.00
C655   C     0.90645   0.87684   0.51626   0.00000  Uiso   1.00
C656   C     0.59370   0.78922   0.48426   0.00000  Uiso   1.00
C657   C     0.90585   0.79044   0.48356   0.00000  Uiso   1.00
C658   C     0.59399   0.87547   0.51752   0.00000  Uiso   1.00
C659   C     0.88407   0.83370   0.50007   0.00000  Uiso   1.00
C660   C     0.61592   0.83260   0.50012   0.00000  Uiso   1.00
C661   C     0.95278   0.79032   0.48040   0.00000  Uiso   1.00
C662   C     0.54714   0.87506   0.52155   0.00000  Uiso   1.00
C663   C     0.95311   0.87584   0.52057   0.00000  Uiso   1.00
C664   C     0.54693   0.78962   0.48113   0.00000  Uiso   1.00
C665   C     0.97649   0.83286   0.50073   0.00000  Uiso   1.00
C666   C     0.52350   0.83249   0.50117   0.00000  Uiso   1.00
C667   C     0.97650   0.74953   0.45759   0.00000  Uiso   1.00
C668   C     0.52344   0.91537   0.54536   0.00000  Uiso   1.00
C669   C     0.97707   0.91587   0.54491   0.00000  Uiso   1.00
C670   C     0.52288   0.74908   0.45788   0.00000  Uiso   1.00
C671   C     0.75001   0.68842   0.50002   0.00000  Uiso   1.00
C672   C     0.75000   0.97825   0.49998   0.00000  Uiso   1.00
N673   N     0.95385   0.70856   0.43156   0.00000  Uiso   1.00
H674   H     0.96320   0.67515   0.45079   0.00000  Uiso   1.00
H675   H     0.96339   0.70700   0.39029   0.00000  Uiso   1.00
N676   N     0.54609   0.95569   0.57258   0.00000  Uiso   1.00
H677   H     0.53646   0.95631   0.61385   0.00000  Uiso   1.00
H678   H     0.53680   0.98953   0.55426   0.00000  Uiso   1.00
N679   N     0.95578   0.95678   0.57289   0.00000  Uiso   1.00
H680   H     0.93365   0.94319   0.60250   0.00000  Uiso   1.00
H681   H     0.94022   0.98047   0.54465   0.00000  Uiso   1.00
N682   N     0.54405   0.70741   0.43117   0.00000  Uiso   1.00
H683   H     0.56022   0.68488   0.46002   0.00000  Uiso   1.00
H684   H     0.56554   0.72011   0.40040   0.00000  Uiso   1.00
N685   N     0.88149   0.92198   0.52580   0.00000  Uiso   1.00
H686   H     0.86335   0.93089   0.49044   0.00000  Uiso   1.00
H687   H     0.85937   0.91632   0.55837   0.00000  Uiso   1.00
N688   N     0.61903   0.74457   0.47357   0.00000  Uiso   1.00
H689   H     0.64047   0.75083   0.44044   0.00000  Uiso   1.00
H690   H     0.63789   0.73560   0.50833   0.00000  Uiso   1.00
N691   N     0.87880   0.74719   0.47215   0.00000  Uiso   1.00
H692   H     0.88964   0.71667   0.49548   0.00000  Uiso   1.00
H693   H     0.87873   0.73965   0.43007   0.00000  Uiso   1.00
N694   N     0.62078   0.91898   0.52864   0.00000  Uiso   1.00
H695   H     0.62165   0.92606   0.57081   0.00000  Uiso   1.00
H696   H     0.60909   0.94960   0.50611   0.00000  Uiso   1.00
O697   O     0.25000   0.09512   0.87895   0.00000  Uiso   1.00
O698   O     0.25000   0.23822   0.78772   0.00000  Uiso   1.00
O699   O     0.25000   0.23822   0.87895   0.00000  Uiso   1.00
O700   O     0.25000   0.09512   0.78772   0.00000  Uiso   1.00
C701   C     0.25001   0.07270   0.83335   0.00000  Uiso   1.00
C702   C     0.25000   0.26064   0.83332   0.00000  Uiso   1.00
O703   O     0.18393   0.16667   0.87896   0.00000  Uiso   1.00
O704   O     0.31608   0.16667   0.78770   0.00000  Uiso   1.00
O705   O     0.31608   0.16667   0.87896   0.00000  Uiso   1.00
O706   O     0.18393   0.16667   0.78770   0.00000  Uiso   1.00
C707   C     0.16347   0.16622   0.83333   0.00000  Uiso   1.00
C708   C     0.33652   0.16710   0.83335   0.00000  Uiso   1.00
Zn709  Zn    0.25000   0.16667   0.89426   0.00000  Uiso   1.00
Zn710  Zn    0.25000   0.16667   0.77241   0.00000  Uiso   1.00
N711   N     0.25000   0.16667   0.69121   0.00000  Uiso   1.00
N712   N     0.25000   0.16667   0.97545   0.00000  Uiso   1.00
C713   C     0.40645   0.21018   0.84959   0.00000  Uiso   1.00
C714   C     0.09370   0.12256   0.81759   0.00000  Uiso   1.00
C715   C     0.40585   0.12377   0.81689   0.00000  Uiso   1.00
C716   C     0.09399   0.20880   0.85085   0.00000  Uiso   1.00
C717   C     0.38407   0.16703   0.83340   0.00000  Uiso   1.00
C718   C     0.11592   0.16593   0.83346   0.00000  Uiso   1.00
C719   C     0.45278   0.12366   0.81374   0.00000  Uiso   1.00
C720   C     0.04714   0.20839   0.85489   0.00000  Uiso   1.00
C721   C     0.45311   0.20917   0.85391   0.00000  Uiso   1.00
C722   C     0.04693   0.12296   0.81446   0.00000  Uiso   1.00
C723   C     0.47649   0.16619   0.83407   0.00000  Uiso   1.00
C724   C     0.02350   0.16583   0.83450   0.00000  Uiso   1.00
C725   C     0.47650   0.08286   0.79093   0.00000  Uiso   1.00
C726   C     0.02344   0.24870   0.87870   0.00000  Uiso   1.00
C727   C     0.47707   0.24920   0.87825   0.00000  Uiso   1.00
C728   C     0.02288   0.08242   0.79122   0.00000  Uiso   1.00
C729   C     0.25001   0.02175   0.83335   0.00000  Uiso   1.00
C730   C     0.25000   0.31158   0.83332   0.00000  Uiso   1.00
N731   N     0.45385   0.04189   0.76489   0.00000  Uiso   1.00
H732   H     0.46320   0.00848   0.78412   0.00000  Uiso   1.00
H733   H     0.46339   0.04033   0.72362   0.00000  Uiso   1.00
N734   N     0.04609   0.28902   0.90592   0.00000  Uiso   1.00
H735   H     0.03646   0.28965   0.94719   0.00000  Uiso   1.00
H736   H     0.03680   0.32287   0.88759   0.00000  Uiso   1.00
N737   N     0.45578   0.29011   0.90622   0.00000  Uiso   1.00
H738   H     0.43365   0.27652   0.93583   0.00000  Uiso   1.00
H739   H     0.44022   0.31381   0.87799   0.00000  Uiso   1.00
N740   N     0.04405   0.04074   0.76450   0.00000  Uiso   1.00
H741   H     0.06022   0.01821   0.79335   0.00000  Uiso   1.00
H742   H     0.06554   0.05345   0.73373   0.00000  Uiso   1.00
N743   N     0.38149   0.25531   0.85914   0.00000  Uiso   1.00
H744   H     0.36335   0.26423   0.82377   0.00000  Uiso   1.00
H745   H     0.35937   0.24965   0.89170   0.00000  Uiso   1.00
N746   N     0.11903   0.07790   0.80690   0.00000  Uiso   1.00
H747   H     0.14047   0.08417   0.77378   0.00000  Uiso   1.00
H748   H     0.13789   0.06893   0.84166   0.00000  Uiso   1.00
N749   N     0.37880   0.08053   0.80548   0.00000  Uiso   1.00
H750   H     0.38964   0.05000   0.82882   0.00000  Uiso   1.00
H751   H     0.37873   0.07298   0.76340   0.00000  Uiso   1.00
N752   N     0.12078   0.25231   0.86198   0.00000  Uiso   1.00
H753   H     0.12165   0.25940   0.90414   0.00000  Uiso   1.00
H754   H     0.10909   0.28293   0.83944   0.00000  Uiso   1.00
O755   O     0.75000   0.09512   0.87895   0.00000  Uiso   1.00
O756   O     0.75000   0.23822   0.78772   0.00000  Uiso   1.00
O757   O     0.75000   0.23822   0.87895   0.00000  Uiso   1.00
O758   O     0.75000   0.09512   0.78772   0.00000  Uiso   1.00
C759   C     0.75001   0.07270   0.83335   0.00000  Uiso   1.00
C760   C     0.75000   0.26064   0.83332   0.00000  Uiso   1.00
O761   O     0.68393   0.16667   0.87896   0.00000  Uiso   1.00
O762   O     0.81608   0.16667   0.78770   0.00000  Uiso   1.00
O763   O     0.81608   0.16667   0.87896   0.00000  Uiso   1.00
O764   O     0.68393   0.16667   0.78770   0.00000  Uiso   1.00
C765   C     0.66347   0.16622   0.83333   0.00000  Uiso   1.00
C766   C     0.83652   0.16710   0.83335   0.00000  Uiso   1.00
Zn767  Zn    0.75000   0.16667   0.89426   0.00000  Uiso   1.00
Zn768  Zn    0.75000   0.16667   0.77241   0.00000  Uiso   1.00
N769   N     0.75000   0.16667   0.69121   0.00000  Uiso   1.00
N770   N     0.75000   0.16667   0.97545   0.00000  Uiso   1.00
C771   C     0.90645   0.21018   0.84959   0.00000  Uiso   1.00
C772   C     0.59370   0.12256   0.81759   0.00000  Uiso   1.00
C773   C     0.90585   0.12377   0.81689   0.00000  Uiso   1.00
C774   C     0.59399   0.20880   0.85085   0.00000  Uiso   1.00
C775   C     0.88407   0.16703   0.83340   0.00000  Uiso   1.00
C776   C     0.61592   0.16593   0.83346   0.00000  Uiso   1.00
C777   C     0.95278   0.12366   0.81374   0.00000  Uiso   1.00
C778   C     0.54714   0.20839   0.85489   0.00000  Uiso   1.00
C779   C     0.95311   0.20917   0.85391   0.00000  Uiso   1.00
C780   C     0.54693   0.12296   0.81446   0.00000  Uiso   1.00
C781   C     0.97649   0.16619   0.83407   0.00000  Uiso   1.00
C782   C     0.52350   0.16583   0.83450   0.00000  Uiso   1.00
C783   C     0.97650   0.08286   0.79093   0.00000  Uiso   1.00
C784   C     0.52344   0.24870   0.87870   0.00000  Uiso   1.00
C785   C     0.97707   0.24920   0.87825   0.00000  Uiso   1.00
C786   C     0.52288   0.08242   0.79122   0.00000  Uiso   1.00
C787   C     0.75001   0.02175   0.83335   0.00000  Uiso   1.00
C788   C     0.75000   0.31158   0.83332   0.00000  Uiso   1.00
N789   N     0.95385   0.04189   0.76489   0.00000  Uiso   1.00
H790   H     0.96320   0.00848   0.78412   0.00000  Uiso   1.00
H791   H     0.96339   0.04033   0.72362   0.00000  Uiso   1.00
N792   N     0.54609   0.28902   0.90592   0.00000  Uiso   1.00
H793   H     0.53646   0.28965   0.94719   0.00000  Uiso   1.00
H794   H     0.53680   0.32287   0.88759   0.00000  Uiso   1.00
N795   N     0.95578   0.29011   0.90622   0.00000  Uiso   1.00
H796   H     0.93365   0.27652   0.93583   0.00000  Uiso   1.00
H797   H     0.94022   0.31381   0.87799   0.00000  Uiso   1.00
N798   N     0.54405   0.04074   0.76450   0.00000  Uiso   1.00
H799   H     0.56022   0.01821   0.79335   0.00000  Uiso   1.00
H800   H     0.56554   0.05345   0.73373   0.00000  Uiso   1.00
N801   N     0.88149   0.25531   0.85914   0.00000  Uiso   1.00
H802   H     0.86335   0.26423   0.82377   0.00000  Uiso   1.00
H803   H     0.85937   0.24965   0.89170   0.00000  Uiso   1.00
N804   N     0.61903   0.07790   0.80690   0.00000  Uiso   1.00
H805   H     0.64047   0.08417   0.77378   0.00000  Uiso   1.00
H806   H     0.63789   0.06893   0.84166   0.00000  Uiso   1.00
N807   N     0.87880   0.08053   0.80548   0.00000  Uiso   1.00
H808   H     0.88964   0.05000   0.82882   0.00000  Uiso   1.00
H809   H     0.87873   0.07298   0.76340   0.00000  Uiso   1.00
N810   N     0.62078   0.25231   0.86198   0.00000  Uiso   1.00
H811   H     0.62165   0.25940   0.90414   0.00000  Uiso   1.00
H812   H     0.60909   0.28293   0.83944   0.00000  Uiso   1.00
O813   O     0.25000   0.42845   0.87895   0.00000  Uiso   1.00
O814   O     0.25000   0.57155   0.78772   0.00000  Uiso   1.00
O815   O     0.25000   0.57155   0.87895   0.00000  Uiso   1.00
O816   O     0.25000   0.42845   0.78772   0.00000  Uiso   1.00
C817   C     0.25001   0.40603   0.83335   0.00000  Uiso   1.00
C818   C     0.25000   0.59397   0.83332   0.00000  Uiso   1.00
O819   O     0.18393   0.50000   0.87896   0.00000  Uiso   1.00
O820   O     0.31608   0.50000   0.78770   0.00000  Uiso   1.00
O821   O     0.31608   0.50000   0.87896   0.00000  Uiso   1.00
O822   O     0.18393   0.50000   0.78770   0.00000  Uiso   1.00
C823   C     0.16347   0.49955   0.83333   0.00000  Uiso   1.00
C824   C     0.33652   0.50044   0.83335   0.00000  Uiso   1.00
Zn825  Zn    0.25000   0.50000   0.89426   0.00000  Uiso   1.00
Zn826  Zn    0.25000   0.50000   0.77241   0.00000  Uiso   1.00
N827   N     0.25000   0.50000   0.69121   0.00000  Uiso   1.00
N828   N     0.25000   0.50000   0.97545   0.00000  Uiso   1.00
C829   C     0.40645   0.54351   0.84959   0.00000  Uiso   1.00
C830   C     0.09370   0.45589   0.81759   0.00000  Uiso   1.00
C831   C     0.40585   0.45710   0.81689   0.00000  Uiso   1.00
C832   C     0.09399   0.54213   0.85085   0.00000  Uiso   1.00
C833   C     0.38407   0.50036   0.83340   0.00000  Uiso   1.00
C834   C     0.11592   0.49926   0.83346   0.00000  Uiso   1.00
C835   C     0.45278   0.45699   0.81374   0.00000  Uiso   1.00
C836   C     0.04714   0.54172   0.85489   0.00000  Uiso   1.00
C837   C     0.45311   0.54250   0.85391   0.00000  Uiso   1.00
C838   C     0.04693   0.45629   0.81446   0.00000  Uiso   1.00
C839   C     0.47649   0.49953   0.83407   0.00000  Uiso   1.00
C840   C     0.02350   0.49916   0.83450   0.00000  Uiso   1.00
C841   C     0.47650   0.41619   0.79093   0.00000  Uiso   1.00
C842   C     0.02344   0.58204   0.87870   0.00000  Uiso   1.00
C843   C     0.47707   0.58253   0.87825   0.00000  Uiso   1.00
C844   C     0.02288   0.41575   0.79122   0.00000  Uiso   1.00
C845   C     0.25001   0.35509   0.83335   0.00000  Uiso   1.00
C846   C     0.25000   0.64491   0.83332   0.00000  Uiso   1.00
N847   N     0.45385   0.37523   0.76489   0.00000  Uiso   1.00
H848   H     0.46320   0.34182   0.78412   0.00000  Uiso   1.00
H849   H     0.46339   0.37366   0.72362   0.00000  Uiso   1.00
N850   N     0.04609   0.62235   0.90592   0.00000  Uiso   1.00
H851   H     0.03646   0.62298   0.94719   0.00000  Uiso   1.00
H852   H     0.03680   0.65620   0.88759   0.00000  Uiso   1.00
N853   N     0.45578   0.62344   0.90622   0.00000  Uiso   1.00
H854   H     0.43365   0.60986   0.93583   0.00000  Uiso   1.00
H855   H     0.44022   0.64714   0.87799   0.00000  Uiso   1.00
N856   N     0.04405   0.37407   0.76450   0.00000  Uiso   1.00
H857   H     0.06022   0.35155   0.79335   0.00000  Uiso   1.00
H858   H     0.06554   0.38678   0.73373   0.00000  Uiso   1.00
N859   N     0.38149   0.58864   0.85914   0.00000  Uiso   1.00
H860   H     0.36335   0.59756   0.82377   0.00000  Uiso   1.00
H861   H     0.35937   0.58299   0.89170   0.00000  Uiso   1.00
N862   N     0.11903   0.41123   0.80690   0.00000  Uiso   1.00
H863   H     0.14047   0.41750   0.77378   0.00000  Uiso   1.00
H864   H     0.13789   0.40226   0.84166   0.00000  Uiso   1.00
N865   N     0.37880   0.41386   0.80548   0.00000  Uiso   1.00
H866   H     0.38964   0.38333   0.82882   0.00000  Uiso   1.00
H867   H     0.37873   0.40631   0.76340   0.00000  Uiso   1.00
N868   N     0.12078   0.58564   0.86198   0.00000  Uiso   1.00
H869   H     0.12165   0.59273   0.90414   0.00000  Uiso   1.00
H870   H     0.10909   0.61627   0.83944   0.00000  Uiso   1.00
O871   O     0.75000   0.42845   0.87895   0.00000  Uiso   1.00
O872   O     0.75000   0.57155   0.78772   0.00000  Uiso   1.00
O873   O     0.75000   0.57155   0.87895   0.00000  Uiso   1.00
O874   O     0.75000   0.42845   0.78772   0.00000  Uiso   1.00
C875   C     0.75001   0.40603   0.83335   0.00000  Uiso   1.00
C876   C     0.75000   0.59397   0.83332   0.00000  Uiso   1.00
O877   O     0.68393   0.50000   0.87896   0.00000  Uiso   1.00
O878   O     0.81608   0.50000   0.78770   0.00000  Uiso   1.00
O879   O     0.81608   0.50000   0.87896   0.00000  Uiso   1.00
O880   O     0.68393   0.50000   0.78770   0.00000  Uiso   1.00
C881   C     0.66347   0.49955   0.83333   0.00000  Uiso   1.00
C882   C     0.83652   0.50044   0.83335   0.00000  Uiso   1.00
Zn883  Zn    0.75000   0.50000   0.89426   0.00000  Uiso   1.00
Zn884  Zn    0.75000   0.50000   0.77241   0.00000  Uiso   1.00
N885   N     0.75000   0.50000   0.69121   0.00000  Uiso   1.00
N886   N     0.75000   0.50000   0.97545   0.00000  Uiso   1.00
C887   C     0.90645   0.54351   0.84959   0.00000  Uiso   1.00
C888   C     0.59370   0.45589   0.81759   0.00000  Uiso   1.00
C889   C     0.90585   0.45710   0.81689   0.00000  Uiso   1.00
C890   C     0.59399   0.54213   0.85085   0.00000  Uiso   1.00
C891   C     0.88407   0.50036   0.83340   0.00000  Uiso   1.00
C892   C     0.61592   0.49926   0.83346   0.00000  Uiso   1.00
C893   C     0.95278   0.45699   0.81374   0.00000  Uiso   1.00
C894   C     0.54714   0.54172   0.85489   0.00000  Uiso   1.00
C895   C     0.95311   0.54250   0.85391   0.00000  Uiso   1.00
C896   C     0.54693   0.45629   0.81446   0.00000  Uiso   1.00
C897   C     0.97649   0.49953   0.83407   0.00000  Uiso   1.00
C898   C     0.52350   0.49916   0.83450   0.00000  Uiso   1.00
C899   C     0.97650   0.41619   0.79093   0.00000  Uiso   1.00
C900   C     0.52344   0.58204   0.87870   0.00000  Uiso   1.00
C901   C     0.97707   0.58253   0.87825   0.00000  Uiso   1.00
C902   C     0.52288   0.41575   0.79122   0.00000  Uiso   1.00
C903   C     0.75001   0.35509   0.83335   0.00000  Uiso   1.00
C904   C     0.75000   0.64491   0.83332   0.00000  Uiso   1.00
N905   N     0.95385   0.37523   0.76489   0.00000  Uiso   1.00
H906   H     0.96320   0.34182   0.78412   0.00000  Uiso   1.00
H907   H     0.96339   0.37366   0.72362   0.00000  Uiso   1.00
N908   N     0.54609   0.62235   0.90592   0.00000  Uiso   1.00
H909   H     0.53646   0.62298   0.94719   0.00000  Uiso   1.00
H910   H     0.53680   0.65620   0.88759   0.00000  Uiso   1.00
N911   N     0.95578   0.62344   0.90622   0.00000  Uiso   1.00
H912   H     0.93365   0.60986   0.93583   0.00000  Uiso   1.00
H913   H     0.94022   0.64714   0.87799   0.00000  Uiso   1.00
N914   N     0.54405   0.37407   0.76450   0.00000  Uiso   1.00
H915   H     0.56022   0.35155   0.79335   0.00000  Uiso   1.00
H916   H     0.56554   0.38678   0.73373   0.00000  Uiso   1.00
N917   N     0.88149   0.58864   0.85914   0.00000  Uiso   1.00
H918   H     0.86335   0.59756   0.82377   0.00000  Uiso   1.00
H919   H     0.85937   0.58299   0.89170   0.00000  Uiso   1.00
N920   N     0.61903   0.41123   0.80690   0.00000  Uiso   1.00
H921   H     0.64047   0.41750   0.77378   0.00000  Uiso   1.00
H922   H     0.63789   0.40226   0.84166   0.00000  Uiso   1.00
N923   N     0.87880   0.41386   0.80548   0.00000  Uiso   1.00
H924   H     0.88964   0.38333   0.82882   0.00000  Uiso   1.00
H925   H     0.87873   0.40631   0.76340   0.00000  Uiso   1.00
N926   N     0.62078   0.58564   0.86198   0.00000  Uiso   1.00
H927   H     0.62165   0.59273   0.90414   0.00000  Uiso   1.00
H928   H     0.60909   0.61627   0.83944   0.00000  Uiso   1.00
O929   O     0.25000   0.76178   0.87895   0.00000  Uiso   1.00
O930   O     0.25000   0.90488   0.78772   0.00000  Uiso   1.00
O931   O     0.25000   0.90488   0.87895   0.00000  Uiso   1.00
O932   O     0.25000   0.76178   0.78772   0.00000  Uiso   1.00
C933   C     0.25001   0.73936   0.83335   0.00000  Uiso   1.00
C934   C     0.25000   0.92730   0.83332   0.00000  Uiso   1.00
O935   O     0.18393   0.83333   0.87896   0.00000  Uiso   1.00
O936   O     0.31608   0.83333   0.78770   0.00000  Uiso   1.00
O937   O     0.31608   0.83333   0.87896   0.00000  Uiso   1.00
O938   O     0.18393   0.83333   0.78770   0.00000  Uiso   1.00
C939   C     0.16347   0.83288   0.83333   0.00000  Uiso   1.00
C940   C     0.33652   0.83377   0.83335   0.00000  Uiso   1.00
Zn941  Zn    0.25000   0.83333   0.89426   0.00000  Uiso   1.00
Zn942  Zn    0.25000   0.83333   0.77241   0.00000  Uiso   1.00
N943   N     0.25000   0.83333   0.69121   0.00000  Uiso   1.00
N944   N     0.25000   0.83333   0.97545   0.00000  Uiso   1.00
C945   C     0.40645   0.87684   0.84959   0.00000  Uiso   1.00
C946   C     0.09370   0.78922   0.81759   0.00000  Uiso   1.00
C947   C     0.40585   0.79044   0.81689   0.00000  Uiso   1.00
C948   C     0.09399   0.87547   0.85085   0.00000  Uiso   1.00
C949   C     0.38407   0.83370   0.83340   0.00000  Uiso   1.00
C950   C     0.11592   0.83260   0.83346   0.00000  Uiso   1.00
C951   C     0.45278   0.79032   0.81374   0.00000  Uiso   1.00
C952   C     0.04714   0.87506   0.85489   0.00000  Uiso   1.00
C953   C     0.45311   0.87584   0.85391   0.00000  Uiso   1.00
C954   C     0.04693   0.78962   0.81446   0.00000  Uiso   1.00
C955   C     0.47649   0.83286   0.83407   0.00000  Uiso   1.00
C956   C     0.02350   0.83249   0.83450   0.00000  Uiso   1.00
C957   C     0.47650   0.74953   0.79093   0.00000  Uiso   1.00
C958   C     0.02344   0.91537   0.87870   0.00000  Uiso   1.00
C959   C     0.47707   0.91587   0.87825   0.00000  Uiso   1.00
C960   C     0.02288   0.74908   0.79122   0.00000  Uiso   1.00
C961   C     0.25001   0.68842   0.83335   0.00000  Uiso   1.00
C962   C     0.25000   0.97825   0.83332   0.00000  Uiso   1.00
N963   N     0.45385   0.70856   0.76489   0.00000  Uiso   1.00
H964   H     0.46320   0.67515   0.78412   0.00000  Uiso   1.00
H965   H     0.46339   0.70700   0.72362   0.00000  Uiso   1.00
N966   N     0.04609   0.95569   0.90592   0.00000  Uiso   1.00
H967   H     0.03646   0.95631   0.94719   0.00000  Uiso   1.00
H968   H     0.03680   0.98953   0.88759   0.00000  Uiso   1.00
N969   N     0.45578   0.95678   0.90622   0.00000  Uiso   1.00
H970   H     0.43365   0.94319   0.93583   0.00000  Uiso   1.00
H971   H     0.44022   0.98047   0.87799   0.00000  Uiso   1.00
N972   N     0.04405   0.70741   0.76450   0.00000  Uiso   1.00
H973   H     0.06022   0.68488   0.79335   0.00000  Uiso   1.00
H974   H     0.06554   0.72011   0.73373   0.00000  Uiso   1.00
N975   N     0.38149   0.92198   0.85914   0.00000  Uiso   1.00
H976   H     0.36335   0.93089   0.82377   0.00000  Uiso   1.00
H977   H     0.35937   0.91632   0.89170   0.00000  Uiso   1.00
N978   N     0.11903   0.74457   0.80690   0.00000  Uiso   1.00
H979   H     0.14047   0.75083   0.77378   0.00000  Uiso   1.00
H980   H     0.13789   0.73560   0.84166   0.00000  Uiso   1.00
N981   N     0.37880   0.74719   0.80548   0.00000  Uiso   1.00
H982   H     0.38964   0.71667   0.82882   0.00000  Uiso   1.00
H983   H     0.37873   0.73965   0.76340   0.00000  Uiso   1.00
N984   N     0.12078   0.91898   0.86198   0.00000  Uiso   1.00
H985   H     0.12165   0.92606   0.90414   0.00000  Uiso   1.00
H986   H     0.10909   0.94960   0.83944   0.00000  Uiso   1.00
O987   O     0.75000   0.76178   0.87895   0.00000  Uiso   1.00
O988   O     0.75000   0.90488   0.78772   0.00000  Uiso   1.00
O989   O     0.75000   0.90488   0.87895   0.00000  Uiso   1.00
O990   O     0.75000   0.76178   0.78772   0.00000  Uiso   1.00
C991   C     0.75001   0.73936   0.83335   0.00000  Uiso   1.00
C992   C     0.75000   0.92730   0.83332   0.00000  Uiso   1.00
O993   O     0.68393   0.83333   0.87896   0.00000  Uiso   1.00
O994   O     0.81608   0.83333   0.78770   0.00000  Uiso   1.00
O995   O     0.81608   0.83333   0.87896   0.00000  Uiso   1.00
O996   O     0.68393   0.83333   0.78770   0.00000  Uiso   1.00
C997   C     0.66347   0.83288   0.83333   0.00000  Uiso   1.00
C998   C     0.83652   0.83377   0.83335   0.00000  Uiso   1.00
Zn999  Zn    0.75000   0.83333   0.89426   0.00000  Uiso   1.00
Zn1000 Zn    0.75000   0.83333   0.77241   0.00000  Uiso   1.00
N1001  N     0.75000   0.83333   0.69121   0.00000  Uiso   1.00
N1002  N     0.75000   0.83333   0.97545   0.00000  Uiso   1.00
C1003  C     0.90645   0.87684   0.84959   0.00000  Uiso   1.00
C1004  C     0.59370   0.78922   0.81759   0.00000  Uiso   1.00
C1005  C     0.90585   0.79044   0.81689   0.00000  Uiso   1.00
C1006  C     0.59399   0.87547   0.85085   0.00000  Uiso   1.00
C1007  C     0.88407   0.83370   0.83340   0.00000  Uiso   1.00
C1008  C     0.61592   0.83260   0.83346   0.00000  Uiso   1.00
C1009  C     0.95278   0.79032   0.81374   0.00000  Uiso   1.00
C1010  C     0.54714   0.87506   0.85489   0.00000  Uiso   1.00
C1011  C     0.95311   0.87584   0.85391   0.00000  Uiso   1.00
C1012  C     0.54693   0.78962   0.81446   0.00000  Uiso   1.00
C1013  C     0.97649   0.83286   0.83407   0.00000  Uiso   1.00
C1014  C     0.52350   0.83249   0.83450   0.00000  Uiso   1.00
C1015  C     0.97650   0.74953   0.79093   0.00000  Uiso   1.00
C1016  C     0.52344   0.91537   0.87870   0.00000  Uiso   1.00
C1017  C     0.97707   0.91587   0.87825   0.00000  Uiso   1.00
C1018  C     0.52288   0.74908   0.79122   0.00000  Uiso   1.00
C1019  C     0.75001   0.68842   0.83335   0.00000  Uiso   1.00
C1020  C     0.75000   0.97825   0.83332   0.00000  Uiso   1.00
N1021  N     0.95385   0.70856   0.76489   0.00000  Uiso   1.00
H1022  H     0.96320   0.67515   0.78412   0.00000  Uiso   1.00
H1023  H     0.96339   0.70700   0.72362   0.00000  Uiso   1.00
N1024  N     0.54609   0.95569   0.90592   0.00000  Uiso   1.00
H1025  H     0.53646   0.95631   0.94719   0.00000  Uiso   1.00
H1026  H     0.53680   0.98953   0.88759   0.00000  Uiso   1.00
N1027  N     0.95578   0.95678   0.90622   0.00000  Uiso   1.00
H1028  H     0.93365   0.94319   0.93583   0.00000  Uiso   1.00
H1029  H     0.94022   0.98047   0.87799   0.00000  Uiso   1.00
N1030  N     0.54405   0.70741   0.76450   0.00000  Uiso   1.00
H1031  H     0.56022   0.68488   0.79335   0.00000  Uiso   1.00
H1032  H     0.56554   0.72011   0.73373   0.00000  Uiso   1.00
N1033  N     0.88149   0.92198   0.85914   0.00000  Uiso   1.00
H1034  H     0.86335   0.93089   0.82377   0.00000  Uiso   1.00
H1035  H     0.85937   0.91632   0.89170   0.00000  Uiso   1.00
N1036  N     0.61903   0.74457   0.80690   0.00000  Uiso   1.00
H1037  H     0.64047   0.75083   0.77378   0.00000  Uiso   1.00
H1038  H     0.63789   0.73560   0.84166   0.00000  Uiso   1.00
N1039  N     0.87880   0.74719   0.80548   0.00000  Uiso   1.00
H1040  H     0.88964   0.71667   0.82882   0.00000  Uiso   1.00
H1041  H     0.87873   0.73965   0.76340   0.00000  Uiso   1.00
N1042  N     0.62078   0.91898   0.86198   0.00000  Uiso   1.00
H1043  H     0.62165   0.92606   0.90414   0.00000  Uiso   1.00
H1044  H     0.60909   0.94960   0.83944   0.00000  Uiso   1.00
loop_
_geom_bond_atom_site_label_1
_geom_bond_atom_site_label_2
_geom_bond_distance
_geom_bond_site_symmetry_2
_ccdc_geom_bond_type
O1     C5      1.262   .     A
O1     Zn13    1.948   .     S
O2     C6      1.262   .     A
O2     Zn14    1.948   .     S
O3     Zn13    1.948   .     S
O3     C6      1.262   .     A
O4     Zn14    1.948   .     S
O4     C5      1.262   .     A
C5     C33     1.361   .     S
C6     C34     1.361   .     S
O7     C11     1.269   .     A
O7     Zn13    2.017   .     S
O8     C12     1.270   .     A
O8     Zn14    2.017   .     S
O9     C12     1.269   .     A
O9     Zn13    2.017   .     S
O10    C11     1.270   .     A
O10    Zn14    2.017   .     S
C11    C22     1.427   .     S
C12    C21     1.427   .     S
Zn13   N16     1.977   .     S
Zn14   N15     1.977   .     S
N15    N712    1.196   1_554 S
N16    N363    1.196   .     S
C17    C25     1.404   .     A
C17    C21     1.392   .     A
C17    N47     1.439   .     S
C18    C26     1.405   .     A
C18    C22     1.393   .     A
C18    N50     1.438   .     S
C19    N53     1.440   .     S
C19    C23     1.410   .     A
C19    C21     1.388   .     A
C20    N56     1.440   .     S
C20    C24     1.409   .     A
C20    C22     1.387   .     A
C23    C27     1.430   .     A
C23    C29     1.415   .     A
C24    C28     1.430   .     A
C24    C30     1.415   .     A
C25    C31     1.419   .     A
C25    C27     1.430   .     A
C26    C32     1.420   .     A
C26    C28     1.430   .     A
C27    C86     1.411   .     S
C28    C85     1.411   1_455 S
C29    N35     1.437   .     S
C29    C90     1.392   .     S
C30    N38     1.437   .     S
C30    C89     1.391   1_455 S
C31    N41     1.438   .     S
C31    C88     1.391   .     S
C32    N44     1.438   .     S
C32    C87     1.392   1_455 S
C33    C266    1.163   1_545 S
C34    C149    1.163   .     S
N35    H37     1.046   .     S
N35    H36     1.046   .     S
N38    H40     1.046   .     S
N38    H39     1.046   .     S
N41    H42     1.045   .     S
N41    H43     1.044   .     S
N44    H45     1.044   .     S
N44    H46     1.045   .     S
N47    H48     1.046   .     S
N47    H49     1.045   .     S
N50    H51     1.045   .     S
N50    H52     1.046   .     S
N53    H54     1.045   .     S
N53    H55     1.045   .     S
N56    H58     1.045   .     S
N56    H57     1.045   .     S
O59    C63     1.262   .     A
O59    Zn71    1.948   .     S
O60    C64     1.262   .     A
O60    Zn72    1.948   .     S
O61    Zn71    1.948   .     S
O61    C64     1.262   .     A
O62    Zn72    1.948   .     S
O62    C63     1.262   .     A
C63    C91     1.361   .     S
C64    C92     1.361   .     S
O65    C69     1.269   .     A
O65    Zn71    2.017   .     S
O66    C70     1.270   .     A
O66    Zn72    2.017   .     S
O67    C70     1.269   .     A
O67    Zn71    2.017   .     S
O68    C69     1.270   .     A
O68    Zn72    2.017   .     S
C69    C80     1.427   .     S
C70    C79     1.427   .     S
Zn71   N74     1.977   .     S
Zn72   N73     1.977   .     S
N73    N770    1.196   1_554 S
N74    N421    1.196   .     S
C75    C83     1.404   .     A
C75    C79     1.392   .     A
C75    N105    1.439   .     S
C76    C84     1.405   .     A
C76    C80     1.393   .     A
C76    N108    1.438   .     S
C77    N111    1.440   .     S
C77    C81     1.410   .     A
C77    C79     1.388   .     A
C78    N114    1.440   .     S
C78    C82     1.409   .     A
C78    C80     1.387   .     A
C81    C85     1.430   .     A
C81    C87     1.415   .     A
C82    C86     1.430   .     A
C82    C88     1.415   .     A
C83    C89     1.419   .     A
C83    C85     1.430   .     A
C84    C90     1.420   .     A
C84    C86     1.430   .     A
C85    C28     1.411   1_655 S
C87    N93     1.437   .     S
C87    C32     1.392   1_655 S
C88    N96     1.437   .     S
C89    N99     1.438   .     S
C89    C30     1.391   1_655 S
C90    N102    1.438   .     S
C91    C324    1.163   1_545 S
C92    C207    1.163   .     S
N93    H95     1.046   .     S
N93    H94     1.046   .     S
N96    H98     1.046   .     S
N96    H97     1.046   .     S
N99    H100    1.045   .     S
N99    H101    1.044   .     S
N102   H103    1.044   .     S
N102   H104    1.045   .     S
N105   H106    1.046   .     S
N105   H107    1.045   .     S
N108   H109    1.045   .     S
N108   H110    1.046   .     S
N111   H112    1.045   .     S
N111   H113    1.045   .     S
N114   H116    1.045   .     S
N114   H115    1.045   .     S
O117   C121    1.262   .     A
O117   Zn129   1.948   .     S
O118   C122    1.262   .     A
O118   Zn130   1.948   .     S
O119   Zn129   1.948   .     S
O119   C122    1.262   .     A
O120   Zn130   1.948   .     S
O120   C121    1.262   .     A
C121   C149    1.361   .     S
C122   C150    1.361   .     S
O123   C127    1.269   .     A
O123   Zn129   2.017   .     S
O124   C128    1.270   .     A
O124   Zn130   2.017   .     S
O125   C128    1.269   .     A
O125   Zn129   2.017   .     S
O126   C127    1.270   .     A
O126   Zn130   2.017   .     S
C127   C138    1.427   .     S
C128   C137    1.427   .     S
Zn129  N132    1.977   .     S
Zn130  N131    1.977   .     S
N131   N828    1.196   1_554 S
N132   N479    1.196   .     S
C133   C141    1.404   .     A
C133   C137    1.392   .     A
C133   N163    1.439   .     S
C134   C142    1.405   .     A
C134   C138    1.393   .     A
C134   N166    1.438   .     S
C135   N169    1.440   .     S
C135   C139    1.410   .     A
C135   C137    1.388   .     A
C136   N172    1.440   .     S
C136   C140    1.409   .     A
C136   C138    1.387   .     A
C139   C143    1.430   .     A
C139   C145    1.415   .     A
C140   C144    1.430   .     A
C140   C146    1.415   .     A
C141   C147    1.419   .     A
C141   C143    1.430   .     A
C142   C148    1.420   .     A
C142   C144    1.430   .     A
C143   C202    1.411   .     S
C144   C201    1.411   1_455 S
C145   N151    1.437   .     S
C145   C206    1.392   .     S
C146   N154    1.437   .     S
C146   C205    1.391   1_455 S
C147   N157    1.438   .     S
C147   C204    1.391   .     S
C148   N160    1.438   .     S
C148   C203    1.392   1_455 S
C150   C265    1.163   .     S
N151   H153    1.046   .     S
N151   H152    1.046   .     S
N154   H156    1.046   .     S
N154   H155    1.046   .     S
N157   H158    1.045   .     S
N157   H159    1.044   .     S
N160   H161    1.044   .     S
N160   H162    1.045   .     S
N163   H164    1.046   .     S
N163   H165    1.045   .     S
N166   H167    1.045   .     S
N166   H168    1.046   .     S
N169   H170    1.045   .     S
N169   H171    1.045   .     S
N172   H174    1.045   .     S
N172   H173    1.045   .     S
O175   C179    1.262   .     A
O175   Zn187   1.948   .     S
O176   C180    1.262   .     A
O176   Zn188   1.948   .     S
O177   Zn187   1.948   .     S
O177   C180    1.262   .     A
O178   Zn188   1.948   .     S
O178   C179    1.262   .     A
C179   C207    1.361   .     S
C180   C208    1.361   .     S
O181   C185    1.269   .     A
O181   Zn187   2.017   .     S
O182   C186    1.270   .     A
O182   Zn188   2.017   .     S
O183   C186    1.269   .     A
O183   Zn187   2.017   .     S
O184   C185    1.270   .     A
O184   Zn188   2.017   .     S
C185   C196    1.427   .     S
C186   C195    1.427   .     S
Zn187  N190    1.977   .     S
Zn188  N189    1.977   .     S
N189   N886    1.196   1_554 S
N190   N537    1.196   .     S
C191   C199    1.404   .     A
C191   C195    1.392   .     A
C191   N221    1.439   .     S
C192   C200    1.405   .     A
C192   C196    1.393   .     A
C192   N224    1.438   .     S
C193   N227    1.440   .     S
C193   C197    1.410   .     A
C193   C195    1.388   .     A
C194   N230    1.440   .     S
C194   C198    1.409   .     A
C194   C196    1.387   .     A
C197   C201    1.430   .     A
C197   C203    1.415   .     A
C198   C202    1.430   .     A
C198   C204    1.415   .     A
C199   C205    1.419   .     A
C199   C201    1.430   .     A
C200   C206    1.420   .     A
C200   C202    1.430   .     A
C201   C144    1.411   1_655 S
C203   N209    1.437   .     S
C203   C148    1.392   1_655 S
C204   N212    1.437   .     S
C205   N215    1.438   .     S
C205   C146    1.391   1_655 S
C206   N218    1.438   .     S
C208   C323    1.163   .     S
N209   H211    1.046   .     S
N209   H210    1.046   .     S
N212   H214    1.046   .     S
N212   H213    1.046   .     S
N215   H216    1.045   .     S
N215   H217    1.044   .     S
N218   H219    1.044   .     S
N218   H220    1.045   .     S
N221   H222    1.046   .     S
N221   H223    1.045   .     S
N224   H225    1.045   .     S
N224   H226    1.046   .     S
N227   H228    1.045   .     S
N227   H229    1.045   .     S
N230   H232    1.045   .     S
N230   H231    1.045   .     S
O233   C237    1.262   .     A
O233   Zn245   1.948   .     S
O234   C238    1.262   .     A
O234   Zn246   1.948   .     S
O235   Zn245   1.948   .     S
O235   C238    1.262   .     A
O236   Zn246   1.948   .     S
O236   C237    1.262   .     A
C237   C265    1.361   .     S
C238   C266    1.361   .     S
O239   C243    1.269   .     A
O239   Zn245   2.017   .     S
O240   C244    1.270   .     A
O240   Zn246   2.017   .     S
O241   C244    1.269   .     A
O241   Zn245   2.017   .     S
O242   C243    1.270   .     A
O242   Zn246   2.017   .     S
C243   C254    1.427   .     S
C244   C253    1.427   .     S
Zn245  N248    1.977   .     S
Zn246  N247    1.977   .     S
N247   N944    1.196   1_554 S
N248   N595    1.196   .     S
C249   C257    1.404   .     A
C249   C253    1.392   .     A
C249   N279    1.439   .     S
C250   C258    1.405   .     A
C250   C254    1.393   .     A
C250   N282    1.438   .     S
C251   N285    1.440   .     S
C251   C255    1.410   .     A
C251   C253    1.388   .     A
C252   N288    1.440   .     S
C252   C256    1.409   .     A
C252   C254    1.387   .     A
C255   C259    1.430   .     A
C255   C261    1.415   .     A
C256   C260    1.430   .     A
C256   C262    1.415   .     A
C257   C263    1.419   .     A
C257   C259    1.430   .     A
C258   C264    1.420   .     A
C258   C260    1.430   .     A
C259   C318    1.411   .     S
C260   C317    1.411   1_455 S
C261   N267    1.437   .     S
C261   C322    1.392   .     S
C262   N270    1.437   .     S
C262   C321    1.391   1_455 S
C263   N273    1.438   .     S
C263   C320    1.391   .     S
C264   N276    1.438   .     S
C264   C319    1.392   1_455 S
C266   C33     1.163   1_565 S
N267   H269    1.046   .     S
N267   H268    1.046   .     S
N270   H272    1.046   .     S
N270   H271    1.046   .     S
N273   H274    1.045   .     S
N273   H275    1.044   .     S
N276   H277    1.044   .     S
N276   H278    1.045   .     S
N279   H280    1.046   .     S
N279   H281    1.045   .     S
N282   H283    1.045   .     S
N282   H284    1.046   .     S
N285   H286    1.045   .     S
N285   H287    1.045   .     S
N288   H290    1.045   .     S
N288   H289    1.045   .     S
O291   C295    1.262   .     A
O291   Zn303   1.948   .     S
O292   C296    1.262   .     A
O292   Zn304   1.948   .     S
O293   Zn303   1.948   .     S
O293   C296    1.262   .     A
O294   Zn304   1.948   .     S
O294   C295    1.262   .     A
C295   C323    1.361   .     S
C296   C324    1.361   .     S
O297   C301    1.269   .     A
O297   Zn303   2.017   .     S
O298   C302    1.270   .     A
O298   Zn304   2.017   .     S
O299   C302    1.269   .     A
O299   Zn303   2.017   .     S
O300   C301    1.270   .     A
O300   Zn304   2.017   .     S
C301   C312    1.427   .     S
C302   C311    1.427   .     S
Zn303  N306    1.977   .     S
Zn304  N305    1.977   .     S
N305   N1002   1.196   1_554 S
N306   N653    1.196   .     S
C307   C315    1.404   .     A
C307   C311    1.392   .     A
C307   N337    1.439   .     S
C308   C316    1.405   .     A
C308   C312    1.393   .     A
C308   N340    1.438   .     S
C309   N343    1.440   .     S
C309   C313    1.410   .     A
C309   C311    1.388   .     A
C310   N346    1.440   .     S
C310   C314    1.409   .     A
C310   C312    1.387   .     A
C313   C317    1.430   .     A
C313   C319    1.415   .     A
C314   C318    1.430   .     A
C314   C320    1.415   .     A
C315   C321    1.419   .     A
C315   C317    1.430   .     A
C316   C322    1.420   .     A
C316   C318    1.430   .     A
C317   C260    1.411   1_655 S
C319   N325    1.437   .     S
C319   C264    1.392   1_655 S
C320   N328    1.437   .     S
C321   N331    1.438   .     S
C321   C262    1.391   1_655 S
C322   N334    1.438   .     S
C324   C91     1.163   1_565 S
N325   H327    1.046   .     S
N325   H326    1.046   .     S
N328   H330    1.046   .     S
N328   H329    1.046   .     S
N331   H332    1.045   .     S
N331   H333    1.044   .     S
N334   H335    1.044   .     S
N334   H336    1.045   .     S
N337   H338    1.046   .     S
N337   H339    1.045   .     S
N340   H341    1.045   .     S
N340   H342    1.046   .     S
N343   H344    1.045   .     S
N343   H345    1.045   .     S
N346   H348    1.045   .     S
N346   H347    1.045   .     S
O349   C353    1.262   .     A
O349   Zn361   1.948   .     S
O350   C354    1.262   .     A
O350   Zn362   1.948   .     S
O351   Zn361   1.948   .     S
O351   C354    1.262   .     A
O352   Zn362   1.948   .     S
O352   C353    1.262   .     A
C353   C381    1.361   .     S
C354   C382    1.361   .     S
O355   C359    1.269   .     A
O355   Zn361   2.017   .     S
O356   C360    1.270   .     A
O356   Zn362   2.017   .     S
O357   C360    1.269   .     A
O357   Zn361   2.017   .     S
O358   C359    1.270   .     A
O358   Zn362   2.017   .     S
C359   C370    1.427   .     S
C360   C369    1.427   .     S
Zn361  N364    1.977   .     S
Zn362  N363    1.977   .     S
N364   N711    1.196   .     S
C365   C373    1.404   .     A
C365   C369    1.392   .     A
C365   N395    1.439   .     S
C366   C374    1.405   .     A
C366   C370    1.393   .     A
C366   N398    1.438   .     S
C367   N401    1.440   .     S
C367   C371    1.410   .     A
C367   C369    1.388   .     A
C368   N404    1.440   .     S
C368   C372    1.409   .     A
C368   C370    1.387   .     A
C371   C375    1.430   .     A
C371   C377    1.415   .     A
C372   C376    1.430   .     A
C372   C378    1.415   .     A
C373   C379    1.419   .     A
C373   C375    1.430   .     A
C374   C380    1.420   .     A
C374   C376    1.430   .     A
C375   C434    1.411   .     S
C376   C433    1.411   1_455 S
C377   N383    1.437   .     S
C377   C438    1.392   .     S
C378   N386    1.437   .     S
C378   C437    1.391   1_455 S
C379   N389    1.438   .     S
C379   C436    1.391   .     S
C380   N392    1.438   .     S
C380   C435    1.392   1_455 S
C381   C614    1.163   1_545 S
C382   C497    1.163   .     S
N383   H385    1.046   .     S
N383   H384    1.046   .     S
N386   H388    1.046   .     S
N386   H387    1.046   .     S
N389   H390    1.045   .     S
N389   H391    1.044   .     S
N392   H393    1.044   .     S
N392   H394    1.045   .     S
N395   H396    1.046   .     S
N395   H397    1.045   .     S
N398   H399    1.045   .     S
N398   H400    1.046   .     S
N401   H402    1.045   .     S
N401   H403    1.045   .     S
N404   H406    1.045   .     S
N404   H405    1.045   .     S
O407   C411    1.262   .     A
O407   Zn419   1.948   .     S
O408   C412    1.262   .     A
O408   Zn420   1.948   .     S
O409   Zn419   1.948   .     S
O409   C412    1.262   .     A
O410   Zn420   1.948   .     S
O410   C411    1.262   .     A
C411   C439    1.361   .     S
C412   C440    1.361   .     S
O413   C417    1.269   .     A
O413   Zn419   2.017   .     S
O414   C418    1.270   .     A
O414   Zn420   2.017   .     S
O415   C418    1.269   .     A
O415   Zn419   2.017   .     S
O416   C417    1.270   .     A
O416   Zn420   2.017   .     S
C417   C428    1.427   .     S
C418   C427    1.427   .     S
Zn419  N422    1.977   .     S
Zn420  N421    1.977   .     S
N422   N769    1.196   .     S
C423   C431    1.404   .     A
C423   C427    1.392   .     A
C423   N453    1.439   .     S
C424   C432    1.405   .     A
C424   C428    1.393   .     A
C424   N456    1.438   .     S
C425   N459    1.440   .     S
C425   C429    1.410   .     A
C425   C427    1.388   .     A
C426   N462    1.440   .     S
C426   C430    1.409   .     A
C426   C428    1.387   .     A
C429   C433    1.430   .     A
C429   C435    1.415   .     A
C430   C434    1.430   .     A
C430   C436    1.415   .     A
C431   C437    1.419   .     A
C431   C433    1.430   .     A
C432   C438    1.420   .     A
C432   C434    1.430   .     A
C433   C376    1.411   1_655 S
C435   N441    1.437   .     S
C435   C380    1.392   1_655 S
C436   N444    1.437   .     S
C437   N447    1.438   .     S
C437   C378    1.391   1_655 S
C438   N450    1.438   .     S
C439   C672    1.163   1_545 S
C440   C555    1.163   .     S
N441   H443    1.046   .     S
N441   H442    1.046   .     S
N444   H446    1.046   .     S
N444   H445    1.046   .     S
N447   H448    1.045   .     S
N447   H449    1.044   .     S
N450   H451    1.044   .     S
N450   H452    1.045   .     S
N453   H454    1.046   .     S
N453   H455    1.045   .     S
N456   H457    1.045   .     S
N456   H458    1.046   .     S
N459   H460    1.045   .     S
N459   H461    1.045   .     S
N462   H464    1.045   .     S
N462   H463    1.045   .     S
O465   C469    1.262   .     A
O465   Zn477   1.948   .     S
O466   C470    1.262   .     A
O466   Zn478   1.948   .     S
O467   Zn477   1.948   .     S
O467   C470    1.262   .     A
O468   Zn478   1.948   .     S
O468   C469    1.262   .     A
C469   C497    1.361   .     S
C470   C498    1.361   .     S
O471   C475    1.269   .     A
O471   Zn477   2.017   .     S
O472   C476    1.270   .     A
O472   Zn478   2.017   .     S
O473   C476    1.269   .     A
O473   Zn477   2.017   .     S
O474   C475    1.270   .     A
O474   Zn478   2.017   .     S
C475   C486    1.427   .     S
C476   C485    1.427   .     S
Zn477  N480    1.977   .     S
Zn478  N479    1.977   .     S
N480   N827    1.196   .     S
C481   C489    1.404   .     A
C481   C485    1.392   .     A
C481   N511    1.439   .     S
C482   C490    1.405   .     A
C482   C486    1.393   .     A
C482   N514    1.438   .     S
C483   N517    1.440   .     S
C483   C487    1.410   .     A
C483   C485    1.388   .     A
C484   N520    1.440   .     S
C484   C488    1.409   .     A
C484   C486    1.387   .     A
C487   C491    1.430   .     A
C487   C493    1.415   .     A
C488   C492    1.430   .     A
C488   C494    1.415   .     A
C489   C495    1.419   .     A
C489   C491    1.430   .     A
C490   C496    1.420   .     A
C490   C492    1.430   .     A
C491   C550    1.411   .     S
C492   C549    1.411   1_455 S
C493   N499    1.437   .     S
C493   C554    1.392   .     S
C494   N502    1.437   .     S
C494   C553    1.391   1_455 S
C495   N505    1.438   .     S
C495   C552    1.391   .     S
C496   N508    1.438   .     S
C496   C551    1.392   1_455 S
C498   C613    1.163   .     S
N499   H501    1.046   .     S
N499   H500    1.046   .     S
N502   H504    1.046   .     S
N502   H503    1.046   .     S
N505   H506    1.045   .     S
N505   H507    1.044   .     S
N508   H509    1.044   .     S
N508   H510    1.045   .     S
N511   H512    1.046   .     S
N511   H513    1.045   .     S
N514   H515    1.045   .     S
N514   H516    1.046   .     S
N517   H518    1.045   .     S
N517   H519    1.045   .     S
N520   H522    1.045   .     S
N520   H521    1.045   .     S
O523   C527    1.262   .     A
O523   Zn535   1.948   .     S
O524   C528    1.262   .     A
O524   Zn536   1.948   .     S
O525   Zn535   1.948   .     S
O525   C528    1.262   .     A
O526   Zn536   1.948   .     S
O526   C527    1.262   .     A
C527   C555    1.361   .     S
C528   C556    1.361   .     S
O529   C533    1.269   .     A
O529   Zn535   2.017   .     S
O530   C534    1.270   .     A
O530   Zn536   2.017   .     S
O531   C534    1.269   .     A
O531   Zn535   2.017   .     S
O532   C533    1.270   .     A
O532   Zn536   2.017   .     S
C533   C544    1.427   .     S
C534   C543    1.427   .     S
Zn535  N538    1.977   .     S
Zn536  N537    1.977   .     S
N538   N885    1.196   .     S
C539   C547    1.404   .     A
C539   C543    1.392   .     A
C539   N569    1.439   .     S
C540   C548    1.405   .     A
C540   C544    1.393   .     A
C540   N572    1.438   .     S
C541   N575    1.440   .     S
C541   C545    1.410   .     A
C541   C543    1.388   .     A
C542   N578    1.440   .     S
C542   C546    1.409   .     A
C542   C544    1.387   .     A
C545   C549    1.430   .     A
C545   C551    1.415   .     A
C546   C550    1.430   .     A
C546   C552    1.415   .     A
C547   C553    1.419   .     A
C547   C549    1.430   .     A
C548   C554    1.420   .     A
C548   C550    1.430   .     A
C549   C492    1.411   1_655 S
C551   N557    1.437   .     S
C551   C496    1.392   1_655 S
C552   N560    1.437   .     S
C553   N563    1.438   .     S
C553   C494    1.391   1_655 S
C554   N566    1.438   .     S
C556   C671    1.163   .     S
N557   H559    1.046   .     S
N557   H558    1.046   .     S
N560   H562    1.046   .     S
N560   H561    1.046   .     S
N563   H564    1.045   .     S
N563   H565    1.044   .     S
N566   H567    1.044   .     S
N566   H568    1.045   .     S
N569   H570    1.046   .     S
N569   H571    1.045   .     S
N572   H573    1.045   .     S
N572   H574    1.046   .     S
N575   H576    1.045   .     S
N575   H577    1.045   .     S
N578   H580    1.045   .     S
N578   H579    1.045   .     S
O581   C585    1.262   .     A
O581   Zn593   1.948   .     S
O582   C586    1.262   .     A
O582   Zn594   1.948   .     S
O583   Zn593   1.948   .     S
O583   C586    1.262   .     A
O584   Zn594   1.948   .     S
O584   C585    1.262   .     A
C585   C613    1.361   .     S
C586   C614    1.361   .     S
O587   C591    1.269   .     A
O587   Zn593   2.017   .     S
O588   C592    1.270   .     A
O588   Zn594   2.017   .     S
O589   C592    1.269   .     A
O589   Zn593   2.017   .     S
O590   C591    1.270   .     A
O590   Zn594   2.017   .     S
C591   C602    1.427   .     S
C592   C601    1.427   .     S
Zn593  N596    1.977   .     S
Zn594  N595    1.977   .     S
N596   N943    1.196   .     S
C597   C605    1.404   .     A
C597   C601    1.392   .     A
C597   N627    1.439   .     S
C598   C606    1.405   .     A
C598   C602    1.393   .     A
C598   N630    1.438   .     S
C599   N633    1.440   .     S
C599   C603    1.410   .     A
C599   C601    1.388   .     A
C600   N636    1.440   .     S
C600   C604    1.409   .     A
C600   C602    1.387   .     A
C603   C607    1.430   .     A
C603   C609    1.415   .     A
C604   C608    1.430   .     A
C604   C610    1.415   .     A
C605   C611    1.419   .     A
C605   C607    1.430   .     A
C606   C612    1.420   .     A
C606   C608    1.430   .     A
C607   C666    1.411   .     S
C608   C665    1.411   1_455 S
C609   N615    1.437   .     S
C609   C670    1.392   .     S
C610   N618    1.437   .     S
C610   C669    1.391   1_455 S
C611   N621    1.438   .     S
C611   C668    1.391   .     S
C612   N624    1.438   .     S
C612   C667    1.392   1_455 S
C614   C381    1.163   1_565 S
N615   H617    1.046   .     S
N615   H616    1.046   .     S
N618   H620    1.046   .     S
N618   H619    1.046   .     S
N621   H622    1.045   .     S
N621   H623    1.044   .     S
N624   H625    1.044   .     S
N624   H626    1.045   .     S
N627   H628    1.046   .     S
N627   H629    1.045   .     S
N630   H631    1.045   .     S
N630   H632    1.046   .     S
N633   H634    1.045   .     S
N633   H635    1.045   .     S
N636   H638    1.045   .     S
N636   H637    1.045   .     S
O639   C643    1.262   .     A
O639   Zn651   1.948   .     S
O640   C644    1.262   .     A
O640   Zn652   1.948   .     S
O641   Zn651   1.948   .     S
O641   C644    1.262   .     A
O642   Zn652   1.948   .     S
O642   C643    1.262   .     A
C643   C671    1.361   .     S
C644   C672    1.361   .     S
O645   C649    1.269   .     A
O645   Zn651   2.017   .     S
O646   C650    1.270   .     A
O646   Zn652   2.017   .     S
O647   C650    1.269   .     A
O647   Zn651   2.017   .     S
O648   C649    1.270   .     A
O648   Zn652   2.017   .     S
C649   C660    1.427   .     S
C650   C659    1.427   .     S
Zn651  N654    1.977   .     S
Zn652  N653    1.977   .     S
N654   N1001   1.196   .     S
C655   C663    1.404   .     A
C655   C659    1.392   .     A
C655   N685    1.439   .     S
C656   C664    1.405   .     A
C656   C660    1.393   .     A
C656   N688    1.438   .     S
C657   N691    1.440   .     S
C657   C661    1.410   .     A
C657   C659    1.388   .     A
C658   N694    1.440   .     S
C658   C662    1.409   .     A
C658   C660    1.387   .     A
C661   C665    1.430   .     A
C661   C667    1.415   .     A
C662   C666    1.430   .     A
C662   C668    1.415   .     A
C663   C669    1.419   .     A
C663   C665    1.430   .     A
C664   C670    1.420   .     A
C664   C666    1.430   .     A
C665   C608    1.411   1_655 S
C667   N673    1.437   .     S
C667   C612    1.392   1_655 S
C668   N676    1.437   .     S
C669   N679    1.438   .     S
C669   C610    1.391   1_655 S
C670   N682    1.438   .     S
C672   C439    1.163   1_565 S
N673   H675    1.046   .     S
N673   H674    1.046   .     S
N676   H678    1.046   .     S
N676   H677    1.046   .     S
N679   H680    1.045   .     S
N679   H681    1.044   .     S
N682   H683    1.044   .     S
N682   H684    1.045   .     S
N685   H686    1.046   .     S
N685   H687    1.045   .     S
N688   H689    1.045   .     S
N688   H690    1.046   .     S
N691   H692    1.045   .     S
N691   H693    1.045   .     S
N694   H696    1.045   .     S
N694   H695    1.045   .     S
O697   C701    1.262   .     A
O697   Zn709   1.948   .     S
O698   C702    1.262   .     A
O698   Zn710   1.948   .     S
O699   Zn709   1.948   .     S
O699   C702    1.262   .     A
O700   Zn710   1.948   .     S
O700   C701    1.262   .     A
C701   C729    1.361   .     S
C702   C730    1.361   .     S
O703   C707    1.269   .     A
O703   Zn709   2.017   .     S
O704   C708    1.270   .     A
O704   Zn710   2.017   .     S
O705   C708    1.269   .     A
O705   Zn709   2.017   .     S
O706   C707    1.270   .     A
O706   Zn710   2.017   .     S
C707   C718    1.427   .     S
C708   C717    1.427   .     S
Zn709  N712    1.977   .     S
Zn710  N711    1.977   .     S
N712   N15     1.196   1_556 S
C713   C721    1.404   .     A
C713   C717    1.392   .     A
C713   N743    1.439   .     S
C714   C722    1.405   .     A
C714   C718    1.393   .     A
C714   N746    1.438   .     S
C715   N749    1.440   .     S
C715   C719    1.410   .     A
C715   C717    1.388   .     A
C716   N752    1.440   .     S
C716   C720    1.409   .     A
C716   C718    1.387   .     A
C719   C723    1.430   .     A
C719   C725    1.415   .     A
C720   C724    1.430   .     A
C720   C726    1.415   .     A
C721   C727    1.419   .     A
C721   C723    1.430   .     A
C722   C728    1.420   .     A
C722   C724    1.430   .     A
C723   C782    1.411   .     S
C724   C781    1.411   1_455 S
C725   N731    1.437   .     S
C725   C786    1.392   .     S
C726   N734    1.437   .     S
C726   C785    1.391   1_455 S
C727   N737    1.438   .     S
C727   C784    1.391   .     S
C728   N740    1.438   .     S
C728   C783    1.392   1_455 S
C729   C962    1.163   1_545 S
C730   C845    1.163   .     S
N731   H733    1.046   .     S
N731   H732    1.046   .     S
N734   H736    1.046   .     S
N734   H735    1.046   .     S
N737   H738    1.045   .     S
N737   H739    1.044   .     S
N740   H741    1.044   .     S
N740   H742    1.045   .     S
N743   H744    1.046   .     S
N743   H745    1.045   .     S
N746   H747    1.045   .     S
N746   H748    1.046   .     S
N749   H750    1.045   .     S
N749   H751    1.045   .     S
N752   H754    1.045   .     S
N752   H753    1.045   .     S
O755   C759    1.262   .     A
O755   Zn767   1.948   .     S
O756   C760    1.262   .     A
O756   Zn768   1.948   .     S
O757   Zn767   1.948   .     S
O757   C760    1.262   .     A
O758   Zn768   1.948   .     S
O758   C759    1.262   .     A
C759   C787    1.361   .     S
C760   C788    1.361   .     S
O761   C765    1.269   .     A
O761   Zn767   2.017   .     S
O762   C766    1.270   .     A
O762   Zn768   2.017   .     S
O763   C766    1.269   .     A
O763   Zn767   2.017   .     S
O764   C765    1.270   .     A
O764   Zn768   2.017   .     S
C765   C776    1.427   .     S
C766   C775    1.427   .     S
Zn767  N770    1.977   .     S
Zn768  N769    1.977   .     S
N770   N73     1.196   1_556 S
C771   C779    1.404   .     A
C771   C775    1.392   .     A
C771   N801    1.439   .     S
C772   C780    1.405   .     A
C772   C776    1.393   .     A
C772   N804    1.438   .     S
C773   N807    1.440   .     S
C773   C777    1.410   .     A
C773   C775    1.388   .     A
C774   N810    1.440   .     S
C774   C778    1.409   .     A
C774   C776    1.387   .     A
C777   C781    1.430   .     A
C777   C783    1.415   .     A
C778   C782    1.430   .     A
C778   C784    1.415   .     A
C779   C785    1.419   .     A
C779   C781    1.430   .     A
C780   C786    1.420   .     A
C780   C782    1.430   .     A
C781   C724    1.411   1_655 S
C783   N789    1.437   .     S
C783   C728    1.392   1_655 S
C784   N792    1.437   .     S
C785   N795    1.438   .     S
C785   C726    1.391   1_655 S
C786   N798    1.438   .     S
C787   C1020   1.163   1_545 S
C788   C903    1.163   .     S
N789   H791    1.046   .     S
N789   H790    1.046   .     S
N792   H794    1.046   .     S
N792   H793    1.046   .     S
N795   H796    1.045   .     S
N795   H797    1.044   .     S
N798   H799    1.044   .     S
N798   H800    1.045   .     S
N801   H802    1.046   .     S
N801   H803    1.045   .     S
N804   H805    1.045   .     S
N804   H806    1.046   .     S
N807   H808    1.045   .     S
N807   H809    1.045   .     S
N810   H812    1.045   .     S
N810   H811    1.045   .     S
O813   C817    1.262   .     A
O813   Zn825   1.948   .     S
O814   C818    1.262   .     A
O814   Zn826   1.948   .     S
O815   Zn825   1.948   .     S
O815   C818    1.262   .     A
O816   Zn826   1.948   .     S
O816   C817    1.262   .     A
C817   C845    1.361   .     S
C818   C846    1.361   .     S
O819   C823    1.269   .     A
O819   Zn825   2.017   .     S
O820   C824    1.270   .     A
O820   Zn826   2.017   .     S
O821   C824    1.269   .     A
O821   Zn825   2.017   .     S
O822   C823    1.270   .     A
O822   Zn826   2.017   .     S
C823   C834    1.427   .     S
C824   C833    1.427   .     S
Zn825  N828    1.977   .     S
Zn826  N827    1.977   .     S
N828   N131    1.196   1_556 S
C829   C837    1.404   .     A
C829   C833    1.392   .     A
C829   N859    1.439   .     S
C830   C838    1.405   .     A
C830   C834    1.393   .     A
C830   N862    1.438   .     S
C831   N865    1.440   .     S
C831   C835    1.410   .     A
C831   C833    1.388   .     A
C832   N868    1.440   .     S
C832   C836    1.409   .     A
C832   C834    1.387   .     A
C835   C839    1.430   .     A
C835   C841    1.415   .     A
C836   C840    1.430   .     A
C836   C842    1.415   .     A
C837   C843    1.419   .     A
C837   C839    1.430   .     A
C838   C844    1.420   .     A
C838   C840    1.430   .     A
C839   C898    1.411   .     S
C840   C897    1.411   1_455 S
C841   N847    1.437   .     S
C841   C902    1.392   .     S
C842   N850    1.437   .     S
C842   C901    1.391   1_455 S
C843   N853    1.438   .     S
C843   C900    1.391   .     S
C844   N856    1.438   .     S
C844   C899    1.392   1_455 S
C846   C961    1.163   .     S
N847   H849    1.046   .     S
N847   H848    1.046   .     S
N850   H852    1.046   .     S
N850   H851    1.046   .     S
N853   H854    1.045   .     S
N853   H855    1.044   .     S
N856   H857    1.044   .     S
N856   H858    1.045   .     S
N859   H860    1.046   .     S
N859   H861    1.045   .     S
N862   H863    1.045   .     S
N862   H864    1.046   .     S
N865   H866    1.045   .     S
N865   H867    1.045   .     S
N868   H870    1.045   .     S
N868   H869    1.045   .     S
O871   C875    1.262   .     A
O871   Zn883   1.948   .     S
O872   C876    1.262   .     A
O872   Zn884   1.948   .     S
O873   Zn883   1.948   .     S
O873   C876    1.262   .     A
O874   Zn884   1.948   .     S
O874   C875    1.262   .     A
C875   C903    1.361   .     S
C876   C904    1.361   .     S
O877   C881    1.269   .     A
O877   Zn883   2.017   .     S
O878   C882    1.270   .     A
O878   Zn884   2.017   .     S
O879   C882    1.269   .     A
O879   Zn883   2.017   .     S
O880   C881    1.270   .     A
O880   Zn884   2.017   .     S
C881   C892    1.427   .     S
C882   C891    1.427   .     S
Zn883  N886    1.977   .     S
Zn884  N885    1.977   .     S
N886   N189    1.196   1_556 S
C887   C895    1.404   .     A
C887   C891    1.392   .     A
C887   N917    1.439   .     S
C888   C896    1.405   .     A
C888   C892    1.393   .     A
C888   N920    1.438   .     S
C889   N923    1.440   .     S
C889   C893    1.410   .     A
C889   C891    1.388   .     A
C890   N926    1.440   .     S
C890   C894    1.409   .     A
C890   C892    1.387   .     A
C893   C897    1.430   .     A
C893   C899    1.415   .     A
C894   C898    1.430   .     A
C894   C900    1.415   .     A
C895   C901    1.419   .     A
C895   C897    1.430   .     A
C896   C902    1.420   .     A
C896   C898    1.430   .     A
C897   C840    1.411   1_655 S
C899   N905    1.437   .     S
C899   C844    1.392   1_655 S
C900   N908    1.437   .     S
C901   N911    1.438   .     S
C901   C842    1.391   1_655 S
C902   N914    1.438   .     S
C904   C1019   1.163   .     S
N905   H907    1.046   .     S
N905   H906    1.046   .     S
N908   H910    1.046   .     S
N908   H909    1.046   .     S
N911   H912    1.045   .     S
N911   H913    1.044   .     S
N914   H915    1.044   .     S
N914   H916    1.045   .     S
N917   H918    1.046   .     S
N917   H919    1.045   .     S
N920   H921    1.045   .     S
N920   H922    1.046   .     S
N923   H924    1.045   .     S
N923   H925    1.045   .     S
N926   H928    1.045   .     S
N926   H927    1.045   .     S
O929   C933    1.262   .     A
O929   Zn941   1.948   .     S
O930   C934    1.262   .     A
O930   Zn942   1.948   .     S
O931   Zn941   1.948   .     S
O931   C934    1.262   .     A
O932   Zn942   1.948   .     S
O932   C933    1.262   .     A
C933   C961    1.361   .     S
C934   C962    1.361   .     S
O935   C939    1.269   .     A
O935   Zn941   2.017   .     S
O936   C940    1.270   .     A
O936   Zn942   2.017   .     S
O937   C940    1.269   .     A
O937   Zn941   2.017   .     S
O938   C939    1.270   .     A
O938   Zn942   2.017   .     S
C939   C950    1.427   .     S
C940   C949    1.427   .     S
Zn941  N944    1.977   .     S
Zn942  N943    1.977   .     S
N944   N247    1.196   1_556 S
C945   C953    1.404   .     A
C945   C949    1.392   .     A
C945   N975    1.439   .     S
C946   C954    1.405   .     A
C946   C950    1.393   .     A
C946   N978    1.438   .     S
C947   N981    1.440   .     S
C947   C951    1.410   .     A
C947   C949    1.388   .     A
C948   N984    1.440   .     S
C948   C952    1.409   .     A
C948   C950    1.387   .     A
C951   C955    1.430   .     A
C951   C957    1.415   .     A
C952   C956    1.430   .     A
C952   C958    1.415   .     A
C953   C959    1.419   .     A
C953   C955    1.430   .     A
C954   C960    1.420   .     A
C954   C956    1.430   .     A
C955   C1014   1.411   .     S
C956   C1013   1.411   1_455 S
C957   N963    1.437   .     S
C957   C1018   1.392   .     S
C958   N966    1.437   .     S
C958   C1017   1.391   1_455 S
C959   N969    1.438   .     S
C959   C1016   1.391   .     S
C960   N972    1.438   .     S
C960   C1015   1.392   1_455 S
C962   C729    1.163   1_565 S
N963   H965    1.046   .     S
N963   H964    1.046   .     S
N966   H968    1.046   .     S
N966   H967    1.046   .     S
N969   H970    1.045   .     S
N969   H971    1.044   .     S
N972   H973    1.044   .     S
N972   H974    1.045   .     S
N975   H976    1.046   .     S
N975   H977    1.045   .     S
N978   H979    1.045   .     S
N978   H980    1.046   .     S
N981   H982    1.045   .     S
N981   H983    1.045   .     S
N984   H986    1.045   .     S
N984   H985    1.045   .     S
O987   C991    1.262   .     A
O987   Zn999   1.948   .     S
O988   C992    1.262   .     A
O988   Zn1000  1.948   .     S
O989   Zn999   1.948   .     S
O989   C992    1.262   .     A
O990   Zn1000  1.948   .     S
O990   C991    1.262   .     A
C991   C1019   1.361   .     S
C992   C1020   1.361   .     S
O993   C997    1.269   .     A
O993   Zn999   2.017   .     S
O994   C998    1.270   .     A
O994   Zn1000  2.017   .     S
O995   C998    1.269   .     A
O995   Zn999   2.017   .     S
O996   C997    1.270   .     A
O996   Zn1000  2.017   .     S
C997   C1008   1.427   .     S
C998   C1007   1.427   .     S
Zn999  N1002   1.977   .     S
Zn1000 N1001   1.977   .     S
N1002  N305    1.196   1_556 S
C1003  C1011   1.404   .     A
C1003  C1007   1.392   .     A
C1003  N1033   1.439   .     S
C1004  C1012   1.405   .     A
C1004  C1008   1.393   .     A
C1004  N1036   1.438   .     S
C1005  N1039   1.440   .     S
C1005  C1009   1.410   .     A
C1005  C1007   1.388   .     A
C1006  N1042   1.440   .     S
C1006  C1010   1.409   .     A
C1006  C1008   1.387   .     A
C1009  C1013   1.430   .     A
C1009  C1015   1.415   .     A
C1010  C1014   1.430   .     A
C1010  C1016   1.415   .     A
C1011  C1017   1.419   .     A
C1011  C1013   1.430   .     A
C1012  C1018   1.420   .     A
C1012  C1014   1.430   .     A
C1013  C956    1.411   1_655 S
C1015  N1021   1.437   .     S
C1015  C960    1.392   1_655 S
C1016  N1024   1.437   .     S
C1017  N1027   1.438   .     S
C1017  C958    1.391   1_655 S
C1018  N1030   1.438   .     S
C1020  C787    1.163   1_565 S
N1021  H1023   1.046   .     S
N1021  H1022   1.046   .     S
N1024  H1026   1.046   .     S
N1024  H1025   1.046   .     S
N1027  H1028   1.045   .     S
N1027  H1029   1.044   .     S
N1030  H1031   1.044   .     S
N1030  H1032   1.045   .     S
N1033  H1034   1.046   .     S
N1033  H1035   1.045   .     S
N1036  H1037   1.045   .     S
N1036  H1038   1.046   .     S
N1039  H1040   1.045   .     S
N1039  H1041   1.045   .     S
N1042  H1044   1.045   .     S
N1042  H1043   1.045   .     S
