data_str_m2_o2_o10_pcu_sym.186
_audit_creation_date              2020-01-03
_audit_creation_method            'Materials Studio'
_symmetry_space_group_name_H-M    'P1'
_symmetry_Int_Tables_number       1
_symmetry_cell_setting            triclinic
loop_
_symmetry_equiv_pos_as_xyz
  x,y,z
_cell_length_a                    26.3270
_cell_length_b                    30.4434
_cell_length_c                    27.7040
_cell_angle_alpha                 91.1781
_cell_angle_beta                  97.3375
_cell_angle_gamma                 89.3772
loop_
_atom_site_label
_atom_site_type_symbol
_atom_site_fract_x
_atom_site_fract_y
_atom_site_fract_z
_atom_site_U_iso_or_equiv
_atom_site_adp_type
_atom_site_occupancy
C1     C     0.16930   0.16495   0.24960   0.00000  Uiso   1.00
C2     C     0.16442   0.33511   0.25033   0.00000  Uiso   1.00
C3     C     0.21112   0.25935   0.05935   0.00000  Uiso   1.00
C4     C     0.14330   0.21618   0.44241   0.00000  Uiso   1.00
C5     C     0.20999   0.26047   0.10993   0.00000  Uiso   1.00
C6     C     0.14280   0.21728   0.39169   0.00000  Uiso   1.00
C7     C     0.12358   0.23851   0.09914   0.00000  Uiso   1.00
C8     C     0.19094   0.28259   0.39896   0.00000  Uiso   1.00
C9     C     0.12213   0.23882   0.04810   0.00000  Uiso   1.00
C10    C     0.19053   0.28408   0.44986   0.00000  Uiso   1.00
C11    C     0.16689   0.24880   0.02724   0.00000  Uiso   1.00
C12    C     0.16714   0.24971   0.47269   0.00000  Uiso   1.00
C13    C     0.06810   0.24907   0.23787   0.00000  Uiso   1.00
C14    C     0.26520   0.25065   0.26210   0.00000  Uiso   1.00
C15    C     0.01385   0.24142   0.23283   0.00000  Uiso   1.00
C16    C     0.31938   0.25818   0.26710   0.00000  Uiso   1.00
C17    C     0.18603   0.04910   0.29433   0.00000  Uiso   1.00
C18    C     0.15208   0.45061   0.20393   0.00000  Uiso   1.00
C19    C     0.18156   0.09486   0.29295   0.00000  Uiso   1.00
C20    C     0.15538   0.40488   0.20610   0.00000  Uiso   1.00
C21    C     0.17576   0.11679   0.24863   0.00000  Uiso   1.00
C22    C     0.15931   0.38343   0.25070   0.00000  Uiso   1.00
C23    C     0.17987   0.09212   0.20530   0.00000  Uiso   1.00
C24    C     0.15507   0.40878   0.29343   0.00000  Uiso   1.00
C25    C     0.18121   0.04645   0.20709   0.00000  Uiso   1.00
C26    C     0.15468   0.45444   0.29096   0.00000  Uiso   1.00
C27    C     0.17588   0.02417   0.25004   0.00000  Uiso   1.00
C28    C     0.16141   0.47607   0.24794   0.00000  Uiso   1.00
Cu29   Cu    0.16667   0.25000   0.29821   0.00000  Uiso   1.00
Cu30   Cu    0.16667   0.25001   0.20178   0.00000  Uiso   1.00
H31    H     0.18575   0.11365   0.32688   0.00000  Uiso   1.00
H32    H     0.15163   0.38577   0.17239   0.00000  Uiso   1.00
H33    H     0.18788   0.02876   0.17439   0.00000  Uiso   1.00
H34    H     0.14780   0.47275   0.32323   0.00000  Uiso   1.00
H35    H     0.24663   0.26677   0.04556   0.00000  Uiso   1.00
H36    H     0.12549   0.18879   0.45781   0.00000  Uiso   1.00
H37    H     0.24430   0.26959   0.13345   0.00000  Uiso   1.00
H38    H     0.12360   0.19147   0.36920   0.00000  Uiso   1.00
H39    H     0.08958   0.22926   0.11423   0.00000  Uiso   1.00
H40    H     0.21045   0.30804   0.38201   0.00000  Uiso   1.00
N41    N     0.16667   0.25001   0.12934   0.00000  Uiso   1.00
N42    N     0.16667   0.24999   0.37065   0.00000  Uiso   1.00
O43    O     0.16667   0.18573   0.29071   0.00000  Uiso   1.00
O44    O     0.16666   0.31428   0.20928   0.00000  Uiso   1.00
O45    O     0.16667   0.18573   0.20928   0.00000  Uiso   1.00
O46    O     0.16666   0.31427   0.29072   0.00000  Uiso   1.00
O47    O     0.09161   0.25000   0.28132   0.00000  Uiso   1.00
O48    O     0.24172   0.25001   0.21868   0.00000  Uiso   1.00
O49    O     0.09161   0.25000   0.19988   0.00000  Uiso   1.00
O50    O     0.24172   0.25000   0.30011   0.00000  Uiso   1.00
C51    C     0.32751   0.20734   0.19601   0.00000  Uiso   1.00
O52    O     0.30448   0.17563   0.20836   0.00000  Uiso   1.00
O53    O     0.00320   0.21107   0.14766   0.00000  Uiso   1.00
H54    H     0.32140   0.18590   0.12617   0.00000  Uiso   1.00
C55    C     0.00522   0.29288   0.30324   0.00000  Uiso   1.00
O56    O     0.02761   0.32460   0.29014   0.00000  Uiso   1.00
O57    O     0.32886   0.29016   0.35152   0.00000  Uiso   1.00
H58    H     0.00994   0.31596   0.37243   0.00000  Uiso   1.00
C59    C     0.21065   0.03025   0.34065   0.00000  Uiso   1.00
O60    O     0.20110   0.04556   0.37970   0.00000  Uiso   1.00
O61    O     0.24617   0.49585   0.33958   0.00000  Uiso   1.00
H62    H     0.26041   0.48585   0.37334   0.00000  Uiso   1.00
C63    C     0.12920   0.46855   0.15662   0.00000  Uiso   1.00
O64    O     0.09665   0.49763   0.15551   0.00000  Uiso   1.00
O65    O     0.14324   0.45090   0.11320   0.00000  Uiso   1.00
H66    H     0.12458   0.46550   0.08339   0.00000  Uiso   1.00
C67    C     0.18301   0.11157   0.15721   0.00000  Uiso   1.00
O68    O     0.21729   0.13711   0.15194   0.00000  Uiso   1.00
O69    O     0.14815   0.09865   0.11724   0.00000  Uiso   1.00
H70    H     0.15433   0.11370   0.08623   0.00000  Uiso   1.00
C71    C     0.14985   0.38986   0.34124   0.00000  Uiso   1.00
O72    O     0.17914   0.40116   0.37708   0.00000  Uiso   1.00
O73    O     0.10982   0.36117   0.34582   0.00000  Uiso   1.00
H74    H     0.10923   0.35120   0.38038   0.00000  Uiso   1.00
O75    O     0.07716   0.22788   0.01923   0.00000  Uiso   1.00
C76    C     0.04809   0.26657   0.00906   0.00000  Uiso   1.00
H77    H     0.07030   0.29147   0.49173   0.00000  Uiso   1.00
H78    H     0.03558   0.28092   0.04298   0.00000  Uiso   1.00
C79    C     0.00071   0.25548   0.47372   0.00000  Uiso   1.00
H80    H     0.30976   0.23198   0.49042   0.00000  Uiso   1.00
H81    H     0.31154   0.28586   0.46444   0.00000  Uiso   1.00
H82    H     0.01213   0.24050   0.43980   0.00000  Uiso   1.00
O83    O     0.21594   0.31786   0.47663   0.00000  Uiso   1.00
C84    C     0.17986   0.34945   0.48899   0.00000  Uiso   1.00
H85    H     0.15305   0.33538   0.01238   0.00000  Uiso   1.00
H86    H     0.15738   0.36296   0.45589   0.00000  Uiso   1.00
C87    C     0.20808   0.38712   0.01719   0.00000  Uiso   1.00
H88    H     0.23497   0.40229   0.49472   0.00000  Uiso   1.00
H89    H     0.18016   0.41246   0.02665   0.00000  Uiso   1.00
H90    H     0.22995   0.37480   0.05126   0.00000  Uiso   1.00
C91    C     0.50263   0.16495   0.24960   0.00000  Uiso   1.00
C92    C     0.49775   0.33511   0.25033   0.00000  Uiso   1.00
C93    C     0.54445   0.25935   0.05935   0.00000  Uiso   1.00
C94    C     0.47664   0.21618   0.44241   0.00000  Uiso   1.00
C95    C     0.54333   0.26047   0.10993   0.00000  Uiso   1.00
C96    C     0.47614   0.21728   0.39169   0.00000  Uiso   1.00
C97    C     0.45691   0.23851   0.09914   0.00000  Uiso   1.00
C98    C     0.52427   0.28259   0.39896   0.00000  Uiso   1.00
C99    C     0.45546   0.23882   0.04810   0.00000  Uiso   1.00
C100   C     0.52386   0.28408   0.44986   0.00000  Uiso   1.00
C101   C     0.50022   0.24880   0.02724   0.00000  Uiso   1.00
C102   C     0.50047   0.24971   0.47269   0.00000  Uiso   1.00
C103   C     0.40144   0.24907   0.23787   0.00000  Uiso   1.00
C104   C     0.59853   0.25065   0.26210   0.00000  Uiso   1.00
C105   C     0.34718   0.24142   0.23283   0.00000  Uiso   1.00
C106   C     0.65272   0.25818   0.26710   0.00000  Uiso   1.00
C107   C     0.51936   0.04910   0.29433   0.00000  Uiso   1.00
C108   C     0.48541   0.45061   0.20393   0.00000  Uiso   1.00
C109   C     0.51490   0.09486   0.29295   0.00000  Uiso   1.00
C110   C     0.48871   0.40488   0.20610   0.00000  Uiso   1.00
C111   C     0.50909   0.11679   0.24863   0.00000  Uiso   1.00
C112   C     0.49264   0.38343   0.25070   0.00000  Uiso   1.00
C113   C     0.51320   0.09212   0.20530   0.00000  Uiso   1.00
C114   C     0.48840   0.40878   0.29343   0.00000  Uiso   1.00
C115   C     0.51454   0.04645   0.20709   0.00000  Uiso   1.00
C116   C     0.48802   0.45444   0.29096   0.00000  Uiso   1.00
C117   C     0.50922   0.02417   0.25004   0.00000  Uiso   1.00
C118   C     0.49475   0.47607   0.24794   0.00000  Uiso   1.00
Cu119  Cu    0.50000   0.25000   0.29821   0.00000  Uiso   1.00
Cu120  Cu    0.50000   0.25001   0.20178   0.00000  Uiso   1.00
H121   H     0.51908   0.11365   0.32688   0.00000  Uiso   1.00
H122   H     0.48496   0.38577   0.17239   0.00000  Uiso   1.00
H123   H     0.52121   0.02876   0.17439   0.00000  Uiso   1.00
H124   H     0.48113   0.47275   0.32323   0.00000  Uiso   1.00
H125   H     0.57997   0.26677   0.04556   0.00000  Uiso   1.00
H126   H     0.45883   0.18879   0.45781   0.00000  Uiso   1.00
H127   H     0.57764   0.26959   0.13345   0.00000  Uiso   1.00
H128   H     0.45693   0.19147   0.36920   0.00000  Uiso   1.00
H129   H     0.42291   0.22926   0.11423   0.00000  Uiso   1.00
H130   H     0.54378   0.30804   0.38201   0.00000  Uiso   1.00
N131   N     0.50000   0.25001   0.12934   0.00000  Uiso   1.00
N132   N     0.50000   0.24999   0.37065   0.00000  Uiso   1.00
O133   O     0.50000   0.18573   0.29071   0.00000  Uiso   1.00
O134   O     0.50000   0.31428   0.20928   0.00000  Uiso   1.00
O135   O     0.50000   0.18573   0.20928   0.00000  Uiso   1.00
O136   O     0.50000   0.31427   0.29072   0.00000  Uiso   1.00
O137   O     0.42495   0.25000   0.28132   0.00000  Uiso   1.00
O138   O     0.57505   0.25001   0.21868   0.00000  Uiso   1.00
O139   O     0.42495   0.25000   0.19988   0.00000  Uiso   1.00
O140   O     0.57505   0.25000   0.30011   0.00000  Uiso   1.00
C141   C     0.66084   0.20734   0.19601   0.00000  Uiso   1.00
O142   O     0.63782   0.17563   0.20836   0.00000  Uiso   1.00
O143   O     0.33654   0.21107   0.14766   0.00000  Uiso   1.00
H144   H     0.65474   0.18590   0.12617   0.00000  Uiso   1.00
C145   C     0.33855   0.29288   0.30324   0.00000  Uiso   1.00
O146   O     0.36095   0.32460   0.29014   0.00000  Uiso   1.00
O147   O     0.66219   0.29016   0.35152   0.00000  Uiso   1.00
H148   H     0.34327   0.31596   0.37243   0.00000  Uiso   1.00
C149   C     0.54398   0.03025   0.34065   0.00000  Uiso   1.00
O150   O     0.53443   0.04556   0.37970   0.00000  Uiso   1.00
O151   O     0.57951   0.49585   0.33958   0.00000  Uiso   1.00
H152   H     0.59374   0.48585   0.37334   0.00000  Uiso   1.00
C153   C     0.46253   0.46855   0.15662   0.00000  Uiso   1.00
O154   O     0.42999   0.49763   0.15551   0.00000  Uiso   1.00
O155   O     0.47657   0.45090   0.11320   0.00000  Uiso   1.00
H156   H     0.45791   0.46550   0.08339   0.00000  Uiso   1.00
C157   C     0.51634   0.11157   0.15721   0.00000  Uiso   1.00
O158   O     0.55063   0.13711   0.15194   0.00000  Uiso   1.00
O159   O     0.48148   0.09865   0.11724   0.00000  Uiso   1.00
H160   H     0.48766   0.11370   0.08623   0.00000  Uiso   1.00
C161   C     0.48319   0.38986   0.34124   0.00000  Uiso   1.00
O162   O     0.51248   0.40116   0.37708   0.00000  Uiso   1.00
O163   O     0.44315   0.36117   0.34582   0.00000  Uiso   1.00
H164   H     0.44256   0.35120   0.38038   0.00000  Uiso   1.00
O165   O     0.41049   0.22788   0.01923   0.00000  Uiso   1.00
C166   C     0.38143   0.26657   0.00906   0.00000  Uiso   1.00
H167   H     0.40363   0.29147   0.49173   0.00000  Uiso   1.00
H168   H     0.36892   0.28092   0.04298   0.00000  Uiso   1.00
C169   C     0.33404   0.25548   0.47372   0.00000  Uiso   1.00
H170   H     0.64309   0.23198   0.49042   0.00000  Uiso   1.00
H171   H     0.64488   0.28586   0.46444   0.00000  Uiso   1.00
H172   H     0.34547   0.24050   0.43980   0.00000  Uiso   1.00
O173   O     0.54927   0.31786   0.47663   0.00000  Uiso   1.00
C174   C     0.51320   0.34945   0.48899   0.00000  Uiso   1.00
H175   H     0.48638   0.33538   0.01238   0.00000  Uiso   1.00
H176   H     0.49072   0.36296   0.45589   0.00000  Uiso   1.00
C177   C     0.54141   0.38712   0.01719   0.00000  Uiso   1.00
H178   H     0.56830   0.40229   0.49472   0.00000  Uiso   1.00
H179   H     0.51350   0.41246   0.02665   0.00000  Uiso   1.00
H180   H     0.56328   0.37480   0.05126   0.00000  Uiso   1.00
C181   C     0.83597   0.16495   0.24960   0.00000  Uiso   1.00
C182   C     0.83108   0.33511   0.25033   0.00000  Uiso   1.00
C183   C     0.87779   0.25935   0.05935   0.00000  Uiso   1.00
C184   C     0.80997   0.21618   0.44241   0.00000  Uiso   1.00
C185   C     0.87666   0.26047   0.10993   0.00000  Uiso   1.00
C186   C     0.80947   0.21728   0.39169   0.00000  Uiso   1.00
C187   C     0.79024   0.23851   0.09914   0.00000  Uiso   1.00
C188   C     0.85760   0.28259   0.39896   0.00000  Uiso   1.00
C189   C     0.78879   0.23882   0.04810   0.00000  Uiso   1.00
C190   C     0.85720   0.28408   0.44986   0.00000  Uiso   1.00
C191   C     0.83356   0.24880   0.02724   0.00000  Uiso   1.00
C192   C     0.83381   0.24971   0.47269   0.00000  Uiso   1.00
C193   C     0.73477   0.24907   0.23787   0.00000  Uiso   1.00
C194   C     0.93187   0.25065   0.26210   0.00000  Uiso   1.00
C195   C     0.68052   0.24142   0.23283   0.00000  Uiso   1.00
C196   C     0.98605   0.25818   0.26710   0.00000  Uiso   1.00
C197   C     0.85270   0.04910   0.29433   0.00000  Uiso   1.00
C198   C     0.81875   0.45061   0.20393   0.00000  Uiso   1.00
C199   C     0.84823   0.09486   0.29295   0.00000  Uiso   1.00
C200   C     0.82204   0.40488   0.20610   0.00000  Uiso   1.00
C201   C     0.84242   0.11679   0.24863   0.00000  Uiso   1.00
C202   C     0.82598   0.38343   0.25070   0.00000  Uiso   1.00
C203   C     0.84654   0.09212   0.20530   0.00000  Uiso   1.00
C204   C     0.82174   0.40878   0.29343   0.00000  Uiso   1.00
C205   C     0.84788   0.04645   0.20709   0.00000  Uiso   1.00
C206   C     0.82135   0.45444   0.29096   0.00000  Uiso   1.00
C207   C     0.84255   0.02417   0.25004   0.00000  Uiso   1.00
C208   C     0.82808   0.47607   0.24794   0.00000  Uiso   1.00
Cu209  Cu    0.83333   0.25000   0.29821   0.00000  Uiso   1.00
Cu210  Cu    0.83333   0.25001   0.20178   0.00000  Uiso   1.00
H211   H     0.85241   0.11365   0.32688   0.00000  Uiso   1.00
H212   H     0.81830   0.38577   0.17239   0.00000  Uiso   1.00
H213   H     0.85455   0.02876   0.17439   0.00000  Uiso   1.00
H214   H     0.81447   0.47275   0.32323   0.00000  Uiso   1.00
H215   H     0.91330   0.26677   0.04556   0.00000  Uiso   1.00
H216   H     0.79216   0.18879   0.45781   0.00000  Uiso   1.00
H217   H     0.91097   0.26959   0.13345   0.00000  Uiso   1.00
H218   H     0.79026   0.19147   0.36920   0.00000  Uiso   1.00
H219   H     0.75625   0.22926   0.11423   0.00000  Uiso   1.00
H220   H     0.87711   0.30804   0.38201   0.00000  Uiso   1.00
N221   N     0.83333   0.25001   0.12934   0.00000  Uiso   1.00
N222   N     0.83333   0.24999   0.37065   0.00000  Uiso   1.00
O223   O     0.83334   0.18573   0.29071   0.00000  Uiso   1.00
O224   O     0.83333   0.31428   0.20928   0.00000  Uiso   1.00
O225   O     0.83334   0.18573   0.20928   0.00000  Uiso   1.00
O226   O     0.83333   0.31427   0.29072   0.00000  Uiso   1.00
O227   O     0.75828   0.25000   0.28132   0.00000  Uiso   1.00
O228   O     0.90839   0.25001   0.21868   0.00000  Uiso   1.00
O229   O     0.75828   0.25000   0.19988   0.00000  Uiso   1.00
O230   O     0.90839   0.25000   0.30011   0.00000  Uiso   1.00
C231   C     0.99418   0.20734   0.19601   0.00000  Uiso   1.00
O232   O     0.97115   0.17563   0.20836   0.00000  Uiso   1.00
O233   O     0.66987   0.21107   0.14766   0.00000  Uiso   1.00
H234   H     0.98807   0.18590   0.12617   0.00000  Uiso   1.00
C235   C     0.67188   0.29288   0.30324   0.00000  Uiso   1.00
O236   O     0.69428   0.32460   0.29014   0.00000  Uiso   1.00
O237   O     0.99552   0.29016   0.35152   0.00000  Uiso   1.00
H238   H     0.67660   0.31596   0.37243   0.00000  Uiso   1.00
C239   C     0.87731   0.03025   0.34065   0.00000  Uiso   1.00
O240   O     0.86777   0.04556   0.37970   0.00000  Uiso   1.00
O241   O     0.91284   0.49585   0.33958   0.00000  Uiso   1.00
H242   H     0.92707   0.48585   0.37334   0.00000  Uiso   1.00
C243   C     0.79586   0.46855   0.15662   0.00000  Uiso   1.00
O244   O     0.76332   0.49763   0.15551   0.00000  Uiso   1.00
O245   O     0.80991   0.45090   0.11320   0.00000  Uiso   1.00
H246   H     0.79124   0.46550   0.08339   0.00000  Uiso   1.00
C247   C     0.84967   0.11157   0.15721   0.00000  Uiso   1.00
O248   O     0.88396   0.13711   0.15194   0.00000  Uiso   1.00
O249   O     0.81481   0.09865   0.11724   0.00000  Uiso   1.00
H250   H     0.82100   0.11370   0.08623   0.00000  Uiso   1.00
C251   C     0.81652   0.38986   0.34124   0.00000  Uiso   1.00
O252   O     0.84581   0.40116   0.37708   0.00000  Uiso   1.00
O253   O     0.77649   0.36117   0.34582   0.00000  Uiso   1.00
H254   H     0.77589   0.35120   0.38038   0.00000  Uiso   1.00
O255   O     0.74382   0.22788   0.01923   0.00000  Uiso   1.00
C256   C     0.71476   0.26657   0.00906   0.00000  Uiso   1.00
H257   H     0.73696   0.29147   0.49173   0.00000  Uiso   1.00
H258   H     0.70225   0.28092   0.04298   0.00000  Uiso   1.00
C259   C     0.66737   0.25548   0.47372   0.00000  Uiso   1.00
H260   H     0.97643   0.23198   0.49042   0.00000  Uiso   1.00
H261   H     0.97821   0.28586   0.46444   0.00000  Uiso   1.00
H262   H     0.67880   0.24050   0.43980   0.00000  Uiso   1.00
O263   O     0.88260   0.31786   0.47663   0.00000  Uiso   1.00
C264   C     0.84653   0.34945   0.48899   0.00000  Uiso   1.00
H265   H     0.81971   0.33538   0.01238   0.00000  Uiso   1.00
H266   H     0.82405   0.36296   0.45589   0.00000  Uiso   1.00
C267   C     0.87474   0.38712   0.01719   0.00000  Uiso   1.00
H268   H     0.90163   0.40229   0.49472   0.00000  Uiso   1.00
H269   H     0.84683   0.41246   0.02665   0.00000  Uiso   1.00
H270   H     0.89661   0.37480   0.05126   0.00000  Uiso   1.00
C271   C     0.16930   0.66495   0.24960   0.00000  Uiso   1.00
C272   C     0.16442   0.83511   0.25033   0.00000  Uiso   1.00
C273   C     0.21112   0.75935   0.05935   0.00000  Uiso   1.00
C274   C     0.14330   0.71618   0.44241   0.00000  Uiso   1.00
C275   C     0.20999   0.76047   0.10993   0.00000  Uiso   1.00
C276   C     0.14280   0.71728   0.39169   0.00000  Uiso   1.00
C277   C     0.12358   0.73851   0.09914   0.00000  Uiso   1.00
C278   C     0.19094   0.78259   0.39896   0.00000  Uiso   1.00
C279   C     0.12213   0.73882   0.04810   0.00000  Uiso   1.00
C280   C     0.19053   0.78408   0.44986   0.00000  Uiso   1.00
C281   C     0.16689   0.74880   0.02724   0.00000  Uiso   1.00
C282   C     0.16714   0.74971   0.47269   0.00000  Uiso   1.00
C283   C     0.06810   0.74907   0.23787   0.00000  Uiso   1.00
C284   C     0.26520   0.75065   0.26210   0.00000  Uiso   1.00
C285   C     0.01385   0.74142   0.23283   0.00000  Uiso   1.00
C286   C     0.31938   0.75818   0.26710   0.00000  Uiso   1.00
C287   C     0.18603   0.54910   0.29433   0.00000  Uiso   1.00
C288   C     0.15208   0.95061   0.20393   0.00000  Uiso   1.00
C289   C     0.18156   0.59486   0.29295   0.00000  Uiso   1.00
C290   C     0.15538   0.90488   0.20610   0.00000  Uiso   1.00
C291   C     0.17576   0.61679   0.24863   0.00000  Uiso   1.00
C292   C     0.15931   0.88343   0.25070   0.00000  Uiso   1.00
C293   C     0.17987   0.59212   0.20530   0.00000  Uiso   1.00
C294   C     0.15507   0.90878   0.29343   0.00000  Uiso   1.00
C295   C     0.18121   0.54645   0.20709   0.00000  Uiso   1.00
C296   C     0.15468   0.95444   0.29096   0.00000  Uiso   1.00
C297   C     0.17588   0.52417   0.25004   0.00000  Uiso   1.00
C298   C     0.16141   0.97607   0.24794   0.00000  Uiso   1.00
Cu299  Cu    0.16667   0.75000   0.29821   0.00000  Uiso   1.00
Cu300  Cu    0.16667   0.75001   0.20178   0.00000  Uiso   1.00
H301   H     0.18575   0.61365   0.32688   0.00000  Uiso   1.00
H302   H     0.15163   0.88577   0.17239   0.00000  Uiso   1.00
H303   H     0.18788   0.52876   0.17439   0.00000  Uiso   1.00
H304   H     0.14780   0.97275   0.32323   0.00000  Uiso   1.00
H305   H     0.24663   0.76677   0.04556   0.00000  Uiso   1.00
H306   H     0.12549   0.68879   0.45781   0.00000  Uiso   1.00
H307   H     0.24430   0.76959   0.13345   0.00000  Uiso   1.00
H308   H     0.12360   0.69147   0.36920   0.00000  Uiso   1.00
H309   H     0.08958   0.72926   0.11423   0.00000  Uiso   1.00
H310   H     0.21045   0.80804   0.38201   0.00000  Uiso   1.00
N311   N     0.16667   0.75001   0.12934   0.00000  Uiso   1.00
N312   N     0.16667   0.74999   0.37065   0.00000  Uiso   1.00
O313   O     0.16667   0.68573   0.29071   0.00000  Uiso   1.00
O314   O     0.16666   0.81428   0.20928   0.00000  Uiso   1.00
O315   O     0.16667   0.68573   0.20928   0.00000  Uiso   1.00
O316   O     0.16666   0.81427   0.29072   0.00000  Uiso   1.00
O317   O     0.09161   0.75000   0.28132   0.00000  Uiso   1.00
O318   O     0.24172   0.75001   0.21868   0.00000  Uiso   1.00
O319   O     0.09161   0.75000   0.19988   0.00000  Uiso   1.00
O320   O     0.24172   0.75000   0.30011   0.00000  Uiso   1.00
C321   C     0.32751   0.70734   0.19601   0.00000  Uiso   1.00
O322   O     0.30448   0.67563   0.20836   0.00000  Uiso   1.00
O323   O     0.00320   0.71107   0.14766   0.00000  Uiso   1.00
H324   H     0.32140   0.68590   0.12617   0.00000  Uiso   1.00
C325   C     0.00522   0.79288   0.30324   0.00000  Uiso   1.00
O326   O     0.02761   0.82460   0.29014   0.00000  Uiso   1.00
O327   O     0.32886   0.79016   0.35152   0.00000  Uiso   1.00
H328   H     0.00994   0.81596   0.37243   0.00000  Uiso   1.00
C329   C     0.21065   0.53025   0.34065   0.00000  Uiso   1.00
O330   O     0.20110   0.54556   0.37970   0.00000  Uiso   1.00
O331   O     0.24617   0.99585   0.33958   0.00000  Uiso   1.00
H332   H     0.26041   0.98585   0.37334   0.00000  Uiso   1.00
C333   C     0.12920   0.96855   0.15662   0.00000  Uiso   1.00
O334   O     0.09665   0.99763   0.15551   0.00000  Uiso   1.00
O335   O     0.14324   0.95090   0.11320   0.00000  Uiso   1.00
H336   H     0.12458   0.96550   0.08339   0.00000  Uiso   1.00
C337   C     0.18301   0.61157   0.15721   0.00000  Uiso   1.00
O338   O     0.21729   0.63711   0.15194   0.00000  Uiso   1.00
O339   O     0.14815   0.59865   0.11724   0.00000  Uiso   1.00
H340   H     0.15433   0.61370   0.08623   0.00000  Uiso   1.00
C341   C     0.14985   0.88986   0.34124   0.00000  Uiso   1.00
O342   O     0.17914   0.90116   0.37708   0.00000  Uiso   1.00
O343   O     0.10982   0.86117   0.34582   0.00000  Uiso   1.00
H344   H     0.10923   0.85120   0.38038   0.00000  Uiso   1.00
O345   O     0.07716   0.72788   0.01923   0.00000  Uiso   1.00
C346   C     0.04809   0.76657   0.00906   0.00000  Uiso   1.00
H347   H     0.07030   0.79147   0.49173   0.00000  Uiso   1.00
H348   H     0.03558   0.78092   0.04298   0.00000  Uiso   1.00
C349   C     0.00071   0.75548   0.47372   0.00000  Uiso   1.00
H350   H     0.30976   0.73198   0.49042   0.00000  Uiso   1.00
H351   H     0.31154   0.78586   0.46444   0.00000  Uiso   1.00
H352   H     0.01213   0.74050   0.43980   0.00000  Uiso   1.00
O353   O     0.21594   0.81786   0.47663   0.00000  Uiso   1.00
C354   C     0.17986   0.84945   0.48899   0.00000  Uiso   1.00
H355   H     0.15305   0.83538   0.01238   0.00000  Uiso   1.00
H356   H     0.15738   0.86296   0.45589   0.00000  Uiso   1.00
C357   C     0.20808   0.88712   0.01719   0.00000  Uiso   1.00
H358   H     0.23497   0.90229   0.49472   0.00000  Uiso   1.00
H359   H     0.18016   0.91246   0.02665   0.00000  Uiso   1.00
H360   H     0.22995   0.87480   0.05126   0.00000  Uiso   1.00
C361   C     0.50263   0.66495   0.24960   0.00000  Uiso   1.00
C362   C     0.49775   0.83511   0.25033   0.00000  Uiso   1.00
C363   C     0.54445   0.75935   0.05935   0.00000  Uiso   1.00
C364   C     0.47664   0.71618   0.44241   0.00000  Uiso   1.00
C365   C     0.54333   0.76047   0.10993   0.00000  Uiso   1.00
C366   C     0.47614   0.71728   0.39169   0.00000  Uiso   1.00
C367   C     0.45691   0.73851   0.09914   0.00000  Uiso   1.00
C368   C     0.52427   0.78259   0.39896   0.00000  Uiso   1.00
C369   C     0.45546   0.73882   0.04810   0.00000  Uiso   1.00
C370   C     0.52386   0.78408   0.44986   0.00000  Uiso   1.00
C371   C     0.50022   0.74880   0.02724   0.00000  Uiso   1.00
C372   C     0.50047   0.74971   0.47269   0.00000  Uiso   1.00
C373   C     0.40144   0.74907   0.23787   0.00000  Uiso   1.00
C374   C     0.59853   0.75065   0.26210   0.00000  Uiso   1.00
C375   C     0.34718   0.74142   0.23283   0.00000  Uiso   1.00
C376   C     0.65272   0.75818   0.26710   0.00000  Uiso   1.00
C377   C     0.51936   0.54910   0.29433   0.00000  Uiso   1.00
C378   C     0.48541   0.95061   0.20393   0.00000  Uiso   1.00
C379   C     0.51490   0.59486   0.29295   0.00000  Uiso   1.00
C380   C     0.48871   0.90488   0.20610   0.00000  Uiso   1.00
C381   C     0.50909   0.61679   0.24863   0.00000  Uiso   1.00
C382   C     0.49264   0.88343   0.25070   0.00000  Uiso   1.00
C383   C     0.51320   0.59212   0.20530   0.00000  Uiso   1.00
C384   C     0.48840   0.90878   0.29343   0.00000  Uiso   1.00
C385   C     0.51454   0.54645   0.20709   0.00000  Uiso   1.00
C386   C     0.48802   0.95444   0.29096   0.00000  Uiso   1.00
C387   C     0.50922   0.52417   0.25004   0.00000  Uiso   1.00
C388   C     0.49475   0.97607   0.24794   0.00000  Uiso   1.00
Cu389  Cu    0.50000   0.75000   0.29821   0.00000  Uiso   1.00
Cu390  Cu    0.50000   0.75001   0.20178   0.00000  Uiso   1.00
H391   H     0.51908   0.61365   0.32688   0.00000  Uiso   1.00
H392   H     0.48496   0.88577   0.17239   0.00000  Uiso   1.00
H393   H     0.52121   0.52876   0.17439   0.00000  Uiso   1.00
H394   H     0.48113   0.97275   0.32323   0.00000  Uiso   1.00
H395   H     0.57997   0.76677   0.04556   0.00000  Uiso   1.00
H396   H     0.45883   0.68879   0.45781   0.00000  Uiso   1.00
H397   H     0.57764   0.76959   0.13345   0.00000  Uiso   1.00
H398   H     0.45693   0.69147   0.36920   0.00000  Uiso   1.00
H399   H     0.42291   0.72926   0.11423   0.00000  Uiso   1.00
H400   H     0.54378   0.80804   0.38201   0.00000  Uiso   1.00
N401   N     0.50000   0.75001   0.12934   0.00000  Uiso   1.00
N402   N     0.50000   0.74999   0.37065   0.00000  Uiso   1.00
O403   O     0.50000   0.68573   0.29071   0.00000  Uiso   1.00
O404   O     0.50000   0.81428   0.20928   0.00000  Uiso   1.00
O405   O     0.50000   0.68573   0.20928   0.00000  Uiso   1.00
O406   O     0.50000   0.81427   0.29072   0.00000  Uiso   1.00
O407   O     0.42495   0.75000   0.28132   0.00000  Uiso   1.00
O408   O     0.57505   0.75001   0.21868   0.00000  Uiso   1.00
O409   O     0.42495   0.75000   0.19988   0.00000  Uiso   1.00
O410   O     0.57505   0.75000   0.30011   0.00000  Uiso   1.00
C411   C     0.66084   0.70734   0.19601   0.00000  Uiso   1.00
O412   O     0.63782   0.67563   0.20836   0.00000  Uiso   1.00
O413   O     0.33654   0.71107   0.14766   0.00000  Uiso   1.00
H414   H     0.65474   0.68590   0.12617   0.00000  Uiso   1.00
C415   C     0.33855   0.79288   0.30324   0.00000  Uiso   1.00
O416   O     0.36095   0.82460   0.29014   0.00000  Uiso   1.00
O417   O     0.66219   0.79016   0.35152   0.00000  Uiso   1.00
H418   H     0.34327   0.81596   0.37243   0.00000  Uiso   1.00
C419   C     0.54398   0.53025   0.34065   0.00000  Uiso   1.00
O420   O     0.53443   0.54556   0.37970   0.00000  Uiso   1.00
O421   O     0.57951   0.99585   0.33958   0.00000  Uiso   1.00
H422   H     0.59374   0.98585   0.37334   0.00000  Uiso   1.00
C423   C     0.46253   0.96855   0.15662   0.00000  Uiso   1.00
O424   O     0.42999   0.99763   0.15551   0.00000  Uiso   1.00
O425   O     0.47657   0.95090   0.11320   0.00000  Uiso   1.00
H426   H     0.45791   0.96550   0.08339   0.00000  Uiso   1.00
C427   C     0.51634   0.61157   0.15721   0.00000  Uiso   1.00
O428   O     0.55063   0.63711   0.15194   0.00000  Uiso   1.00
O429   O     0.48148   0.59865   0.11724   0.00000  Uiso   1.00
H430   H     0.48766   0.61370   0.08623   0.00000  Uiso   1.00
C431   C     0.48319   0.88986   0.34124   0.00000  Uiso   1.00
O432   O     0.51248   0.90116   0.37708   0.00000  Uiso   1.00
O433   O     0.44315   0.86117   0.34582   0.00000  Uiso   1.00
H434   H     0.44256   0.85120   0.38038   0.00000  Uiso   1.00
O435   O     0.41049   0.72788   0.01923   0.00000  Uiso   1.00
C436   C     0.38143   0.76657   0.00906   0.00000  Uiso   1.00
H437   H     0.40363   0.79147   0.49173   0.00000  Uiso   1.00
H438   H     0.36892   0.78092   0.04298   0.00000  Uiso   1.00
C439   C     0.33404   0.75548   0.47372   0.00000  Uiso   1.00
H440   H     0.64309   0.73198   0.49042   0.00000  Uiso   1.00
H441   H     0.64488   0.78586   0.46444   0.00000  Uiso   1.00
H442   H     0.34547   0.74050   0.43980   0.00000  Uiso   1.00
O443   O     0.54927   0.81786   0.47663   0.00000  Uiso   1.00
C444   C     0.51320   0.84945   0.48899   0.00000  Uiso   1.00
H445   H     0.48638   0.83538   0.01238   0.00000  Uiso   1.00
H446   H     0.49072   0.86296   0.45589   0.00000  Uiso   1.00
C447   C     0.54141   0.88712   0.01719   0.00000  Uiso   1.00
H448   H     0.56830   0.90229   0.49472   0.00000  Uiso   1.00
H449   H     0.51350   0.91246   0.02665   0.00000  Uiso   1.00
H450   H     0.56328   0.87480   0.05126   0.00000  Uiso   1.00
C451   C     0.83597   0.66495   0.24960   0.00000  Uiso   1.00
C452   C     0.83108   0.83511   0.25033   0.00000  Uiso   1.00
C453   C     0.87779   0.75935   0.05935   0.00000  Uiso   1.00
C454   C     0.80997   0.71618   0.44241   0.00000  Uiso   1.00
C455   C     0.87666   0.76047   0.10993   0.00000  Uiso   1.00
C456   C     0.80947   0.71728   0.39169   0.00000  Uiso   1.00
C457   C     0.79024   0.73851   0.09914   0.00000  Uiso   1.00
C458   C     0.85760   0.78259   0.39896   0.00000  Uiso   1.00
C459   C     0.78879   0.73882   0.04810   0.00000  Uiso   1.00
C460   C     0.85720   0.78408   0.44986   0.00000  Uiso   1.00
C461   C     0.83356   0.74880   0.02724   0.00000  Uiso   1.00
C462   C     0.83381   0.74971   0.47269   0.00000  Uiso   1.00
C463   C     0.73477   0.74907   0.23787   0.00000  Uiso   1.00
C464   C     0.93187   0.75065   0.26210   0.00000  Uiso   1.00
C465   C     0.68052   0.74142   0.23283   0.00000  Uiso   1.00
C466   C     0.98605   0.75818   0.26710   0.00000  Uiso   1.00
C467   C     0.85270   0.54910   0.29433   0.00000  Uiso   1.00
C468   C     0.81875   0.95061   0.20393   0.00000  Uiso   1.00
C469   C     0.84823   0.59486   0.29295   0.00000  Uiso   1.00
C470   C     0.82204   0.90488   0.20610   0.00000  Uiso   1.00
C471   C     0.84242   0.61679   0.24863   0.00000  Uiso   1.00
C472   C     0.82598   0.88343   0.25070   0.00000  Uiso   1.00
C473   C     0.84654   0.59212   0.20530   0.00000  Uiso   1.00
C474   C     0.82174   0.90878   0.29343   0.00000  Uiso   1.00
C475   C     0.84788   0.54645   0.20709   0.00000  Uiso   1.00
C476   C     0.82135   0.95444   0.29096   0.00000  Uiso   1.00
C477   C     0.84255   0.52417   0.25004   0.00000  Uiso   1.00
C478   C     0.82808   0.97607   0.24794   0.00000  Uiso   1.00
Cu479  Cu    0.83333   0.75000   0.29821   0.00000  Uiso   1.00
Cu480  Cu    0.83333   0.75001   0.20178   0.00000  Uiso   1.00
H481   H     0.85241   0.61365   0.32688   0.00000  Uiso   1.00
H482   H     0.81830   0.88577   0.17239   0.00000  Uiso   1.00
H483   H     0.85455   0.52876   0.17439   0.00000  Uiso   1.00
H484   H     0.81447   0.97275   0.32323   0.00000  Uiso   1.00
H485   H     0.91330   0.76677   0.04556   0.00000  Uiso   1.00
H486   H     0.79216   0.68879   0.45781   0.00000  Uiso   1.00
H487   H     0.91097   0.76959   0.13345   0.00000  Uiso   1.00
H488   H     0.79026   0.69147   0.36920   0.00000  Uiso   1.00
H489   H     0.75625   0.72926   0.11423   0.00000  Uiso   1.00
H490   H     0.87711   0.80804   0.38201   0.00000  Uiso   1.00
N491   N     0.83333   0.75001   0.12934   0.00000  Uiso   1.00
N492   N     0.83333   0.74999   0.37065   0.00000  Uiso   1.00
O493   O     0.83334   0.68573   0.29071   0.00000  Uiso   1.00
O494   O     0.83333   0.81428   0.20928   0.00000  Uiso   1.00
O495   O     0.83334   0.68573   0.20928   0.00000  Uiso   1.00
O496   O     0.83333   0.81427   0.29072   0.00000  Uiso   1.00
O497   O     0.75828   0.75000   0.28132   0.00000  Uiso   1.00
O498   O     0.90839   0.75001   0.21868   0.00000  Uiso   1.00
O499   O     0.75828   0.75000   0.19988   0.00000  Uiso   1.00
O500   O     0.90839   0.75000   0.30011   0.00000  Uiso   1.00
C501   C     0.99418   0.70734   0.19601   0.00000  Uiso   1.00
O502   O     0.97115   0.67563   0.20836   0.00000  Uiso   1.00
O503   O     0.66987   0.71107   0.14766   0.00000  Uiso   1.00
H504   H     0.98807   0.68590   0.12617   0.00000  Uiso   1.00
C505   C     0.67188   0.79288   0.30324   0.00000  Uiso   1.00
O506   O     0.69428   0.82460   0.29014   0.00000  Uiso   1.00
O507   O     0.99552   0.79016   0.35152   0.00000  Uiso   1.00
H508   H     0.67660   0.81596   0.37243   0.00000  Uiso   1.00
C509   C     0.87731   0.53025   0.34065   0.00000  Uiso   1.00
O510   O     0.86777   0.54556   0.37970   0.00000  Uiso   1.00
O511   O     0.91284   0.99585   0.33958   0.00000  Uiso   1.00
H512   H     0.92707   0.98585   0.37334   0.00000  Uiso   1.00
C513   C     0.79586   0.96855   0.15662   0.00000  Uiso   1.00
O514   O     0.76332   0.99763   0.15551   0.00000  Uiso   1.00
O515   O     0.80991   0.95090   0.11320   0.00000  Uiso   1.00
H516   H     0.79124   0.96550   0.08339   0.00000  Uiso   1.00
C517   C     0.84967   0.61157   0.15721   0.00000  Uiso   1.00
O518   O     0.88396   0.63711   0.15194   0.00000  Uiso   1.00
O519   O     0.81481   0.59865   0.11724   0.00000  Uiso   1.00
H520   H     0.82100   0.61370   0.08623   0.00000  Uiso   1.00
C521   C     0.81652   0.88986   0.34124   0.00000  Uiso   1.00
O522   O     0.84581   0.90116   0.37708   0.00000  Uiso   1.00
O523   O     0.77649   0.86117   0.34582   0.00000  Uiso   1.00
H524   H     0.77589   0.85120   0.38038   0.00000  Uiso   1.00
O525   O     0.74382   0.72788   0.01923   0.00000  Uiso   1.00
C526   C     0.71476   0.76657   0.00906   0.00000  Uiso   1.00
H527   H     0.73696   0.79147   0.49173   0.00000  Uiso   1.00
H528   H     0.70225   0.78092   0.04298   0.00000  Uiso   1.00
C529   C     0.66737   0.75548   0.47372   0.00000  Uiso   1.00
H530   H     0.97643   0.73198   0.49042   0.00000  Uiso   1.00
H531   H     0.97821   0.78586   0.46444   0.00000  Uiso   1.00
H532   H     0.67880   0.74050   0.43980   0.00000  Uiso   1.00
O533   O     0.88260   0.81786   0.47663   0.00000  Uiso   1.00
C534   C     0.84653   0.84945   0.48899   0.00000  Uiso   1.00
H535   H     0.81971   0.83538   0.01238   0.00000  Uiso   1.00
H536   H     0.82405   0.86296   0.45589   0.00000  Uiso   1.00
C537   C     0.87474   0.88712   0.01719   0.00000  Uiso   1.00
H538   H     0.90163   0.90229   0.49472   0.00000  Uiso   1.00
H539   H     0.84683   0.91246   0.02665   0.00000  Uiso   1.00
H540   H     0.89661   0.87480   0.05126   0.00000  Uiso   1.00
C541   C     0.16930   0.16495   0.74960   0.00000  Uiso   1.00
C542   C     0.16442   0.33511   0.75033   0.00000  Uiso   1.00
C543   C     0.21112   0.25935   0.55935   0.00000  Uiso   1.00
C544   C     0.14330   0.21618   0.94241   0.00000  Uiso   1.00
C545   C     0.20999   0.26047   0.60993   0.00000  Uiso   1.00
C546   C     0.14280   0.21728   0.89169   0.00000  Uiso   1.00
C547   C     0.12358   0.23851   0.59914   0.00000  Uiso   1.00
C548   C     0.19094   0.28259   0.89896   0.00000  Uiso   1.00
C549   C     0.12213   0.23882   0.54810   0.00000  Uiso   1.00
C550   C     0.19053   0.28408   0.94986   0.00000  Uiso   1.00
C551   C     0.16689   0.24880   0.52724   0.00000  Uiso   1.00
C552   C     0.16714   0.24971   0.97269   0.00000  Uiso   1.00
C553   C     0.06810   0.24907   0.73787   0.00000  Uiso   1.00
C554   C     0.26520   0.25065   0.76210   0.00000  Uiso   1.00
C555   C     0.01385   0.24142   0.73283   0.00000  Uiso   1.00
C556   C     0.31938   0.25818   0.76710   0.00000  Uiso   1.00
C557   C     0.18603   0.04910   0.79433   0.00000  Uiso   1.00
C558   C     0.15208   0.45061   0.70393   0.00000  Uiso   1.00
C559   C     0.18156   0.09486   0.79295   0.00000  Uiso   1.00
C560   C     0.15538   0.40488   0.70610   0.00000  Uiso   1.00
C561   C     0.17576   0.11679   0.74863   0.00000  Uiso   1.00
C562   C     0.15931   0.38343   0.75070   0.00000  Uiso   1.00
C563   C     0.17987   0.09212   0.70530   0.00000  Uiso   1.00
C564   C     0.15507   0.40878   0.79343   0.00000  Uiso   1.00
C565   C     0.18121   0.04645   0.70709   0.00000  Uiso   1.00
C566   C     0.15468   0.45444   0.79096   0.00000  Uiso   1.00
C567   C     0.17588   0.02417   0.75004   0.00000  Uiso   1.00
C568   C     0.16141   0.47607   0.74794   0.00000  Uiso   1.00
Cu569  Cu    0.16667   0.25000   0.79821   0.00000  Uiso   1.00
Cu570  Cu    0.16667   0.25001   0.70178   0.00000  Uiso   1.00
H571   H     0.18575   0.11365   0.82688   0.00000  Uiso   1.00
H572   H     0.15163   0.38577   0.67239   0.00000  Uiso   1.00
H573   H     0.18788   0.02876   0.67439   0.00000  Uiso   1.00
H574   H     0.14780   0.47275   0.82323   0.00000  Uiso   1.00
H575   H     0.24663   0.26677   0.54556   0.00000  Uiso   1.00
H576   H     0.12549   0.18879   0.95781   0.00000  Uiso   1.00
H577   H     0.24430   0.26959   0.63345   0.00000  Uiso   1.00
H578   H     0.12360   0.19147   0.86920   0.00000  Uiso   1.00
H579   H     0.08958   0.22926   0.61423   0.00000  Uiso   1.00
H580   H     0.21045   0.30804   0.88201   0.00000  Uiso   1.00
N581   N     0.16667   0.25001   0.62934   0.00000  Uiso   1.00
N582   N     0.16667   0.24999   0.87065   0.00000  Uiso   1.00
O583   O     0.16667   0.18573   0.79071   0.00000  Uiso   1.00
O584   O     0.16666   0.31428   0.70928   0.00000  Uiso   1.00
O585   O     0.16667   0.18573   0.70928   0.00000  Uiso   1.00
O586   O     0.16666   0.31427   0.79072   0.00000  Uiso   1.00
O587   O     0.09161   0.25000   0.78132   0.00000  Uiso   1.00
O588   O     0.24172   0.25001   0.71868   0.00000  Uiso   1.00
O589   O     0.09161   0.25000   0.69988   0.00000  Uiso   1.00
O590   O     0.24172   0.25000   0.80011   0.00000  Uiso   1.00
C591   C     0.32751   0.20734   0.69601   0.00000  Uiso   1.00
O592   O     0.30448   0.17563   0.70836   0.00000  Uiso   1.00
O593   O     0.00320   0.21107   0.64766   0.00000  Uiso   1.00
H594   H     0.32140   0.18590   0.62617   0.00000  Uiso   1.00
C595   C     0.00522   0.29288   0.80324   0.00000  Uiso   1.00
O596   O     0.02761   0.32460   0.79014   0.00000  Uiso   1.00
O597   O     0.32886   0.29016   0.85152   0.00000  Uiso   1.00
H598   H     0.00994   0.31596   0.87243   0.00000  Uiso   1.00
C599   C     0.21065   0.03025   0.84065   0.00000  Uiso   1.00
O600   O     0.20110   0.04556   0.87970   0.00000  Uiso   1.00
O601   O     0.24617   0.49585   0.83958   0.00000  Uiso   1.00
H602   H     0.26041   0.48585   0.87334   0.00000  Uiso   1.00
C603   C     0.12920   0.46855   0.65662   0.00000  Uiso   1.00
O604   O     0.09665   0.49763   0.65551   0.00000  Uiso   1.00
O605   O     0.14324   0.45090   0.61320   0.00000  Uiso   1.00
H606   H     0.12458   0.46550   0.58339   0.00000  Uiso   1.00
C607   C     0.18301   0.11157   0.65721   0.00000  Uiso   1.00
O608   O     0.21729   0.13711   0.65194   0.00000  Uiso   1.00
O609   O     0.14815   0.09865   0.61724   0.00000  Uiso   1.00
H610   H     0.15433   0.11370   0.58623   0.00000  Uiso   1.00
C611   C     0.14985   0.38986   0.84124   0.00000  Uiso   1.00
O612   O     0.17914   0.40116   0.87708   0.00000  Uiso   1.00
O613   O     0.10982   0.36117   0.84582   0.00000  Uiso   1.00
H614   H     0.10923   0.35120   0.88038   0.00000  Uiso   1.00
O615   O     0.07716   0.22788   0.51923   0.00000  Uiso   1.00
C616   C     0.04809   0.26657   0.50906   0.00000  Uiso   1.00
H617   H     0.07030   0.29147   0.99173   0.00000  Uiso   1.00
H618   H     0.03558   0.28092   0.54298   0.00000  Uiso   1.00
C619   C     0.00071   0.25548   0.97372   0.00000  Uiso   1.00
H620   H     0.30976   0.23198   0.99042   0.00000  Uiso   1.00
H621   H     0.31154   0.28586   0.96444   0.00000  Uiso   1.00
H622   H     0.01213   0.24050   0.93980   0.00000  Uiso   1.00
O623   O     0.21594   0.31786   0.97663   0.00000  Uiso   1.00
C624   C     0.17986   0.34945   0.98899   0.00000  Uiso   1.00
H625   H     0.15305   0.33538   0.51238   0.00000  Uiso   1.00
H626   H     0.15738   0.36296   0.95589   0.00000  Uiso   1.00
C627   C     0.20808   0.38712   0.51719   0.00000  Uiso   1.00
H628   H     0.23497   0.40229   0.99472   0.00000  Uiso   1.00
H629   H     0.18016   0.41246   0.52665   0.00000  Uiso   1.00
H630   H     0.22995   0.37480   0.55126   0.00000  Uiso   1.00
C631   C     0.50263   0.16495   0.74960   0.00000  Uiso   1.00
C632   C     0.49775   0.33511   0.75033   0.00000  Uiso   1.00
C633   C     0.54445   0.25935   0.55935   0.00000  Uiso   1.00
C634   C     0.47664   0.21618   0.94241   0.00000  Uiso   1.00
C635   C     0.54333   0.26047   0.60993   0.00000  Uiso   1.00
C636   C     0.47614   0.21728   0.89169   0.00000  Uiso   1.00
C637   C     0.45691   0.23851   0.59914   0.00000  Uiso   1.00
C638   C     0.52427   0.28259   0.89896   0.00000  Uiso   1.00
C639   C     0.45546   0.23882   0.54810   0.00000  Uiso   1.00
C640   C     0.52386   0.28408   0.94986   0.00000  Uiso   1.00
C641   C     0.50022   0.24880   0.52724   0.00000  Uiso   1.00
C642   C     0.50047   0.24971   0.97269   0.00000  Uiso   1.00
C643   C     0.40144   0.24907   0.73787   0.00000  Uiso   1.00
C644   C     0.59853   0.25065   0.76210   0.00000  Uiso   1.00
C645   C     0.34718   0.24142   0.73283   0.00000  Uiso   1.00
C646   C     0.65272   0.25818   0.76710   0.00000  Uiso   1.00
C647   C     0.51936   0.04910   0.79433   0.00000  Uiso   1.00
C648   C     0.48541   0.45061   0.70393   0.00000  Uiso   1.00
C649   C     0.51490   0.09486   0.79295   0.00000  Uiso   1.00
C650   C     0.48871   0.40488   0.70610   0.00000  Uiso   1.00
C651   C     0.50909   0.11679   0.74863   0.00000  Uiso   1.00
C652   C     0.49264   0.38343   0.75070   0.00000  Uiso   1.00
C653   C     0.51320   0.09212   0.70530   0.00000  Uiso   1.00
C654   C     0.48840   0.40878   0.79343   0.00000  Uiso   1.00
C655   C     0.51454   0.04645   0.70709   0.00000  Uiso   1.00
C656   C     0.48802   0.45444   0.79096   0.00000  Uiso   1.00
C657   C     0.50922   0.02417   0.75004   0.00000  Uiso   1.00
C658   C     0.49475   0.47607   0.74794   0.00000  Uiso   1.00
Cu659  Cu    0.50000   0.25000   0.79821   0.00000  Uiso   1.00
Cu660  Cu    0.50000   0.25001   0.70178   0.00000  Uiso   1.00
H661   H     0.51908   0.11365   0.82688   0.00000  Uiso   1.00
H662   H     0.48496   0.38577   0.67239   0.00000  Uiso   1.00
H663   H     0.52121   0.02876   0.67439   0.00000  Uiso   1.00
H664   H     0.48113   0.47275   0.82323   0.00000  Uiso   1.00
H665   H     0.57997   0.26677   0.54556   0.00000  Uiso   1.00
H666   H     0.45883   0.18879   0.95781   0.00000  Uiso   1.00
H667   H     0.57764   0.26959   0.63345   0.00000  Uiso   1.00
H668   H     0.45693   0.19147   0.86920   0.00000  Uiso   1.00
H669   H     0.42291   0.22926   0.61423   0.00000  Uiso   1.00
H670   H     0.54378   0.30804   0.88201   0.00000  Uiso   1.00
N671   N     0.50000   0.25001   0.62934   0.00000  Uiso   1.00
N672   N     0.50000   0.24999   0.87065   0.00000  Uiso   1.00
O673   O     0.50000   0.18573   0.79071   0.00000  Uiso   1.00
O674   O     0.50000   0.31428   0.70928   0.00000  Uiso   1.00
O675   O     0.50000   0.18573   0.70928   0.00000  Uiso   1.00
O676   O     0.50000   0.31427   0.79072   0.00000  Uiso   1.00
O677   O     0.42495   0.25000   0.78132   0.00000  Uiso   1.00
O678   O     0.57505   0.25001   0.71868   0.00000  Uiso   1.00
O679   O     0.42495   0.25000   0.69988   0.00000  Uiso   1.00
O680   O     0.57505   0.25000   0.80011   0.00000  Uiso   1.00
C681   C     0.66084   0.20734   0.69601   0.00000  Uiso   1.00
O682   O     0.63782   0.17563   0.70836   0.00000  Uiso   1.00
O683   O     0.33654   0.21107   0.64766   0.00000  Uiso   1.00
H684   H     0.65474   0.18590   0.62617   0.00000  Uiso   1.00
C685   C     0.33855   0.29288   0.80324   0.00000  Uiso   1.00
O686   O     0.36095   0.32460   0.79014   0.00000  Uiso   1.00
O687   O     0.66219   0.29016   0.85152   0.00000  Uiso   1.00
H688   H     0.34327   0.31596   0.87243   0.00000  Uiso   1.00
C689   C     0.54398   0.03025   0.84065   0.00000  Uiso   1.00
O690   O     0.53443   0.04556   0.87970   0.00000  Uiso   1.00
O691   O     0.57951   0.49585   0.83958   0.00000  Uiso   1.00
H692   H     0.59374   0.48585   0.87334   0.00000  Uiso   1.00
C693   C     0.46253   0.46855   0.65662   0.00000  Uiso   1.00
O694   O     0.42999   0.49763   0.65551   0.00000  Uiso   1.00
O695   O     0.47657   0.45090   0.61320   0.00000  Uiso   1.00
H696   H     0.45791   0.46550   0.58339   0.00000  Uiso   1.00
C697   C     0.51634   0.11157   0.65721   0.00000  Uiso   1.00
O698   O     0.55063   0.13711   0.65194   0.00000  Uiso   1.00
O699   O     0.48148   0.09865   0.61724   0.00000  Uiso   1.00
H700   H     0.48766   0.11370   0.58623   0.00000  Uiso   1.00
C701   C     0.48319   0.38986   0.84124   0.00000  Uiso   1.00
O702   O     0.51248   0.40116   0.87708   0.00000  Uiso   1.00
O703   O     0.44315   0.36117   0.84582   0.00000  Uiso   1.00
H704   H     0.44256   0.35120   0.88038   0.00000  Uiso   1.00
O705   O     0.41049   0.22788   0.51923   0.00000  Uiso   1.00
C706   C     0.38143   0.26657   0.50906   0.00000  Uiso   1.00
H707   H     0.40363   0.29147   0.99173   0.00000  Uiso   1.00
H708   H     0.36892   0.28092   0.54298   0.00000  Uiso   1.00
C709   C     0.33404   0.25548   0.97372   0.00000  Uiso   1.00
H710   H     0.64309   0.23198   0.99042   0.00000  Uiso   1.00
H711   H     0.64488   0.28586   0.96444   0.00000  Uiso   1.00
H712   H     0.34547   0.24050   0.93980   0.00000  Uiso   1.00
O713   O     0.54927   0.31786   0.97663   0.00000  Uiso   1.00
C714   C     0.51320   0.34945   0.98899   0.00000  Uiso   1.00
H715   H     0.48638   0.33538   0.51238   0.00000  Uiso   1.00
H716   H     0.49072   0.36296   0.95589   0.00000  Uiso   1.00
C717   C     0.54141   0.38712   0.51719   0.00000  Uiso   1.00
H718   H     0.56830   0.40229   0.99472   0.00000  Uiso   1.00
H719   H     0.51350   0.41246   0.52665   0.00000  Uiso   1.00
H720   H     0.56328   0.37480   0.55126   0.00000  Uiso   1.00
C721   C     0.83597   0.16495   0.74960   0.00000  Uiso   1.00
C722   C     0.83108   0.33511   0.75033   0.00000  Uiso   1.00
C723   C     0.87779   0.25935   0.55935   0.00000  Uiso   1.00
C724   C     0.80997   0.21618   0.94241   0.00000  Uiso   1.00
C725   C     0.87666   0.26047   0.60993   0.00000  Uiso   1.00
C726   C     0.80947   0.21728   0.89169   0.00000  Uiso   1.00
C727   C     0.79024   0.23851   0.59914   0.00000  Uiso   1.00
C728   C     0.85760   0.28259   0.89896   0.00000  Uiso   1.00
C729   C     0.78879   0.23882   0.54810   0.00000  Uiso   1.00
C730   C     0.85720   0.28408   0.94986   0.00000  Uiso   1.00
C731   C     0.83356   0.24880   0.52724   0.00000  Uiso   1.00
C732   C     0.83381   0.24971   0.97269   0.00000  Uiso   1.00
C733   C     0.73477   0.24907   0.73787   0.00000  Uiso   1.00
C734   C     0.93187   0.25065   0.76210   0.00000  Uiso   1.00
C735   C     0.68052   0.24142   0.73283   0.00000  Uiso   1.00
C736   C     0.98605   0.25818   0.76710   0.00000  Uiso   1.00
C737   C     0.85270   0.04910   0.79433   0.00000  Uiso   1.00
C738   C     0.81875   0.45061   0.70393   0.00000  Uiso   1.00
C739   C     0.84823   0.09486   0.79295   0.00000  Uiso   1.00
C740   C     0.82204   0.40488   0.70610   0.00000  Uiso   1.00
C741   C     0.84242   0.11679   0.74863   0.00000  Uiso   1.00
C742   C     0.82598   0.38343   0.75070   0.00000  Uiso   1.00
C743   C     0.84654   0.09212   0.70530   0.00000  Uiso   1.00
C744   C     0.82174   0.40878   0.79343   0.00000  Uiso   1.00
C745   C     0.84788   0.04645   0.70709   0.00000  Uiso   1.00
C746   C     0.82135   0.45444   0.79096   0.00000  Uiso   1.00
C747   C     0.84255   0.02417   0.75004   0.00000  Uiso   1.00
C748   C     0.82808   0.47607   0.74794   0.00000  Uiso   1.00
Cu749  Cu    0.83333   0.25000   0.79821   0.00000  Uiso   1.00
Cu750  Cu    0.83333   0.25001   0.70178   0.00000  Uiso   1.00
H751   H     0.85241   0.11365   0.82688   0.00000  Uiso   1.00
H752   H     0.81830   0.38577   0.67239   0.00000  Uiso   1.00
H753   H     0.85455   0.02876   0.67439   0.00000  Uiso   1.00
H754   H     0.81447   0.47275   0.82323   0.00000  Uiso   1.00
H755   H     0.91330   0.26677   0.54556   0.00000  Uiso   1.00
H756   H     0.79216   0.18879   0.95781   0.00000  Uiso   1.00
H757   H     0.91097   0.26959   0.63345   0.00000  Uiso   1.00
H758   H     0.79026   0.19147   0.86920   0.00000  Uiso   1.00
H759   H     0.75625   0.22926   0.61423   0.00000  Uiso   1.00
H760   H     0.87711   0.30804   0.88201   0.00000  Uiso   1.00
N761   N     0.83333   0.25001   0.62934   0.00000  Uiso   1.00
N762   N     0.83333   0.24999   0.87065   0.00000  Uiso   1.00
O763   O     0.83334   0.18573   0.79071   0.00000  Uiso   1.00
O764   O     0.83333   0.31428   0.70928   0.00000  Uiso   1.00
O765   O     0.83334   0.18573   0.70928   0.00000  Uiso   1.00
O766   O     0.83333   0.31427   0.79072   0.00000  Uiso   1.00
O767   O     0.75828   0.25000   0.78132   0.00000  Uiso   1.00
O768   O     0.90839   0.25001   0.71868   0.00000  Uiso   1.00
O769   O     0.75828   0.25000   0.69988   0.00000  Uiso   1.00
O770   O     0.90839   0.25000   0.80011   0.00000  Uiso   1.00
C771   C     0.99418   0.20734   0.69601   0.00000  Uiso   1.00
O772   O     0.97115   0.17563   0.70836   0.00000  Uiso   1.00
O773   O     0.66987   0.21107   0.64766   0.00000  Uiso   1.00
H774   H     0.98807   0.18590   0.62617   0.00000  Uiso   1.00
C775   C     0.67188   0.29288   0.80324   0.00000  Uiso   1.00
O776   O     0.69428   0.32460   0.79014   0.00000  Uiso   1.00
O777   O     0.99552   0.29016   0.85152   0.00000  Uiso   1.00
H778   H     0.67660   0.31596   0.87243   0.00000  Uiso   1.00
C779   C     0.87731   0.03025   0.84065   0.00000  Uiso   1.00
O780   O     0.86777   0.04556   0.87970   0.00000  Uiso   1.00
O781   O     0.91284   0.49585   0.83958   0.00000  Uiso   1.00
H782   H     0.92707   0.48585   0.87334   0.00000  Uiso   1.00
C783   C     0.79586   0.46855   0.65662   0.00000  Uiso   1.00
O784   O     0.76332   0.49763   0.65551   0.00000  Uiso   1.00
O785   O     0.80991   0.45090   0.61320   0.00000  Uiso   1.00
H786   H     0.79124   0.46550   0.58339   0.00000  Uiso   1.00
C787   C     0.84967   0.11157   0.65721   0.00000  Uiso   1.00
O788   O     0.88396   0.13711   0.65194   0.00000  Uiso   1.00
O789   O     0.81481   0.09865   0.61724   0.00000  Uiso   1.00
H790   H     0.82100   0.11370   0.58623   0.00000  Uiso   1.00
C791   C     0.81652   0.38986   0.84124   0.00000  Uiso   1.00
O792   O     0.84581   0.40116   0.87708   0.00000  Uiso   1.00
O793   O     0.77649   0.36117   0.84582   0.00000  Uiso   1.00
H794   H     0.77589   0.35120   0.88038   0.00000  Uiso   1.00
O795   O     0.74382   0.22788   0.51923   0.00000  Uiso   1.00
C796   C     0.71476   0.26657   0.50906   0.00000  Uiso   1.00
H797   H     0.73696   0.29147   0.99173   0.00000  Uiso   1.00
H798   H     0.70225   0.28092   0.54298   0.00000  Uiso   1.00
C799   C     0.66737   0.25548   0.97372   0.00000  Uiso   1.00
H800   H     0.97643   0.23198   0.99042   0.00000  Uiso   1.00
H801   H     0.97821   0.28586   0.96444   0.00000  Uiso   1.00
H802   H     0.67880   0.24050   0.93980   0.00000  Uiso   1.00
O803   O     0.88260   0.31786   0.97663   0.00000  Uiso   1.00
C804   C     0.84653   0.34945   0.98899   0.00000  Uiso   1.00
H805   H     0.81971   0.33538   0.51238   0.00000  Uiso   1.00
H806   H     0.82405   0.36296   0.95589   0.00000  Uiso   1.00
C807   C     0.87474   0.38712   0.51719   0.00000  Uiso   1.00
H808   H     0.90163   0.40229   0.99472   0.00000  Uiso   1.00
H809   H     0.84683   0.41246   0.52665   0.00000  Uiso   1.00
H810   H     0.89661   0.37480   0.55126   0.00000  Uiso   1.00
C811   C     0.16930   0.66495   0.74960   0.00000  Uiso   1.00
C812   C     0.16442   0.83511   0.75033   0.00000  Uiso   1.00
C813   C     0.21112   0.75935   0.55935   0.00000  Uiso   1.00
C814   C     0.14330   0.71618   0.94241   0.00000  Uiso   1.00
C815   C     0.20999   0.76047   0.60993   0.00000  Uiso   1.00
C816   C     0.14280   0.71728   0.89169   0.00000  Uiso   1.00
C817   C     0.12358   0.73851   0.59914   0.00000  Uiso   1.00
C818   C     0.19094   0.78259   0.89896   0.00000  Uiso   1.00
C819   C     0.12213   0.73882   0.54810   0.00000  Uiso   1.00
C820   C     0.19053   0.78408   0.94986   0.00000  Uiso   1.00
C821   C     0.16689   0.74880   0.52724   0.00000  Uiso   1.00
C822   C     0.16714   0.74971   0.97269   0.00000  Uiso   1.00
C823   C     0.06810   0.74907   0.73787   0.00000  Uiso   1.00
C824   C     0.26520   0.75065   0.76210   0.00000  Uiso   1.00
C825   C     0.01385   0.74142   0.73283   0.00000  Uiso   1.00
C826   C     0.31938   0.75818   0.76710   0.00000  Uiso   1.00
C827   C     0.18603   0.54910   0.79433   0.00000  Uiso   1.00
C828   C     0.15208   0.95061   0.70393   0.00000  Uiso   1.00
C829   C     0.18156   0.59486   0.79295   0.00000  Uiso   1.00
C830   C     0.15538   0.90488   0.70610   0.00000  Uiso   1.00
C831   C     0.17576   0.61679   0.74863   0.00000  Uiso   1.00
C832   C     0.15931   0.88343   0.75070   0.00000  Uiso   1.00
C833   C     0.17987   0.59212   0.70530   0.00000  Uiso   1.00
C834   C     0.15507   0.90878   0.79343   0.00000  Uiso   1.00
C835   C     0.18121   0.54645   0.70709   0.00000  Uiso   1.00
C836   C     0.15468   0.95444   0.79096   0.00000  Uiso   1.00
C837   C     0.17588   0.52417   0.75004   0.00000  Uiso   1.00
C838   C     0.16141   0.97607   0.74794   0.00000  Uiso   1.00
Cu839  Cu    0.16667   0.75000   0.79821   0.00000  Uiso   1.00
Cu840  Cu    0.16667   0.75001   0.70178   0.00000  Uiso   1.00
H841   H     0.18575   0.61365   0.82688   0.00000  Uiso   1.00
H842   H     0.15163   0.88577   0.67239   0.00000  Uiso   1.00
H843   H     0.18788   0.52876   0.67439   0.00000  Uiso   1.00
H844   H     0.14780   0.97275   0.82323   0.00000  Uiso   1.00
H845   H     0.24663   0.76677   0.54556   0.00000  Uiso   1.00
H846   H     0.12549   0.68879   0.95781   0.00000  Uiso   1.00
H847   H     0.24430   0.76959   0.63345   0.00000  Uiso   1.00
H848   H     0.12360   0.69147   0.86920   0.00000  Uiso   1.00
H849   H     0.08958   0.72926   0.61423   0.00000  Uiso   1.00
H850   H     0.21045   0.80804   0.88201   0.00000  Uiso   1.00
N851   N     0.16667   0.75001   0.62934   0.00000  Uiso   1.00
N852   N     0.16667   0.74999   0.87065   0.00000  Uiso   1.00
O853   O     0.16667   0.68573   0.79071   0.00000  Uiso   1.00
O854   O     0.16666   0.81428   0.70928   0.00000  Uiso   1.00
O855   O     0.16667   0.68573   0.70928   0.00000  Uiso   1.00
O856   O     0.16666   0.81427   0.79072   0.00000  Uiso   1.00
O857   O     0.09161   0.75000   0.78132   0.00000  Uiso   1.00
O858   O     0.24172   0.75001   0.71868   0.00000  Uiso   1.00
O859   O     0.09161   0.75000   0.69988   0.00000  Uiso   1.00
O860   O     0.24172   0.75000   0.80011   0.00000  Uiso   1.00
C861   C     0.32751   0.70734   0.69601   0.00000  Uiso   1.00
O862   O     0.30448   0.67563   0.70836   0.00000  Uiso   1.00
O863   O     0.00320   0.71107   0.64766   0.00000  Uiso   1.00
H864   H     0.32140   0.68590   0.62617   0.00000  Uiso   1.00
C865   C     0.00522   0.79288   0.80324   0.00000  Uiso   1.00
O866   O     0.02761   0.82460   0.79014   0.00000  Uiso   1.00
O867   O     0.32886   0.79016   0.85152   0.00000  Uiso   1.00
H868   H     0.00994   0.81596   0.87243   0.00000  Uiso   1.00
C869   C     0.21065   0.53025   0.84065   0.00000  Uiso   1.00
O870   O     0.20110   0.54556   0.87970   0.00000  Uiso   1.00
O871   O     0.24617   0.99585   0.83958   0.00000  Uiso   1.00
H872   H     0.26041   0.98585   0.87334   0.00000  Uiso   1.00
C873   C     0.12920   0.96855   0.65662   0.00000  Uiso   1.00
O874   O     0.09665   0.99763   0.65551   0.00000  Uiso   1.00
O875   O     0.14324   0.95090   0.61320   0.00000  Uiso   1.00
H876   H     0.12458   0.96550   0.58339   0.00000  Uiso   1.00
C877   C     0.18301   0.61157   0.65721   0.00000  Uiso   1.00
O878   O     0.21729   0.63711   0.65194   0.00000  Uiso   1.00
O879   O     0.14815   0.59865   0.61724   0.00000  Uiso   1.00
H880   H     0.15433   0.61370   0.58623   0.00000  Uiso   1.00
C881   C     0.14985   0.88986   0.84124   0.00000  Uiso   1.00
O882   O     0.17914   0.90116   0.87708   0.00000  Uiso   1.00
O883   O     0.10982   0.86117   0.84582   0.00000  Uiso   1.00
H884   H     0.10923   0.85120   0.88038   0.00000  Uiso   1.00
O885   O     0.07716   0.72788   0.51923   0.00000  Uiso   1.00
C886   C     0.04809   0.76657   0.50906   0.00000  Uiso   1.00
H887   H     0.07030   0.79147   0.99173   0.00000  Uiso   1.00
H888   H     0.03558   0.78092   0.54298   0.00000  Uiso   1.00
C889   C     0.00071   0.75548   0.97372   0.00000  Uiso   1.00
H890   H     0.30976   0.73198   0.99042   0.00000  Uiso   1.00
H891   H     0.31154   0.78586   0.96444   0.00000  Uiso   1.00
H892   H     0.01213   0.74050   0.93980   0.00000  Uiso   1.00
O893   O     0.21594   0.81786   0.97663   0.00000  Uiso   1.00
C894   C     0.17986   0.84945   0.98899   0.00000  Uiso   1.00
H895   H     0.15305   0.83538   0.51238   0.00000  Uiso   1.00
H896   H     0.15738   0.86296   0.95589   0.00000  Uiso   1.00
C897   C     0.20808   0.88712   0.51719   0.00000  Uiso   1.00
H898   H     0.23497   0.90229   0.99472   0.00000  Uiso   1.00
H899   H     0.18016   0.91246   0.52665   0.00000  Uiso   1.00
H900   H     0.22995   0.87480   0.55126   0.00000  Uiso   1.00
C901   C     0.50263   0.66495   0.74960   0.00000  Uiso   1.00
C902   C     0.49775   0.83511   0.75033   0.00000  Uiso   1.00
C903   C     0.54445   0.75935   0.55935   0.00000  Uiso   1.00
C904   C     0.47664   0.71618   0.94241   0.00000  Uiso   1.00
C905   C     0.54333   0.76047   0.60993   0.00000  Uiso   1.00
C906   C     0.47614   0.71728   0.89169   0.00000  Uiso   1.00
C907   C     0.45691   0.73851   0.59914   0.00000  Uiso   1.00
C908   C     0.52427   0.78259   0.89896   0.00000  Uiso   1.00
C909   C     0.45546   0.73882   0.54810   0.00000  Uiso   1.00
C910   C     0.52386   0.78408   0.94986   0.00000  Uiso   1.00
C911   C     0.50022   0.74880   0.52724   0.00000  Uiso   1.00
C912   C     0.50047   0.74971   0.97269   0.00000  Uiso   1.00
C913   C     0.40144   0.74907   0.73787   0.00000  Uiso   1.00
C914   C     0.59853   0.75065   0.76210   0.00000  Uiso   1.00
C915   C     0.34718   0.74142   0.73283   0.00000  Uiso   1.00
C916   C     0.65272   0.75818   0.76710   0.00000  Uiso   1.00
C917   C     0.51936   0.54910   0.79433   0.00000  Uiso   1.00
C918   C     0.48541   0.95061   0.70393   0.00000  Uiso   1.00
C919   C     0.51490   0.59486   0.79295   0.00000  Uiso   1.00
C920   C     0.48871   0.90488   0.70610   0.00000  Uiso   1.00
C921   C     0.50909   0.61679   0.74863   0.00000  Uiso   1.00
C922   C     0.49264   0.88343   0.75070   0.00000  Uiso   1.00
C923   C     0.51320   0.59212   0.70530   0.00000  Uiso   1.00
C924   C     0.48840   0.90878   0.79343   0.00000  Uiso   1.00
C925   C     0.51454   0.54645   0.70709   0.00000  Uiso   1.00
C926   C     0.48802   0.95444   0.79096   0.00000  Uiso   1.00
C927   C     0.50922   0.52417   0.75004   0.00000  Uiso   1.00
C928   C     0.49475   0.97607   0.74794   0.00000  Uiso   1.00
Cu929  Cu    0.50000   0.75000   0.79821   0.00000  Uiso   1.00
Cu930  Cu    0.50000   0.75001   0.70178   0.00000  Uiso   1.00
H931   H     0.51908   0.61365   0.82688   0.00000  Uiso   1.00
H932   H     0.48496   0.88577   0.67239   0.00000  Uiso   1.00
H933   H     0.52121   0.52876   0.67439   0.00000  Uiso   1.00
H934   H     0.48113   0.97275   0.82323   0.00000  Uiso   1.00
H935   H     0.57997   0.76677   0.54556   0.00000  Uiso   1.00
H936   H     0.45883   0.68879   0.95781   0.00000  Uiso   1.00
H937   H     0.57764   0.76959   0.63345   0.00000  Uiso   1.00
H938   H     0.45693   0.69147   0.86920   0.00000  Uiso   1.00
H939   H     0.42291   0.72926   0.61423   0.00000  Uiso   1.00
H940   H     0.54378   0.80804   0.88201   0.00000  Uiso   1.00
N941   N     0.50000   0.75001   0.62934   0.00000  Uiso   1.00
N942   N     0.50000   0.74999   0.87065   0.00000  Uiso   1.00
O943   O     0.50000   0.68573   0.79071   0.00000  Uiso   1.00
O944   O     0.50000   0.81428   0.70928   0.00000  Uiso   1.00
O945   O     0.50000   0.68573   0.70928   0.00000  Uiso   1.00
O946   O     0.50000   0.81427   0.79072   0.00000  Uiso   1.00
O947   O     0.42495   0.75000   0.78132   0.00000  Uiso   1.00
O948   O     0.57505   0.75001   0.71868   0.00000  Uiso   1.00
O949   O     0.42495   0.75000   0.69988   0.00000  Uiso   1.00
O950   O     0.57505   0.75000   0.80011   0.00000  Uiso   1.00
C951   C     0.66084   0.70734   0.69601   0.00000  Uiso   1.00
O952   O     0.63782   0.67563   0.70836   0.00000  Uiso   1.00
O953   O     0.33654   0.71107   0.64766   0.00000  Uiso   1.00
H954   H     0.65474   0.68590   0.62617   0.00000  Uiso   1.00
C955   C     0.33855   0.79288   0.80324   0.00000  Uiso   1.00
O956   O     0.36095   0.82460   0.79014   0.00000  Uiso   1.00
O957   O     0.66219   0.79016   0.85152   0.00000  Uiso   1.00
H958   H     0.34327   0.81596   0.87243   0.00000  Uiso   1.00
C959   C     0.54398   0.53025   0.84065   0.00000  Uiso   1.00
O960   O     0.53443   0.54556   0.87970   0.00000  Uiso   1.00
O961   O     0.57951   0.99585   0.83958   0.00000  Uiso   1.00
H962   H     0.59374   0.98585   0.87334   0.00000  Uiso   1.00
C963   C     0.46253   0.96855   0.65662   0.00000  Uiso   1.00
O964   O     0.42999   0.99763   0.65551   0.00000  Uiso   1.00
O965   O     0.47657   0.95090   0.61320   0.00000  Uiso   1.00
H966   H     0.45791   0.96550   0.58339   0.00000  Uiso   1.00
C967   C     0.51634   0.61157   0.65721   0.00000  Uiso   1.00
O968   O     0.55063   0.63711   0.65194   0.00000  Uiso   1.00
O969   O     0.48148   0.59865   0.61724   0.00000  Uiso   1.00
H970   H     0.48766   0.61370   0.58623   0.00000  Uiso   1.00
C971   C     0.48319   0.88986   0.84124   0.00000  Uiso   1.00
O972   O     0.51248   0.90116   0.87708   0.00000  Uiso   1.00
O973   O     0.44315   0.86117   0.84582   0.00000  Uiso   1.00
H974   H     0.44256   0.85120   0.88038   0.00000  Uiso   1.00
O975   O     0.41049   0.72788   0.51923   0.00000  Uiso   1.00
C976   C     0.38143   0.76657   0.50906   0.00000  Uiso   1.00
H977   H     0.40363   0.79147   0.99173   0.00000  Uiso   1.00
H978   H     0.36892   0.78092   0.54298   0.00000  Uiso   1.00
C979   C     0.33404   0.75548   0.97372   0.00000  Uiso   1.00
H980   H     0.64309   0.73198   0.99042   0.00000  Uiso   1.00
H981   H     0.64488   0.78586   0.96444   0.00000  Uiso   1.00
H982   H     0.34547   0.74050   0.93980   0.00000  Uiso   1.00
O983   O     0.54927   0.81786   0.97663   0.00000  Uiso   1.00
C984   C     0.51320   0.84945   0.98899   0.00000  Uiso   1.00
H985   H     0.48638   0.83538   0.51238   0.00000  Uiso   1.00
H986   H     0.49072   0.86296   0.95589   0.00000  Uiso   1.00
C987   C     0.54141   0.88712   0.51719   0.00000  Uiso   1.00
H988   H     0.56830   0.90229   0.99472   0.00000  Uiso   1.00
H989   H     0.51350   0.91246   0.52665   0.00000  Uiso   1.00
H990   H     0.56328   0.87480   0.55126   0.00000  Uiso   1.00
C991   C     0.83597   0.66495   0.74960   0.00000  Uiso   1.00
C992   C     0.83108   0.83511   0.75033   0.00000  Uiso   1.00
C993   C     0.87779   0.75935   0.55935   0.00000  Uiso   1.00
C994   C     0.80997   0.71618   0.94241   0.00000  Uiso   1.00
C995   C     0.87666   0.76047   0.60993   0.00000  Uiso   1.00
C996   C     0.80947   0.71728   0.89169   0.00000  Uiso   1.00
C997   C     0.79024   0.73851   0.59914   0.00000  Uiso   1.00
C998   C     0.85760   0.78259   0.89896   0.00000  Uiso   1.00
C999   C     0.78879   0.73882   0.54810   0.00000  Uiso   1.00
C1000  C     0.85720   0.78408   0.94986   0.00000  Uiso   1.00
C1001  C     0.83356   0.74880   0.52724   0.00000  Uiso   1.00
C1002  C     0.83381   0.74971   0.97269   0.00000  Uiso   1.00
C1003  C     0.73477   0.74907   0.73787   0.00000  Uiso   1.00
C1004  C     0.93187   0.75065   0.76210   0.00000  Uiso   1.00
C1005  C     0.68052   0.74142   0.73283   0.00000  Uiso   1.00
C1006  C     0.98605   0.75818   0.76710   0.00000  Uiso   1.00
C1007  C     0.85270   0.54910   0.79433   0.00000  Uiso   1.00
C1008  C     0.81875   0.95061   0.70393   0.00000  Uiso   1.00
C1009  C     0.84823   0.59486   0.79295   0.00000  Uiso   1.00
C1010  C     0.82204   0.90488   0.70610   0.00000  Uiso   1.00
C1011  C     0.84242   0.61679   0.74863   0.00000  Uiso   1.00
C1012  C     0.82598   0.88343   0.75070   0.00000  Uiso   1.00
C1013  C     0.84654   0.59212   0.70530   0.00000  Uiso   1.00
C1014  C     0.82174   0.90878   0.79343   0.00000  Uiso   1.00
C1015  C     0.84788   0.54645   0.70709   0.00000  Uiso   1.00
C1016  C     0.82135   0.95444   0.79096   0.00000  Uiso   1.00
C1017  C     0.84255   0.52417   0.75004   0.00000  Uiso   1.00
C1018  C     0.82808   0.97607   0.74794   0.00000  Uiso   1.00
Cu1019 Cu    0.83333   0.75000   0.79821   0.00000  Uiso   1.00
Cu1020 Cu    0.83333   0.75001   0.70178   0.00000  Uiso   1.00
H1021  H     0.85241   0.61365   0.82688   0.00000  Uiso   1.00
H1022  H     0.81830   0.88577   0.67239   0.00000  Uiso   1.00
H1023  H     0.85455   0.52876   0.67439   0.00000  Uiso   1.00
H1024  H     0.81447   0.97275   0.82323   0.00000  Uiso   1.00
H1025  H     0.91330   0.76677   0.54556   0.00000  Uiso   1.00
H1026  H     0.79216   0.68879   0.95781   0.00000  Uiso   1.00
H1027  H     0.91097   0.76959   0.63345   0.00000  Uiso   1.00
H1028  H     0.79026   0.69147   0.86920   0.00000  Uiso   1.00
H1029  H     0.75625   0.72926   0.61423   0.00000  Uiso   1.00
H1030  H     0.87711   0.80804   0.88201   0.00000  Uiso   1.00
N1031  N     0.83333   0.75001   0.62934   0.00000  Uiso   1.00
N1032  N     0.83333   0.74999   0.87065   0.00000  Uiso   1.00
O1033  O     0.83334   0.68573   0.79071   0.00000  Uiso   1.00
O1034  O     0.83333   0.81428   0.70928   0.00000  Uiso   1.00
O1035  O     0.83334   0.68573   0.70928   0.00000  Uiso   1.00
O1036  O     0.83333   0.81427   0.79072   0.00000  Uiso   1.00
O1037  O     0.75828   0.75000   0.78132   0.00000  Uiso   1.00
O1038  O     0.90839   0.75001   0.71868   0.00000  Uiso   1.00
O1039  O     0.75828   0.75000   0.69988   0.00000  Uiso   1.00
O1040  O     0.90839   0.75000   0.80011   0.00000  Uiso   1.00
C1041  C     0.99418   0.70734   0.69601   0.00000  Uiso   1.00
O1042  O     0.97115   0.67563   0.70836   0.00000  Uiso   1.00
O1043  O     0.66987   0.71107   0.64766   0.00000  Uiso   1.00
H1044  H     0.98807   0.68590   0.62617   0.00000  Uiso   1.00
C1045  C     0.67188   0.79288   0.80324   0.00000  Uiso   1.00
O1046  O     0.69428   0.82460   0.79014   0.00000  Uiso   1.00
O1047  O     0.99552   0.79016   0.85152   0.00000  Uiso   1.00
H1048  H     0.67660   0.81596   0.87243   0.00000  Uiso   1.00
C1049  C     0.87731   0.53025   0.84065   0.00000  Uiso   1.00
O1050  O     0.86777   0.54556   0.87970   0.00000  Uiso   1.00
O1051  O     0.91284   0.99585   0.83958   0.00000  Uiso   1.00
H1052  H     0.92707   0.98585   0.87334   0.00000  Uiso   1.00
C1053  C     0.79586   0.96855   0.65662   0.00000  Uiso   1.00
O1054  O     0.76332   0.99763   0.65551   0.00000  Uiso   1.00
O1055  O     0.80991   0.95090   0.61320   0.00000  Uiso   1.00
H1056  H     0.79124   0.96550   0.58339   0.00000  Uiso   1.00
C1057  C     0.84967   0.61157   0.65721   0.00000  Uiso   1.00
O1058  O     0.88396   0.63711   0.65194   0.00000  Uiso   1.00
O1059  O     0.81481   0.59865   0.61724   0.00000  Uiso   1.00
H1060  H     0.82100   0.61370   0.58623   0.00000  Uiso   1.00
C1061  C     0.81652   0.88986   0.84124   0.00000  Uiso   1.00
O1062  O     0.84581   0.90116   0.87708   0.00000  Uiso   1.00
O1063  O     0.77649   0.86117   0.84582   0.00000  Uiso   1.00
H1064  H     0.77589   0.85120   0.88038   0.00000  Uiso   1.00
O1065  O     0.74382   0.72788   0.51923   0.00000  Uiso   1.00
C1066  C     0.71476   0.76657   0.50906   0.00000  Uiso   1.00
H1067  H     0.73696   0.79147   0.99173   0.00000  Uiso   1.00
H1068  H     0.70225   0.78092   0.54298   0.00000  Uiso   1.00
C1069  C     0.66737   0.75548   0.97372   0.00000  Uiso   1.00
H1070  H     0.97643   0.73198   0.99042   0.00000  Uiso   1.00
H1071  H     0.97821   0.78586   0.96444   0.00000  Uiso   1.00
H1072  H     0.67880   0.74050   0.93980   0.00000  Uiso   1.00
O1073  O     0.88260   0.81786   0.97663   0.00000  Uiso   1.00
C1074  C     0.84653   0.84945   0.98899   0.00000  Uiso   1.00
H1075  H     0.81971   0.83538   0.51238   0.00000  Uiso   1.00
H1076  H     0.82405   0.86296   0.95589   0.00000  Uiso   1.00
C1077  C     0.87474   0.88712   0.51719   0.00000  Uiso   1.00
H1078  H     0.90163   0.90229   0.99472   0.00000  Uiso   1.00
H1079  H     0.84683   0.91246   0.52665   0.00000  Uiso   1.00
H1080  H     0.89661   0.87480   0.55126   0.00000  Uiso   1.00
loop_
_geom_bond_atom_site_label_1
_geom_bond_atom_site_label_2
_geom_bond_distance
_geom_bond_site_symmetry_2
_ccdc_geom_bond_type
C1     C21     1.474   .     S
C1     O43     1.301   .     A
C1     O45     1.289   .     A
C2     O46     1.292   .     A
C2     O44     1.298   .     A
C2     C22     1.476   .     S
C3     H35     1.082   .     S
C3     C5      1.405   .     A
C3     C11     1.408   .     A
C4     H36     1.082   .     S
C4     C12     1.409   .     A
C4     C6      1.404   .     A
C5     H37     1.080   .     S
C5     N41     1.365   .     A
C6     H38     1.081   .     S
C6     N42     1.363   .     A
C7     C9      1.410   .     A
C7     N41     1.365   .     A
C7     H39     1.078   .     S
C8     N42     1.365   .     A
C8     H40     1.081   .     S
C8     C10     1.412   .     A
C9     C11     1.416   .     A
C9     O75     1.381   .     S
C10    O83     1.383   .     S
C10    C12     1.419   .     A
C11    C552    1.513   1_554 S
C12    C551    1.513   .     S
C13    O47     1.281   .     A
C13    O49     1.288   .     A
C13    C15     1.438   .     S
C14    O48     1.280   .     A
C14    C16     1.436   .     S
C14    O50     1.288   .     A
C15    C196    1.359   1_455 S
C15    C231    1.490   1_455 S
C16    C105    1.359   .     S
C16    C145    1.487   .     S
C17    C27     1.426   .     A
C17    C59     1.485   .     S
C17    C19     1.398   .     A
C18    C63     1.483   .     S
C18    C20     1.396   .     A
C18    C28     1.427   .     A
C19    H31     1.084   .     S
C19    C21     1.400   .     A
C20    C22     1.401   .     A
C20    H32     1.084   .     S
C21    C23     1.418   .     A
C22    C24     1.415   .     A
C23    C67     1.481   .     S
C23    C25     1.392   .     A
C24    C26     1.393   .     A
C24    C71     1.478   .     S
C25    C27     1.405   .     A
C25    H33     1.077   .     S
C26    H34     1.078   .     S
C26    C28     1.405   .     A
C27    C298    1.515   1_545 S
C28    C297    1.515   .     S
Cu29   N42     2.007   .     S
Cu29   O47     1.972   .     S
Cu29   O43     1.963   .     S
Cu29   O50     1.970   .     S
Cu29   Cu30    2.672   .     S
Cu29   O46     1.972   .     S
Cu30   O45     1.972   .     S
Cu30   O48     1.972   .     S
Cu30   N41     2.007   .     S
Cu30   O44     1.963   .     S
Cu30   O49     1.970   .     S
C51    O52     1.223   .     D
C51    C105    1.490   .     S
C51    O143    1.397   .     S
O53    C231    1.397   1_455 S
O53    H234    1.014   1_455 S
H54    O143    1.014   .     S
C55    O56     1.222   .     D
C55    C196    1.487   1_455 S
C55    O237    1.398   1_455 S
O57    C145    1.398   .     S
O57    H148    1.014   .     S
H58    O237    1.014   1_455 S
C59    O60     1.223   .     D
C59    O331    1.399   1_545 S
O61    H62     1.014   .     S
O61    C329    1.399   .     S
C63    O65     1.398   .     S
C63    O64     1.223   .     D
O65    H66     1.014   .     S
C67    O68     1.222   .     D
C67    O69     1.398   .     S
O69    H70     1.014   .     S
C71    O73     1.396   .     S
C71    O72     1.223   .     D
O73    H74     1.012   .     S
O75    C76     1.411   .     S
C76    H78     1.114   .     S
C76    H617    1.115   1_554 S
C76    C619    1.521   1_554 S
H77    C616    1.115   .     S
C79    H82     1.111   .     S
C79    C616    1.521   .     S
C79    H260    1.111   1_455 S
C79    H261    1.110   1_455 S
H80    C169    1.111   .     S
H81    C169    1.110   .     S
O83    C84     1.412   .     S
C84    H86     1.110   .     S
C84    H625    1.112   .     S
C84    C627    1.520   .     S
H85    C624    1.112   1_554 S
C87    H90     1.111   .     S
C87    H89     1.110   .     S
C87    C624    1.520   1_554 S
C87    H628    1.111   1_554 S
H88    C627    1.111   .     S
C91    C111    1.474   .     S
C91    O133    1.301   .     A
C91    O135    1.289   .     A
C92    O136    1.292   .     A
C92    O134    1.298   .     A
C92    C112    1.476   .     S
C93    H125    1.082   .     S
C93    C95     1.405   .     A
C93    C101    1.408   .     A
C94    H126    1.082   .     S
C94    C102    1.409   .     A
C94    C96     1.404   .     A
C95    H127    1.080   .     S
C95    N131    1.365   .     A
C96    H128    1.081   .     S
C96    N132    1.363   .     A
C97    C99     1.410   .     A
C97    N131    1.365   .     A
C97    H129    1.078   .     S
C98    N132    1.365   .     A
C98    H130    1.081   .     S
C98    C100    1.412   .     A
C99    C101    1.416   .     A
C99    O165    1.381   .     S
C100   O173    1.383   .     S
C100   C102    1.419   .     A
C101   C642    1.513   1_554 S
C102   C641    1.513   .     S
C103   O137    1.281   .     A
C103   O139    1.288   .     A
C103   C105    1.438   .     S
C104   O138    1.280   .     A
C104   C106    1.436   .     S
C104   O140    1.288   .     A
C106   C195    1.359   .     S
C106   C235    1.487   .     S
C107   C117    1.426   .     A
C107   C149    1.485   .     S
C107   C109    1.398   .     A
C108   C153    1.483   .     S
C108   C110    1.396   .     A
C108   C118    1.427   .     A
C109   H121    1.084   .     S
C109   C111    1.400   .     A
C110   C112    1.401   .     A
C110   H122    1.084   .     S
C111   C113    1.418   .     A
C112   C114    1.415   .     A
C113   C157    1.481   .     S
C113   C115    1.392   .     A
C114   C116    1.393   .     A
C114   C161    1.478   .     S
C115   C117    1.405   .     A
C115   H123    1.077   .     S
C116   H124    1.078   .     S
C116   C118    1.405   .     A
C117   C388    1.515   1_545 S
C118   C387    1.515   .     S
Cu119  N132    2.007   .     S
Cu119  O137    1.972   .     S
Cu119  O133    1.963   .     S
Cu119  O140    1.970   .     S
Cu119  Cu120   2.672   .     S
Cu119  O136    1.972   .     S
Cu120  O135    1.972   .     S
Cu120  O138    1.972   .     S
Cu120  N131    2.007   .     S
Cu120  O134    1.963   .     S
Cu120  O139    1.970   .     S
C141   O142    1.223   .     D
C141   C195    1.490   .     S
C141   O233    1.397   .     S
H144   O233    1.014   .     S
C145   O146    1.222   .     D
O147   C235    1.398   .     S
O147   H238    1.014   .     S
C149   O150    1.223   .     D
C149   O421    1.399   1_545 S
O151   H152    1.014   .     S
O151   C419    1.399   .     S
C153   O155    1.398   .     S
C153   O154    1.223   .     D
O155   H156    1.014   .     S
C157   O158    1.222   .     D
C157   O159    1.398   .     S
O159   H160    1.014   .     S
C161   O163    1.396   .     S
C161   O162    1.223   .     D
O163   H164    1.012   .     S
O165   C166    1.411   .     S
C166   H168    1.114   .     S
C166   H707    1.115   1_554 S
C166   C709    1.521   1_554 S
H167   C706    1.115   .     S
C169   H172    1.111   .     S
C169   C706    1.521   .     S
H170   C259    1.111   .     S
H171   C259    1.110   .     S
O173   C174    1.412   .     S
C174   H176    1.110   .     S
C174   H715    1.112   .     S
C174   C717    1.520   .     S
H175   C714    1.112   1_554 S
C177   H180    1.111   .     S
C177   H179    1.110   .     S
C177   C714    1.520   1_554 S
C177   H718    1.111   1_554 S
H178   C717    1.111   .     S
C181   C201    1.474   .     S
C181   O223    1.301   .     A
C181   O225    1.289   .     A
C182   O226    1.292   .     A
C182   O224    1.298   .     A
C182   C202    1.476   .     S
C183   H215    1.082   .     S
C183   C185    1.405   .     A
C183   C191    1.408   .     A
C184   H216    1.082   .     S
C184   C192    1.409   .     A
C184   C186    1.404   .     A
C185   H217    1.080   .     S
C185   N221    1.365   .     A
C186   H218    1.081   .     S
C186   N222    1.363   .     A
C187   C189    1.410   .     A
C187   N221    1.365   .     A
C187   H219    1.078   .     S
C188   N222    1.365   .     A
C188   H220    1.081   .     S
C188   C190    1.412   .     A
C189   C191    1.416   .     A
C189   O255    1.381   .     S
C190   O263    1.383   .     S
C190   C192    1.419   .     A
C191   C732    1.513   1_554 S
C192   C731    1.513   .     S
C193   O227    1.281   .     A
C193   O229    1.288   .     A
C193   C195    1.438   .     S
C194   O228    1.280   .     A
C194   C196    1.436   .     S
C194   O230    1.288   .     A
C196   C15     1.359   1_655 S
C196   C55     1.487   1_655 S
C197   C207    1.426   .     A
C197   C239    1.485   .     S
C197   C199    1.398   .     A
C198   C243    1.483   .     S
C198   C200    1.396   .     A
C198   C208    1.427   .     A
C199   H211    1.084   .     S
C199   C201    1.400   .     A
C200   C202    1.401   .     A
C200   H212    1.084   .     S
C201   C203    1.418   .     A
C202   C204    1.415   .     A
C203   C247    1.481   .     S
C203   C205    1.392   .     A
C204   C206    1.393   .     A
C204   C251    1.478   .     S
C205   C207    1.405   .     A
C205   H213    1.077   .     S
C206   H214    1.078   .     S
C206   C208    1.405   .     A
C207   C478    1.515   1_545 S
C208   C477    1.515   .     S
Cu209  N222    2.007   .     S
Cu209  O227    1.972   .     S
Cu209  O223    1.963   .     S
Cu209  O230    1.970   .     S
Cu209  Cu210   2.672   .     S
Cu209  O226    1.972   .     S
Cu210  O225    1.972   .     S
Cu210  O228    1.972   .     S
Cu210  N221    2.007   .     S
Cu210  O224    1.963   .     S
Cu210  O229    1.970   .     S
C231   O232    1.223   .     D
C231   C15     1.490   1_655 S
C231   O53     1.397   1_655 S
H234   O53     1.014   1_655 S
C235   O236    1.222   .     D
O237   C55     1.398   1_655 S
O237   H58     1.014   1_655 S
C239   O240    1.223   .     D
C239   O511    1.399   1_545 S
O241   H242    1.014   .     S
O241   C509    1.399   .     S
C243   O245    1.398   .     S
C243   O244    1.223   .     D
O245   H246    1.014   .     S
C247   O248    1.222   .     D
C247   O249    1.398   .     S
O249   H250    1.014   .     S
C251   O253    1.396   .     S
C251   O252    1.223   .     D
O253   H254    1.012   .     S
O255   C256    1.411   .     S
C256   H258    1.114   .     S
C256   H797    1.115   1_554 S
C256   C799    1.521   1_554 S
H257   C796    1.115   .     S
C259   H262    1.111   .     S
C259   C796    1.521   .     S
H260   C79     1.111   1_655 S
H261   C79     1.110   1_655 S
O263   C264    1.412   .     S
C264   H266    1.110   .     S
C264   H805    1.112   .     S
C264   C807    1.520   .     S
H265   C804    1.112   1_554 S
C267   H270    1.111   .     S
C267   H269    1.110   .     S
C267   C804    1.520   1_554 S
C267   H808    1.111   1_554 S
H268   C807    1.111   .     S
C271   C291    1.474   .     S
C271   O313    1.301   .     A
C271   O315    1.289   .     A
C272   O316    1.292   .     A
C272   O314    1.298   .     A
C272   C292    1.476   .     S
C273   H305    1.082   .     S
C273   C275    1.405   .     A
C273   C281    1.408   .     A
C274   H306    1.082   .     S
C274   C282    1.409   .     A
C274   C276    1.404   .     A
C275   H307    1.080   .     S
C275   N311    1.365   .     A
C276   H308    1.081   .     S
C276   N312    1.363   .     A
C277   C279    1.410   .     A
C277   N311    1.365   .     A
C277   H309    1.078   .     S
C278   N312    1.365   .     A
C278   H310    1.081   .     S
C278   C280    1.412   .     A
C279   C281    1.416   .     A
C279   O345    1.381   .     S
C280   O353    1.383   .     S
C280   C282    1.419   .     A
C281   C822    1.513   1_554 S
C282   C821    1.513   .     S
C283   O317    1.281   .     A
C283   O319    1.288   .     A
C283   C285    1.438   .     S
C284   O318    1.280   .     A
C284   C286    1.436   .     S
C284   O320    1.288   .     A
C285   C466    1.359   1_455 S
C285   C501    1.490   1_455 S
C286   C375    1.359   .     S
C286   C415    1.487   .     S
C287   C297    1.426   .     A
C287   C329    1.485   .     S
C287   C289    1.398   .     A
C288   C333    1.483   .     S
C288   C290    1.396   .     A
C288   C298    1.427   .     A
C289   H301    1.084   .     S
C289   C291    1.400   .     A
C290   C292    1.401   .     A
C290   H302    1.084   .     S
C291   C293    1.418   .     A
C292   C294    1.415   .     A
C293   C337    1.481   .     S
C293   C295    1.392   .     A
C294   C296    1.393   .     A
C294   C341    1.478   .     S
C295   C297    1.405   .     A
C295   H303    1.077   .     S
C296   H304    1.078   .     S
C296   C298    1.405   .     A
C298   C27     1.515   1_565 S
Cu299  N312    2.007   .     S
Cu299  O317    1.972   .     S
Cu299  O313    1.963   .     S
Cu299  O320    1.970   .     S
Cu299  Cu300   2.672   .     S
Cu299  O316    1.972   .     S
Cu300  O315    1.972   .     S
Cu300  O318    1.972   .     S
Cu300  N311    2.007   .     S
Cu300  O314    1.963   .     S
Cu300  O319    1.970   .     S
C321   O322    1.223   .     D
C321   C375    1.490   .     S
C321   O413    1.397   .     S
O323   C501    1.397   1_455 S
O323   H504    1.014   1_455 S
H324   O413    1.014   .     S
C325   O326    1.222   .     D
C325   C466    1.487   1_455 S
C325   O507    1.398   1_455 S
O327   C415    1.398   .     S
O327   H418    1.014   .     S
H328   O507    1.014   1_455 S
C329   O330    1.223   .     D
O331   H332    1.014   .     S
O331   C59     1.399   1_565 S
C333   O335    1.398   .     S
C333   O334    1.223   .     D
O335   H336    1.014   .     S
C337   O338    1.222   .     D
C337   O339    1.398   .     S
O339   H340    1.014   .     S
C341   O343    1.396   .     S
C341   O342    1.223   .     D
O343   H344    1.012   .     S
O345   C346    1.411   .     S
C346   H348    1.114   .     S
C346   H887    1.115   1_554 S
C346   C889    1.521   1_554 S
H347   C886    1.115   .     S
C349   H352    1.111   .     S
C349   C886    1.521   .     S
C349   H530    1.111   1_455 S
C349   H531    1.110   1_455 S
H350   C439    1.111   .     S
H351   C439    1.110   .     S
O353   C354    1.412   .     S
C354   H356    1.110   .     S
C354   H895    1.112   .     S
C354   C897    1.520   .     S
H355   C894    1.112   1_554 S
C357   H360    1.111   .     S
C357   H359    1.110   .     S
C357   C894    1.520   1_554 S
C357   H898    1.111   1_554 S
H358   C897    1.111   .     S
C361   C381    1.474   .     S
C361   O403    1.301   .     A
C361   O405    1.289   .     A
C362   O406    1.292   .     A
C362   O404    1.298   .     A
C362   C382    1.476   .     S
C363   H395    1.082   .     S
C363   C365    1.405   .     A
C363   C371    1.408   .     A
C364   H396    1.082   .     S
C364   C372    1.409   .     A
C364   C366    1.404   .     A
C365   H397    1.080   .     S
C365   N401    1.365   .     A
C366   H398    1.081   .     S
C366   N402    1.363   .     A
C367   C369    1.410   .     A
C367   N401    1.365   .     A
C367   H399    1.078   .     S
C368   N402    1.365   .     A
C368   H400    1.081   .     S
C368   C370    1.412   .     A
C369   C371    1.416   .     A
C369   O435    1.381   .     S
C370   O443    1.383   .     S
C370   C372    1.419   .     A
C371   C912    1.513   1_554 S
C372   C911    1.513   .     S
C373   O407    1.281   .     A
C373   O409    1.288   .     A
C373   C375    1.438   .     S
C374   O408    1.280   .     A
C374   C376    1.436   .     S
C374   O410    1.288   .     A
C376   C465    1.359   .     S
C376   C505    1.487   .     S
C377   C387    1.426   .     A
C377   C419    1.485   .     S
C377   C379    1.398   .     A
C378   C423    1.483   .     S
C378   C380    1.396   .     A
C378   C388    1.427   .     A
C379   H391    1.084   .     S
C379   C381    1.400   .     A
C380   C382    1.401   .     A
C380   H392    1.084   .     S
C381   C383    1.418   .     A
C382   C384    1.415   .     A
C383   C427    1.481   .     S
C383   C385    1.392   .     A
C384   C386    1.393   .     A
C384   C431    1.478   .     S
C385   C387    1.405   .     A
C385   H393    1.077   .     S
C386   H394    1.078   .     S
C386   C388    1.405   .     A
C388   C117    1.515   1_565 S
Cu389  N402    2.007   .     S
Cu389  O407    1.972   .     S
Cu389  O403    1.963   .     S
Cu389  O410    1.970   .     S
Cu389  Cu390   2.672   .     S
Cu389  O406    1.972   .     S
Cu390  O405    1.972   .     S
Cu390  O408    1.972   .     S
Cu390  N401    2.007   .     S
Cu390  O404    1.963   .     S
Cu390  O409    1.970   .     S
C411   O412    1.223   .     D
C411   C465    1.490   .     S
C411   O503    1.397   .     S
H414   O503    1.014   .     S
C415   O416    1.222   .     D
O417   C505    1.398   .     S
O417   H508    1.014   .     S
C419   O420    1.223   .     D
O421   H422    1.014   .     S
O421   C149    1.399   1_565 S
C423   O425    1.398   .     S
C423   O424    1.223   .     D
O425   H426    1.014   .     S
C427   O428    1.222   .     D
C427   O429    1.398   .     S
O429   H430    1.014   .     S
C431   O433    1.396   .     S
C431   O432    1.223   .     D
O433   H434    1.012   .     S
O435   C436    1.411   .     S
C436   H438    1.114   .     S
C436   H977    1.115   1_554 S
C436   C979    1.521   1_554 S
H437   C976    1.115   .     S
C439   H442    1.111   .     S
C439   C976    1.521   .     S
H440   C529    1.111   .     S
H441   C529    1.110   .     S
O443   C444    1.412   .     S
C444   H446    1.110   .     S
C444   H985    1.112   .     S
C444   C987    1.520   .     S
H445   C984    1.112   1_554 S
C447   H450    1.111   .     S
C447   H449    1.110   .     S
C447   C984    1.520   1_554 S
C447   H988    1.111   1_554 S
H448   C987    1.111   .     S
C451   C471    1.474   .     S
C451   O493    1.301   .     A
C451   O495    1.289   .     A
C452   O496    1.292   .     A
C452   O494    1.298   .     A
C452   C472    1.476   .     S
C453   H485    1.082   .     S
C453   C455    1.405   .     A
C453   C461    1.408   .     A
C454   H486    1.082   .     S
C454   C462    1.409   .     A
C454   C456    1.404   .     A
C455   H487    1.080   .     S
C455   N491    1.365   .     A
C456   H488    1.081   .     S
C456   N492    1.363   .     A
C457   C459    1.410   .     A
C457   N491    1.365   .     A
C457   H489    1.078   .     S
C458   N492    1.365   .     A
C458   H490    1.081   .     S
C458   C460    1.412   .     A
C459   C461    1.416   .     A
C459   O525    1.381   .     S
C460   O533    1.383   .     S
C460   C462    1.419   .     A
C461   C1002   1.513   1_554 S
C462   C1001   1.513   .     S
C463   O497    1.281   .     A
C463   O499    1.288   .     A
C463   C465    1.438   .     S
C464   O498    1.280   .     A
C464   C466    1.436   .     S
C464   O500    1.288   .     A
C466   C285    1.359   1_655 S
C466   C325    1.487   1_655 S
C467   C477    1.426   .     A
C467   C509    1.485   .     S
C467   C469    1.398   .     A
C468   C513    1.483   .     S
C468   C470    1.396   .     A
C468   C478    1.427   .     A
C469   H481    1.084   .     S
C469   C471    1.400   .     A
C470   C472    1.401   .     A
C470   H482    1.084   .     S
C471   C473    1.418   .     A
C472   C474    1.415   .     A
C473   C517    1.481   .     S
C473   C475    1.392   .     A
C474   C476    1.393   .     A
C474   C521    1.478   .     S
C475   C477    1.405   .     A
C475   H483    1.077   .     S
C476   H484    1.078   .     S
C476   C478    1.405   .     A
C478   C207    1.515   1_565 S
Cu479  N492    2.007   .     S
Cu479  O497    1.972   .     S
Cu479  O493    1.963   .     S
Cu479  O500    1.970   .     S
Cu479  Cu480   2.672   .     S
Cu479  O496    1.972   .     S
Cu480  O495    1.972   .     S
Cu480  O498    1.972   .     S
Cu480  N491    2.007   .     S
Cu480  O494    1.963   .     S
Cu480  O499    1.970   .     S
C501   O502    1.223   .     D
C501   C285    1.490   1_655 S
C501   O323    1.397   1_655 S
H504   O323    1.014   1_655 S
C505   O506    1.222   .     D
O507   C325    1.398   1_655 S
O507   H328    1.014   1_655 S
C509   O510    1.223   .     D
O511   H512    1.014   .     S
O511   C239    1.399   1_565 S
C513   O515    1.398   .     S
C513   O514    1.223   .     D
O515   H516    1.014   .     S
C517   O518    1.222   .     D
C517   O519    1.398   .     S
O519   H520    1.014   .     S
C521   O523    1.396   .     S
C521   O522    1.223   .     D
O523   H524    1.012   .     S
O525   C526    1.411   .     S
C526   H528    1.114   .     S
C526   H1067   1.115   1_554 S
C526   C1069   1.521   1_554 S
H527   C1066   1.115   .     S
C529   H532    1.111   .     S
C529   C1066   1.521   .     S
H530   C349    1.111   1_655 S
H531   C349    1.110   1_655 S
O533   C534    1.412   .     S
C534   H536    1.110   .     S
C534   H1075   1.112   .     S
C534   C1077   1.520   .     S
H535   C1074   1.112   1_554 S
C537   H540    1.111   .     S
C537   H539    1.110   .     S
C537   C1074   1.520   1_554 S
C537   H1078   1.111   1_554 S
H538   C1077   1.111   .     S
C541   C561    1.474   .     S
C541   O583    1.301   .     A
C541   O585    1.289   .     A
C542   O586    1.292   .     A
C542   O584    1.298   .     A
C542   C562    1.476   .     S
C543   H575    1.082   .     S
C543   C545    1.405   .     A
C543   C551    1.408   .     A
C544   H576    1.082   .     S
C544   C552    1.409   .     A
C544   C546    1.404   .     A
C545   H577    1.080   .     S
C545   N581    1.365   .     A
C546   H578    1.081   .     S
C546   N582    1.363   .     A
C547   C549    1.410   .     A
C547   N581    1.365   .     A
C547   H579    1.078   .     S
C548   N582    1.365   .     A
C548   H580    1.081   .     S
C548   C550    1.412   .     A
C549   C551    1.416   .     A
C549   O615    1.381   .     S
C550   O623    1.383   .     S
C550   C552    1.419   .     A
C552   C11     1.513   1_556 S
C553   O587    1.281   .     A
C553   O589    1.288   .     A
C553   C555    1.438   .     S
C554   O588    1.280   .     A
C554   C556    1.436   .     S
C554   O590    1.288   .     A
C555   C736    1.359   1_455 S
C555   C771    1.490   1_455 S
C556   C645    1.359   .     S
C556   C685    1.487   .     S
C557   C567    1.426   .     A
C557   C599    1.485   .     S
C557   C559    1.398   .     A
C558   C603    1.483   .     S
C558   C560    1.396   .     A
C558   C568    1.427   .     A
C559   H571    1.084   .     S
C559   C561    1.400   .     A
C560   C562    1.401   .     A
C560   H572    1.084   .     S
C561   C563    1.418   .     A
C562   C564    1.415   .     A
C563   C607    1.481   .     S
C563   C565    1.392   .     A
C564   C566    1.393   .     A
C564   C611    1.478   .     S
C565   C567    1.405   .     A
C565   H573    1.077   .     S
C566   H574    1.078   .     S
C566   C568    1.405   .     A
C567   C838    1.515   1_545 S
C568   C837    1.515   .     S
Cu569  N582    2.007   .     S
Cu569  O587    1.972   .     S
Cu569  O583    1.963   .     S
Cu569  O590    1.970   .     S
Cu569  Cu570   2.672   .     S
Cu569  O586    1.972   .     S
Cu570  O585    1.972   .     S
Cu570  O588    1.972   .     S
Cu570  N581    2.007   .     S
Cu570  O584    1.963   .     S
Cu570  O589    1.970   .     S
C591   O592    1.223   .     D
C591   C645    1.490   .     S
C591   O683    1.397   .     S
O593   C771    1.397   1_455 S
O593   H774    1.014   1_455 S
H594   O683    1.014   .     S
C595   O596    1.222   .     D
C595   C736    1.487   1_455 S
C595   O777    1.398   1_455 S
O597   C685    1.398   .     S
O597   H688    1.014   .     S
H598   O777    1.014   1_455 S
C599   O600    1.223   .     D
C599   O871    1.399   1_545 S
O601   H602    1.014   .     S
O601   C869    1.399   .     S
C603   O605    1.398   .     S
C603   O604    1.223   .     D
O605   H606    1.014   .     S
C607   O608    1.222   .     D
C607   O609    1.398   .     S
O609   H610    1.014   .     S
C611   O613    1.396   .     S
C611   O612    1.223   .     D
O613   H614    1.012   .     S
O615   C616    1.411   .     S
C616   H618    1.114   .     S
H617   C76     1.115   1_556 S
C619   H622    1.111   .     S
C619   C76     1.521   1_556 S
C619   H800    1.111   1_455 S
C619   H801    1.110   1_455 S
H620   C709    1.111   .     S
H621   C709    1.110   .     S
O623   C624    1.412   .     S
C624   H626    1.110   .     S
C624   H85     1.112   1_556 S
C624   C87     1.520   1_556 S
C627   H630    1.111   .     S
C627   H629    1.110   .     S
H628   C87     1.111   1_556 S
C631   C651    1.474   .     S
C631   O673    1.301   .     A
C631   O675    1.289   .     A
C632   O676    1.292   .     A
C632   O674    1.298   .     A
C632   C652    1.476   .     S
C633   H665    1.082   .     S
C633   C635    1.405   .     A
C633   C641    1.408   .     A
C634   H666    1.082   .     S
C634   C642    1.409   .     A
C634   C636    1.404   .     A
C635   H667    1.080   .     S
C635   N671    1.365   .     A
C636   H668    1.081   .     S
C636   N672    1.363   .     A
C637   C639    1.410   .     A
C637   N671    1.365   .     A
C637   H669    1.078   .     S
C638   N672    1.365   .     A
C638   H670    1.081   .     S
C638   C640    1.412   .     A
C639   C641    1.416   .     A
C639   O705    1.381   .     S
C640   O713    1.383   .     S
C640   C642    1.419   .     A
C642   C101    1.513   1_556 S
C643   O677    1.281   .     A
C643   O679    1.288   .     A
C643   C645    1.438   .     S
C644   O678    1.280   .     A
C644   C646    1.436   .     S
C644   O680    1.288   .     A
C646   C735    1.359   .     S
C646   C775    1.487   .     S
C647   C657    1.426   .     A
C647   C689    1.485   .     S
C647   C649    1.398   .     A
C648   C693    1.483   .     S
C648   C650    1.396   .     A
C648   C658    1.427   .     A
C649   H661    1.084   .     S
C649   C651    1.400   .     A
C650   C652    1.401   .     A
C650   H662    1.084   .     S
C651   C653    1.418   .     A
C652   C654    1.415   .     A
C653   C697    1.481   .     S
C653   C655    1.392   .     A
C654   C656    1.393   .     A
C654   C701    1.478   .     S
C655   C657    1.405   .     A
C655   H663    1.077   .     S
C656   H664    1.078   .     S
C656   C658    1.405   .     A
C657   C928    1.515   1_545 S
C658   C927    1.515   .     S
Cu659  N672    2.007   .     S
Cu659  O677    1.972   .     S
Cu659  O673    1.963   .     S
Cu659  O680    1.970   .     S
Cu659  Cu660   2.672   .     S
Cu659  O676    1.972   .     S
Cu660  O675    1.972   .     S
Cu660  O678    1.972   .     S
Cu660  N671    2.007   .     S
Cu660  O674    1.963   .     S
Cu660  O679    1.970   .     S
C681   O682    1.223   .     D
C681   C735    1.490   .     S
C681   O773    1.397   .     S
H684   O773    1.014   .     S
C685   O686    1.222   .     D
O687   C775    1.398   .     S
O687   H778    1.014   .     S
C689   O690    1.223   .     D
C689   O961    1.399   1_545 S
O691   H692    1.014   .     S
O691   C959    1.399   .     S
C693   O695    1.398   .     S
C693   O694    1.223   .     D
O695   H696    1.014   .     S
C697   O698    1.222   .     D
C697   O699    1.398   .     S
O699   H700    1.014   .     S
C701   O703    1.396   .     S
C701   O702    1.223   .     D
O703   H704    1.012   .     S
O705   C706    1.411   .     S
C706   H708    1.114   .     S
H707   C166    1.115   1_556 S
C709   H712    1.111   .     S
C709   C166    1.521   1_556 S
H710   C799    1.111   .     S
H711   C799    1.110   .     S
O713   C714    1.412   .     S
C714   H716    1.110   .     S
C714   H175    1.112   1_556 S
C714   C177    1.520   1_556 S
C717   H720    1.111   .     S
C717   H719    1.110   .     S
H718   C177    1.111   1_556 S
C721   C741    1.474   .     S
C721   O763    1.301   .     A
C721   O765    1.289   .     A
C722   O766    1.292   .     A
C722   O764    1.298   .     A
C722   C742    1.476   .     S
C723   H755    1.082   .     S
C723   C725    1.405   .     A
C723   C731    1.408   .     A
C724   H756    1.082   .     S
C724   C732    1.409   .     A
C724   C726    1.404   .     A
C725   H757    1.080   .     S
C725   N761    1.365   .     A
C726   H758    1.081   .     S
C726   N762    1.363   .     A
C727   C729    1.410   .     A
C727   N761    1.365   .     A
C727   H759    1.078   .     S
C728   N762    1.365   .     A
C728   H760    1.081   .     S
C728   C730    1.412   .     A
C729   C731    1.416   .     A
C729   O795    1.381   .     S
C730   O803    1.383   .     S
C730   C732    1.419   .     A
C732   C191    1.513   1_556 S
C733   O767    1.281   .     A
C733   O769    1.288   .     A
C733   C735    1.438   .     S
C734   O768    1.280   .     A
C734   C736    1.436   .     S
C734   O770    1.288   .     A
C736   C555    1.359   1_655 S
C736   C595    1.487   1_655 S
C737   C747    1.426   .     A
C737   C779    1.485   .     S
C737   C739    1.398   .     A
C738   C783    1.483   .     S
C738   C740    1.396   .     A
C738   C748    1.427   .     A
C739   H751    1.084   .     S
C739   C741    1.400   .     A
C740   C742    1.401   .     A
C740   H752    1.084   .     S
C741   C743    1.418   .     A
C742   C744    1.415   .     A
C743   C787    1.481   .     S
C743   C745    1.392   .     A
C744   C746    1.393   .     A
C744   C791    1.478   .     S
C745   C747    1.405   .     A
C745   H753    1.077   .     S
C746   H754    1.078   .     S
C746   C748    1.405   .     A
C747   C1018   1.515   1_545 S
C748   C1017   1.515   .     S
Cu749  N762    2.007   .     S
Cu749  O767    1.972   .     S
Cu749  O763    1.963   .     S
Cu749  O770    1.970   .     S
Cu749  Cu750   2.672   .     S
Cu749  O766    1.972   .     S
Cu750  O765    1.972   .     S
Cu750  O768    1.972   .     S
Cu750  N761    2.007   .     S
Cu750  O764    1.963   .     S
Cu750  O769    1.970   .     S
C771   O772    1.223   .     D
C771   C555    1.490   1_655 S
C771   O593    1.397   1_655 S
H774   O593    1.014   1_655 S
C775   O776    1.222   .     D
O777   C595    1.398   1_655 S
O777   H598    1.014   1_655 S
C779   O780    1.223   .     D
C779   O1051   1.399   1_545 S
O781   H782    1.014   .     S
O781   C1049   1.399   .     S
C783   O785    1.398   .     S
C783   O784    1.223   .     D
O785   H786    1.014   .     S
C787   O788    1.222   .     D
C787   O789    1.398   .     S
O789   H790    1.014   .     S
C791   O793    1.396   .     S
C791   O792    1.223   .     D
O793   H794    1.012   .     S
O795   C796    1.411   .     S
C796   H798    1.114   .     S
H797   C256    1.115   1_556 S
C799   H802    1.111   .     S
C799   C256    1.521   1_556 S
H800   C619    1.111   1_655 S
H801   C619    1.110   1_655 S
O803   C804    1.412   .     S
C804   H806    1.110   .     S
C804   H265    1.112   1_556 S
C804   C267    1.520   1_556 S
C807   H810    1.111   .     S
C807   H809    1.110   .     S
H808   C267    1.111   1_556 S
C811   C831    1.474   .     S
C811   O853    1.301   .     A
C811   O855    1.289   .     A
C812   O856    1.292   .     A
C812   O854    1.298   .     A
C812   C832    1.476   .     S
C813   H845    1.082   .     S
C813   C815    1.405   .     A
C813   C821    1.408   .     A
C814   H846    1.082   .     S
C814   C822    1.409   .     A
C814   C816    1.404   .     A
C815   H847    1.080   .     S
C815   N851    1.365   .     A
C816   H848    1.081   .     S
C816   N852    1.363   .     A
C817   C819    1.410   .     A
C817   N851    1.365   .     A
C817   H849    1.078   .     S
C818   N852    1.365   .     A
C818   H850    1.081   .     S
C818   C820    1.412   .     A
C819   C821    1.416   .     A
C819   O885    1.381   .     S
C820   O893    1.383   .     S
C820   C822    1.419   .     A
C822   C281    1.513   1_556 S
C823   O857    1.281   .     A
C823   O859    1.288   .     A
C823   C825    1.438   .     S
C824   O858    1.280   .     A
C824   C826    1.436   .     S
C824   O860    1.288   .     A
C825   C1006   1.359   1_455 S
C825   C1041   1.490   1_455 S
C826   C915    1.359   .     S
C826   C955    1.487   .     S
C827   C837    1.426   .     A
C827   C869    1.485   .     S
C827   C829    1.398   .     A
C828   C873    1.483   .     S
C828   C830    1.396   .     A
C828   C838    1.427   .     A
C829   H841    1.084   .     S
C829   C831    1.400   .     A
C830   C832    1.401   .     A
C830   H842    1.084   .     S
C831   C833    1.418   .     A
C832   C834    1.415   .     A
C833   C877    1.481   .     S
C833   C835    1.392   .     A
C834   C836    1.393   .     A
C834   C881    1.478   .     S
C835   C837    1.405   .     A
C835   H843    1.077   .     S
C836   H844    1.078   .     S
C836   C838    1.405   .     A
C838   C567    1.515   1_565 S
Cu839  N852    2.007   .     S
Cu839  O857    1.972   .     S
Cu839  O853    1.963   .     S
Cu839  O860    1.970   .     S
Cu839  Cu840   2.672   .     S
Cu839  O856    1.972   .     S
Cu840  O855    1.972   .     S
Cu840  O858    1.972   .     S
Cu840  N851    2.007   .     S
Cu840  O854    1.963   .     S
Cu840  O859    1.970   .     S
C861   O862    1.223   .     D
C861   C915    1.490   .     S
C861   O953    1.397   .     S
O863   C1041   1.397   1_455 S
O863   H1044   1.014   1_455 S
H864   O953    1.014   .     S
C865   O866    1.222   .     D
C865   C1006   1.487   1_455 S
C865   O1047   1.398   1_455 S
O867   C955    1.398   .     S
O867   H958    1.014   .     S
H868   O1047   1.014   1_455 S
C869   O870    1.223   .     D
O871   H872    1.014   .     S
O871   C599    1.399   1_565 S
C873   O875    1.398   .     S
C873   O874    1.223   .     D
O875   H876    1.014   .     S
C877   O878    1.222   .     D
C877   O879    1.398   .     S
O879   H880    1.014   .     S
C881   O883    1.396   .     S
C881   O882    1.223   .     D
O883   H884    1.012   .     S
O885   C886    1.411   .     S
C886   H888    1.114   .     S
H887   C346    1.115   1_556 S
C889   H892    1.111   .     S
C889   C346    1.521   1_556 S
C889   H1070   1.111   1_455 S
C889   H1071   1.110   1_455 S
H890   C979    1.111   .     S
H891   C979    1.110   .     S
O893   C894    1.412   .     S
C894   H896    1.110   .     S
C894   H355    1.112   1_556 S
C894   C357    1.520   1_556 S
C897   H900    1.111   .     S
C897   H899    1.110   .     S
H898   C357    1.111   1_556 S
C901   C921    1.474   .     S
C901   O943    1.301   .     A
C901   O945    1.289   .     A
C902   O946    1.292   .     A
C902   O944    1.298   .     A
C902   C922    1.476   .     S
C903   H935    1.082   .     S
C903   C905    1.405   .     A
C903   C911    1.408   .     A
C904   H936    1.082   .     S
C904   C912    1.409   .     A
C904   C906    1.404   .     A
C905   H937    1.080   .     S
C905   N941    1.365   .     A
C906   H938    1.081   .     S
C906   N942    1.363   .     A
C907   C909    1.410   .     A
C907   N941    1.365   .     A
C907   H939    1.078   .     S
C908   N942    1.365   .     A
C908   H940    1.081   .     S
C908   C910    1.412   .     A
C909   C911    1.416   .     A
C909   O975    1.381   .     S
C910   O983    1.383   .     S
C910   C912    1.419   .     A
C912   C371    1.513   1_556 S
C913   O947    1.281   .     A
C913   O949    1.288   .     A
C913   C915    1.438   .     S
C914   O948    1.280   .     A
C914   C916    1.436   .     S
C914   O950    1.288   .     A
C916   C1005   1.359   .     S
C916   C1045   1.487   .     S
C917   C927    1.426   .     A
C917   C959    1.485   .     S
C917   C919    1.398   .     A
C918   C963    1.483   .     S
C918   C920    1.396   .     A
C918   C928    1.427   .     A
C919   H931    1.084   .     S
C919   C921    1.400   .     A
C920   C922    1.401   .     A
C920   H932    1.084   .     S
C921   C923    1.418   .     A
C922   C924    1.415   .     A
C923   C967    1.481   .     S
C923   C925    1.392   .     A
C924   C926    1.393   .     A
C924   C971    1.478   .     S
C925   C927    1.405   .     A
C925   H933    1.077   .     S
C926   H934    1.078   .     S
C926   C928    1.405   .     A
C928   C657    1.515   1_565 S
Cu929  N942    2.007   .     S
Cu929  O947    1.972   .     S
Cu929  O943    1.963   .     S
Cu929  O950    1.970   .     S
Cu929  Cu930   2.672   .     S
Cu929  O946    1.972   .     S
Cu930  O945    1.972   .     S
Cu930  O948    1.972   .     S
Cu930  N941    2.007   .     S
Cu930  O944    1.963   .     S
Cu930  O949    1.970   .     S
C951   O952    1.223   .     D
C951   C1005   1.490   .     S
C951   O1043   1.397   .     S
H954   O1043   1.014   .     S
C955   O956    1.222   .     D
O957   C1045   1.398   .     S
O957   H1048   1.014   .     S
C959   O960    1.223   .     D
O961   H962    1.014   .     S
O961   C689    1.399   1_565 S
C963   O965    1.398   .     S
C963   O964    1.223   .     D
O965   H966    1.014   .     S
C967   O968    1.222   .     D
C967   O969    1.398   .     S
O969   H970    1.014   .     S
C971   O973    1.396   .     S
C971   O972    1.223   .     D
O973   H974    1.012   .     S
O975   C976    1.411   .     S
C976   H978    1.114   .     S
H977   C436    1.115   1_556 S
C979   H982    1.111   .     S
C979   C436    1.521   1_556 S
H980   C1069   1.111   .     S
H981   C1069   1.110   .     S
O983   C984    1.412   .     S
C984   H986    1.110   .     S
C984   H445    1.112   1_556 S
C984   C447    1.520   1_556 S
C987   H990    1.111   .     S
C987   H989    1.110   .     S
H988   C447    1.111   1_556 S
C991   C1011   1.474   .     S
C991   O1033   1.301   .     A
C991   O1035   1.289   .     A
C992   O1036   1.292   .     A
C992   O1034   1.298   .     A
C992   C1012   1.476   .     S
C993   H1025   1.082   .     S
C993   C995    1.405   .     A
C993   C1001   1.408   .     A
C994   H1026   1.082   .     S
C994   C1002   1.409   .     A
C994   C996    1.404   .     A
C995   H1027   1.080   .     S
C995   N1031   1.365   .     A
C996   H1028   1.081   .     S
C996   N1032   1.363   .     A
C997   C999    1.410   .     A
C997   N1031   1.365   .     A
C997   H1029   1.078   .     S
C998   N1032   1.365   .     A
C998   H1030   1.081   .     S
C998   C1000   1.412   .     A
C999   C1001   1.416   .     A
C999   O1065   1.381   .     S
C1000  O1073   1.383   .     S
C1000  C1002   1.419   .     A
C1002  C461    1.513   1_556 S
C1003  O1037   1.281   .     A
C1003  O1039   1.288   .     A
C1003  C1005   1.438   .     S
C1004  O1038   1.280   .     A
C1004  C1006   1.436   .     S
C1004  O1040   1.288   .     A
C1006  C825    1.359   1_655 S
C1006  C865    1.487   1_655 S
C1007  C1017   1.426   .     A
C1007  C1049   1.485   .     S
C1007  C1009   1.398   .     A
C1008  C1053   1.483   .     S
C1008  C1010   1.396   .     A
C1008  C1018   1.427   .     A
C1009  H1021   1.084   .     S
C1009  C1011   1.400   .     A
C1010  C1012   1.401   .     A
C1010  H1022   1.084   .     S
C1011  C1013   1.418   .     A
C1012  C1014   1.415   .     A
C1013  C1057   1.481   .     S
C1013  C1015   1.392   .     A
C1014  C1016   1.393   .     A
C1014  C1061   1.478   .     S
C1015  C1017   1.405   .     A
C1015  H1023   1.077   .     S
C1016  H1024   1.078   .     S
C1016  C1018   1.405   .     A
C1018  C747    1.515   1_565 S
Cu1019 N1032   2.007   .     S
Cu1019 O1037   1.972   .     S
Cu1019 O1033   1.963   .     S
Cu1019 O1040   1.970   .     S
Cu1019 Cu1020  2.672   .     S
Cu1019 O1036   1.972   .     S
Cu1020 O1035   1.972   .     S
Cu1020 O1038   1.972   .     S
Cu1020 N1031   2.007   .     S
Cu1020 O1034   1.963   .     S
Cu1020 O1039   1.970   .     S
C1041  O1042   1.223   .     D
C1041  C825    1.490   1_655 S
C1041  O863    1.397   1_655 S
H1044  O863    1.014   1_655 S
C1045  O1046   1.222   .     D
O1047  C865    1.398   1_655 S
O1047  H868    1.014   1_655 S
C1049  O1050   1.223   .     D
O1051  H1052   1.014   .     S
O1051  C779    1.399   1_565 S
C1053  O1055   1.398   .     S
C1053  O1054   1.223   .     D
O1055  H1056   1.014   .     S
C1057  O1058   1.222   .     D
C1057  O1059   1.398   .     S
O1059  H1060   1.014   .     S
C1061  O1063   1.396   .     S
C1061  O1062   1.223   .     D
O1063  H1064   1.012   .     S
O1065  C1066   1.411   .     S
C1066  H1068   1.114   .     S
H1067  C526    1.115   1_556 S
C1069  H1072   1.111   .     S
C1069  C526    1.521   1_556 S
H1070  C889    1.111   1_655 S
H1071  C889    1.110   1_655 S
O1073  C1074   1.412   .     S
C1074  H1076   1.110   .     S
C1074  H535    1.112   1_556 S
C1074  C537    1.520   1_556 S
C1077  H1080   1.111   .     S
C1077  H1079   1.110   .     S
H1078  C537    1.111   1_556 S
