data_str_m3_o1_o16_pcu_sym.143
_audit_creation_date              2020-01-03
_audit_creation_method            'Materials Studio'
_symmetry_space_group_name_H-M    'P1'
_symmetry_Int_Tables_number       1
_symmetry_cell_setting            triclinic
loop_
_symmetry_equiv_pos_as_xyz
  x,y,z
_cell_length_a                    29.7604
_cell_length_b                    31.9491
_cell_length_c                    26.3505
_cell_angle_alpha                 90.9249
_cell_angle_beta                  70.7275
_cell_angle_gamma                 88.6515
loop_
_atom_site_label
_atom_site_type_symbol
_atom_site_fract_x
_atom_site_fract_y
_atom_site_fract_z
_atom_site_U_iso_or_equiv
_atom_site_adp_type
_atom_site_occupancy
C1     C     0.16627   0.24657   0.24984   0.00000  Uiso   1.00
C2     C     0.14478   0.17314   0.49142   0.00000  Uiso   1.00
C3     C     0.15308   0.18565   0.43823   0.00000  Uiso   1.00
C4     C     0.17975   0.18118   0.01549   0.00000  Uiso   1.00
C5     C     0.21766   0.20803   0.49058   0.00000  Uiso   1.00
C6     C     0.22194   0.22449   0.44063   0.00000  Uiso   1.00
C7     C     0.19031   0.21319   0.41449   0.00000  Uiso   1.00
C8     C     0.17805   0.16306   0.06374   0.00000  Uiso   1.00
C9     C     0.24355   0.20454   0.06835   0.00000  Uiso   1.00
C10    C     0.12373   0.17023   0.41018   0.00000  Uiso   1.00
C11    C     0.18978   0.31154   0.27941   0.00000  Uiso   1.00
C12    C     0.14035   0.16861   0.35175   0.00000  Uiso   1.00
C13    C     0.19014   0.02108   0.27975   0.00000  Uiso   1.00
C14    C     0.16711   0.04263   0.24955   0.00000  Uiso   1.00
C15    C     0.14206   0.02214   0.22060   0.00000  Uiso   1.00
C16    C     0.14166   0.31242   0.21978   0.00000  Uiso   1.00
C17    C     0.16557   0.29078   0.24967   0.00000  Uiso   1.00
C18    C     0.31906   0.13497   0.22405   0.00000  Uiso   1.00
C19    C     0.03297   0.13550   0.22484   0.00000  Uiso   1.00
C20    C     0.01557   0.19810   0.27538   0.00000  Uiso   1.00
C21    C     0.30112   0.19810   0.27540   0.00000  Uiso   1.00
C22    C     0.16694   0.08677   0.25006   0.00000  Uiso   1.00
C23    C     0.19289   0.16778   0.14831   0.00000  Uiso   1.00
C24    C     0.24964   0.21923   0.01708   0.00000  Uiso   1.00
C25    C     0.20775   0.17623   0.09142   0.00000  Uiso   1.00
C26    C     0.08094   0.15132   0.43788   0.00000  Uiso   1.00
C27    C     0.06877   0.14500   0.49267   0.00000  Uiso   1.00
C28    C     0.10117   0.15423   0.01901   0.00000  Uiso   1.00
H29    H     0.26518   0.21669   0.09080   0.00000  Uiso   1.00
H30    H     0.20741   0.03740   0.30426   0.00000  Uiso   1.00
H31    H     0.12296   0.03954   0.19876   0.00000  Uiso   1.00
H32    H     0.05839   0.11052   0.20596   0.00000  Uiso   1.00
H33    H     0.02682   0.22332   0.29585   0.00000  Uiso   1.00
H34    H     0.27658   0.22327   0.29591   0.00000  Uiso   1.00
H35    H     0.24996   0.24585   0.42156   0.00000  Uiso   1.00
H36    H     0.27775   0.24083   0.49932   0.00000  Uiso   1.00
H37    H     0.15242   0.13967   0.08193   0.00000  Uiso   1.00
H38    H     0.05753   0.14074   0.41668   0.00000  Uiso   1.00
H39    H     0.09044   0.14833   0.06149   0.00000  Uiso   1.00
H40    H     0.19444   0.22726   0.37620   0.00000  Uiso   1.00
H41    H     0.20756   0.29461   0.30305   0.00000  Uiso   1.00
N42    N     0.04760   0.16668   0.25001   0.00000  Uiso   1.00
N43    N     0.28573   0.16665   0.25000   0.00000  Uiso   1.00
O44    O     0.12846   0.22775   0.25000   0.00000  Uiso   1.00
O45    O     0.20490   0.22774   0.25000   0.00000  Uiso   1.00
O46    O     0.10947   0.16666   0.32681   0.00000  Uiso   1.00
O47    O     0.18591   0.16665   0.32681   0.00000  Uiso   1.00
O48    O     0.12843   0.10559   0.24999   0.00000  Uiso   1.00
O49    O     0.20488   0.10558   0.24999   0.00000  Uiso   1.00
O50    O     0.14742   0.16668   0.17319   0.00000  Uiso   1.00
O51    O     0.22387   0.16667   0.17319   0.00000  Uiso   1.00
Zn52   Zn    0.11562   0.16667   0.25000   0.00000  Uiso   1.00
Zn53   Zn    0.21771   0.16666   0.25000   0.00000  Uiso   1.00
O54    O     0.11546   0.29186   0.19285   0.00000  Uiso   1.00
C55    C     0.14370   0.28365   0.13857   0.00000  Uiso   1.00
H56    H     0.13548   0.25171   0.12756   0.00000  Uiso   1.00
H57    H     0.18292   0.28341   0.13122   0.00000  Uiso   1.00
C58    C     0.13058   0.31511   0.10208   0.00000  Uiso   1.00
H59    H     0.09126   0.31685   0.11193   0.00000  Uiso   1.00
H60    H     0.14272   0.01332   0.10890   0.00000  Uiso   1.00
C61    C     0.15351   0.30263   0.04283   0.00000  Uiso   1.00
H62    H     0.19288   0.30062   0.03197   0.00000  Uiso   1.00
H63    H     0.14408   0.32651   0.01759   0.00000  Uiso   1.00
H64    H     0.14033   0.27195   0.03437   0.00000  Uiso   1.00
S65    S     0.30686   0.08923   0.19218   0.00000  Uiso   1.00
O66    O     0.28594   0.05794   0.23473   0.00000  Uiso   1.00
O67    O     0.27375   0.09702   0.16087   0.00000  Uiso   1.00
O68    O     0.02444   0.06748   0.14977   0.00000  Uiso   1.00
H69    H     0.04025   0.09035   0.12615   0.00000  Uiso   1.00
S70    S     0.01289   0.12552   0.02875   0.00000  Uiso   1.00
O71    O     0.31186   0.13162   0.49841   0.00000  Uiso   1.00
O72    O     0.01850   0.07959   0.03731   0.00000  Uiso   1.00
O73    O     0.32537   0.15096   0.08863   0.00000  Uiso   1.00
H74    H     0.00448   0.17956   0.08222   0.00000  Uiso   1.00
C75    C     0.49960   0.24657   0.24984   0.00000  Uiso   1.00
C76    C     0.47812   0.17314   0.49142   0.00000  Uiso   1.00
C77    C     0.48642   0.18565   0.43823   0.00000  Uiso   1.00
C78    C     0.51308   0.18118   0.01549   0.00000  Uiso   1.00
C79    C     0.55099   0.20803   0.49058   0.00000  Uiso   1.00
C80    C     0.55528   0.22449   0.44063   0.00000  Uiso   1.00
C81    C     0.52364   0.21319   0.41449   0.00000  Uiso   1.00
C82    C     0.51138   0.16306   0.06374   0.00000  Uiso   1.00
C83    C     0.57689   0.20454   0.06835   0.00000  Uiso   1.00
C84    C     0.45706   0.17023   0.41018   0.00000  Uiso   1.00
C85    C     0.52311   0.31154   0.27941   0.00000  Uiso   1.00
C86    C     0.47368   0.16861   0.35175   0.00000  Uiso   1.00
C87    C     0.52347   0.02108   0.27975   0.00000  Uiso   1.00
C88    C     0.50044   0.04263   0.24955   0.00000  Uiso   1.00
C89    C     0.47539   0.02214   0.22060   0.00000  Uiso   1.00
C90    C     0.47499   0.31242   0.21978   0.00000  Uiso   1.00
C91    C     0.49891   0.29078   0.24967   0.00000  Uiso   1.00
C92    C     0.65240   0.13497   0.22405   0.00000  Uiso   1.00
C93    C     0.36630   0.13550   0.22484   0.00000  Uiso   1.00
C94    C     0.34890   0.19810   0.27538   0.00000  Uiso   1.00
C95    C     0.63445   0.19810   0.27540   0.00000  Uiso   1.00
C96    C     0.50027   0.08677   0.25006   0.00000  Uiso   1.00
C97    C     0.52622   0.16778   0.14831   0.00000  Uiso   1.00
C98    C     0.58297   0.21923   0.01708   0.00000  Uiso   1.00
C99    C     0.54109   0.17623   0.09142   0.00000  Uiso   1.00
C100   C     0.41428   0.15132   0.43788   0.00000  Uiso   1.00
C101   C     0.40210   0.14500   0.49267   0.00000  Uiso   1.00
C102   C     0.43450   0.15423   0.01901   0.00000  Uiso   1.00
H103   H     0.59852   0.21669   0.09080   0.00000  Uiso   1.00
H104   H     0.54074   0.03740   0.30426   0.00000  Uiso   1.00
H105   H     0.45629   0.03954   0.19876   0.00000  Uiso   1.00
H106   H     0.39173   0.11052   0.20596   0.00000  Uiso   1.00
H107   H     0.36015   0.22332   0.29585   0.00000  Uiso   1.00
H108   H     0.60992   0.22327   0.29591   0.00000  Uiso   1.00
H109   H     0.58329   0.24585   0.42156   0.00000  Uiso   1.00
H110   H     0.61108   0.24083   0.49932   0.00000  Uiso   1.00
H111   H     0.48575   0.13967   0.08193   0.00000  Uiso   1.00
H112   H     0.39086   0.14074   0.41668   0.00000  Uiso   1.00
H113   H     0.42378   0.14833   0.06149   0.00000  Uiso   1.00
H114   H     0.52777   0.22726   0.37620   0.00000  Uiso   1.00
H115   H     0.54090   0.29461   0.30305   0.00000  Uiso   1.00
N116   N     0.38093   0.16668   0.25001   0.00000  Uiso   1.00
N117   N     0.61906   0.16665   0.25000   0.00000  Uiso   1.00
O118   O     0.46179   0.22775   0.25000   0.00000  Uiso   1.00
O119   O     0.53823   0.22774   0.25000   0.00000  Uiso   1.00
O120   O     0.44280   0.16666   0.32681   0.00000  Uiso   1.00
O121   O     0.51924   0.16665   0.32681   0.00000  Uiso   1.00
O122   O     0.46177   0.10559   0.24999   0.00000  Uiso   1.00
O123   O     0.53821   0.10558   0.24999   0.00000  Uiso   1.00
O124   O     0.48076   0.16668   0.17319   0.00000  Uiso   1.00
O125   O     0.55720   0.16667   0.17319   0.00000  Uiso   1.00
Zn126  Zn    0.44896   0.16667   0.25000   0.00000  Uiso   1.00
Zn127  Zn    0.55104   0.16666   0.25000   0.00000  Uiso   1.00
O128   O     0.44880   0.29186   0.19285   0.00000  Uiso   1.00
C129   C     0.47704   0.28365   0.13857   0.00000  Uiso   1.00
H130   H     0.46882   0.25171   0.12756   0.00000  Uiso   1.00
H131   H     0.51625   0.28341   0.13122   0.00000  Uiso   1.00
C132   C     0.46391   0.31511   0.10208   0.00000  Uiso   1.00
H133   H     0.42459   0.31685   0.11193   0.00000  Uiso   1.00
H134   H     0.47606   0.01332   0.10890   0.00000  Uiso   1.00
C135   C     0.48684   0.30263   0.04283   0.00000  Uiso   1.00
H136   H     0.52621   0.30062   0.03197   0.00000  Uiso   1.00
H137   H     0.47741   0.32651   0.01759   0.00000  Uiso   1.00
H138   H     0.47366   0.27195   0.03437   0.00000  Uiso   1.00
S139   S     0.64019   0.08923   0.19218   0.00000  Uiso   1.00
O140   O     0.61927   0.05794   0.23473   0.00000  Uiso   1.00
O141   O     0.60709   0.09702   0.16087   0.00000  Uiso   1.00
O142   O     0.35777   0.06748   0.14977   0.00000  Uiso   1.00
H143   H     0.37358   0.09035   0.12615   0.00000  Uiso   1.00
S144   S     0.34623   0.12552   0.02875   0.00000  Uiso   1.00
O145   O     0.64520   0.13162   0.49841   0.00000  Uiso   1.00
O146   O     0.35183   0.07959   0.03731   0.00000  Uiso   1.00
O147   O     0.65870   0.15096   0.08863   0.00000  Uiso   1.00
H148   H     0.33781   0.17956   0.08222   0.00000  Uiso   1.00
C149   C     0.83293   0.24657   0.24984   0.00000  Uiso   1.00
C150   C     0.81145   0.17314   0.49142   0.00000  Uiso   1.00
C151   C     0.81975   0.18565   0.43823   0.00000  Uiso   1.00
C152   C     0.84642   0.18118   0.01549   0.00000  Uiso   1.00
C153   C     0.88433   0.20803   0.49058   0.00000  Uiso   1.00
C154   C     0.88861   0.22449   0.44063   0.00000  Uiso   1.00
C155   C     0.85698   0.21319   0.41449   0.00000  Uiso   1.00
C156   C     0.84472   0.16306   0.06374   0.00000  Uiso   1.00
C157   C     0.91022   0.20454   0.06835   0.00000  Uiso   1.00
C158   C     0.79040   0.17023   0.41018   0.00000  Uiso   1.00
C159   C     0.85645   0.31154   0.27941   0.00000  Uiso   1.00
C160   C     0.80701   0.16861   0.35175   0.00000  Uiso   1.00
C161   C     0.85681   0.02108   0.27975   0.00000  Uiso   1.00
C162   C     0.83377   0.04263   0.24955   0.00000  Uiso   1.00
C163   C     0.80872   0.02214   0.22060   0.00000  Uiso   1.00
C164   C     0.80832   0.31242   0.21978   0.00000  Uiso   1.00
C165   C     0.83224   0.29078   0.24967   0.00000  Uiso   1.00
C166   C     0.98573   0.13497   0.22405   0.00000  Uiso   1.00
C167   C     0.69963   0.13550   0.22484   0.00000  Uiso   1.00
C168   C     0.68224   0.19810   0.27538   0.00000  Uiso   1.00
C169   C     0.96779   0.19810   0.27540   0.00000  Uiso   1.00
C170   C     0.83360   0.08677   0.25006   0.00000  Uiso   1.00
C171   C     0.85955   0.16778   0.14831   0.00000  Uiso   1.00
C172   C     0.91631   0.21923   0.01708   0.00000  Uiso   1.00
C173   C     0.87442   0.17623   0.09142   0.00000  Uiso   1.00
C174   C     0.74761   0.15132   0.43788   0.00000  Uiso   1.00
C175   C     0.73544   0.14500   0.49267   0.00000  Uiso   1.00
C176   C     0.76783   0.15423   0.01901   0.00000  Uiso   1.00
H177   H     0.93185   0.21669   0.09080   0.00000  Uiso   1.00
H178   H     0.87407   0.03740   0.30426   0.00000  Uiso   1.00
H179   H     0.78962   0.03954   0.19876   0.00000  Uiso   1.00
H180   H     0.72506   0.11052   0.20596   0.00000  Uiso   1.00
H181   H     0.69349   0.22332   0.29585   0.00000  Uiso   1.00
H182   H     0.94325   0.22327   0.29591   0.00000  Uiso   1.00
H183   H     0.91663   0.24585   0.42156   0.00000  Uiso   1.00
H184   H     0.94442   0.24083   0.49932   0.00000  Uiso   1.00
H185   H     0.81908   0.13967   0.08193   0.00000  Uiso   1.00
H186   H     0.72419   0.14074   0.41668   0.00000  Uiso   1.00
H187   H     0.75711   0.14833   0.06149   0.00000  Uiso   1.00
H188   H     0.86110   0.22726   0.37620   0.00000  Uiso   1.00
H189   H     0.87423   0.29461   0.30305   0.00000  Uiso   1.00
N190   N     0.71426   0.16668   0.25001   0.00000  Uiso   1.00
N191   N     0.95239   0.16665   0.25000   0.00000  Uiso   1.00
O192   O     0.79512   0.22775   0.25000   0.00000  Uiso   1.00
O193   O     0.87157   0.22774   0.25000   0.00000  Uiso   1.00
O194   O     0.77613   0.16666   0.32681   0.00000  Uiso   1.00
O195   O     0.85258   0.16665   0.32681   0.00000  Uiso   1.00
O196   O     0.79510   0.10559   0.24999   0.00000  Uiso   1.00
O197   O     0.87154   0.10558   0.24999   0.00000  Uiso   1.00
O198   O     0.81409   0.16668   0.17319   0.00000  Uiso   1.00
O199   O     0.89053   0.16667   0.17319   0.00000  Uiso   1.00
Zn200  Zn    0.78229   0.16667   0.25000   0.00000  Uiso   1.00
Zn201  Zn    0.88438   0.16666   0.25000   0.00000  Uiso   1.00
O202   O     0.78213   0.29186   0.19285   0.00000  Uiso   1.00
C203   C     0.81037   0.28365   0.13857   0.00000  Uiso   1.00
H204   H     0.80215   0.25171   0.12756   0.00000  Uiso   1.00
H205   H     0.84959   0.28341   0.13122   0.00000  Uiso   1.00
C206   C     0.79725   0.31511   0.10208   0.00000  Uiso   1.00
H207   H     0.75792   0.31685   0.11193   0.00000  Uiso   1.00
H208   H     0.80939   0.01332   0.10890   0.00000  Uiso   1.00
C209   C     0.82018   0.30263   0.04283   0.00000  Uiso   1.00
H210   H     0.85955   0.30062   0.03197   0.00000  Uiso   1.00
H211   H     0.81074   0.32651   0.01759   0.00000  Uiso   1.00
H212   H     0.80700   0.27195   0.03437   0.00000  Uiso   1.00
S213   S     0.97352   0.08923   0.19218   0.00000  Uiso   1.00
O214   O     0.95260   0.05794   0.23473   0.00000  Uiso   1.00
O215   O     0.94042   0.09702   0.16087   0.00000  Uiso   1.00
O216   O     0.69111   0.06748   0.14977   0.00000  Uiso   1.00
H217   H     0.70691   0.09035   0.12615   0.00000  Uiso   1.00
S218   S     0.67956   0.12552   0.02875   0.00000  Uiso   1.00
O219   O     0.97853   0.13162   0.49841   0.00000  Uiso   1.00
O220   O     0.68517   0.07959   0.03731   0.00000  Uiso   1.00
O221   O     0.99204   0.15096   0.08863   0.00000  Uiso   1.00
H222   H     0.67115   0.17956   0.08222   0.00000  Uiso   1.00
C223   C     0.16627   0.57991   0.24984   0.00000  Uiso   1.00
C224   C     0.14478   0.50647   0.49142   0.00000  Uiso   1.00
C225   C     0.15308   0.51899   0.43823   0.00000  Uiso   1.00
C226   C     0.17975   0.51451   0.01549   0.00000  Uiso   1.00
C227   C     0.21766   0.54137   0.49058   0.00000  Uiso   1.00
C228   C     0.22194   0.55782   0.44063   0.00000  Uiso   1.00
C229   C     0.19031   0.54652   0.41449   0.00000  Uiso   1.00
C230   C     0.17805   0.49639   0.06374   0.00000  Uiso   1.00
C231   C     0.24355   0.53787   0.06835   0.00000  Uiso   1.00
C232   C     0.12373   0.50356   0.41018   0.00000  Uiso   1.00
C233   C     0.18978   0.64487   0.27941   0.00000  Uiso   1.00
C234   C     0.14035   0.50195   0.35175   0.00000  Uiso   1.00
C235   C     0.19014   0.35442   0.27975   0.00000  Uiso   1.00
C236   C     0.16711   0.37597   0.24955   0.00000  Uiso   1.00
C237   C     0.14206   0.35548   0.22060   0.00000  Uiso   1.00
C238   C     0.14166   0.64576   0.21978   0.00000  Uiso   1.00
C239   C     0.16557   0.62411   0.24967   0.00000  Uiso   1.00
C240   C     0.31906   0.46830   0.22405   0.00000  Uiso   1.00
C241   C     0.03297   0.46884   0.22484   0.00000  Uiso   1.00
C242   C     0.01557   0.53144   0.27538   0.00000  Uiso   1.00
C243   C     0.30112   0.53143   0.27540   0.00000  Uiso   1.00
C244   C     0.16694   0.42010   0.25006   0.00000  Uiso   1.00
C245   C     0.19289   0.50111   0.14831   0.00000  Uiso   1.00
C246   C     0.24964   0.55256   0.01708   0.00000  Uiso   1.00
C247   C     0.20775   0.50957   0.09142   0.00000  Uiso   1.00
C248   C     0.08094   0.48466   0.43788   0.00000  Uiso   1.00
C249   C     0.06877   0.47833   0.49267   0.00000  Uiso   1.00
C250   C     0.10117   0.48756   0.01901   0.00000  Uiso   1.00
H251   H     0.26518   0.55003   0.09080   0.00000  Uiso   1.00
H252   H     0.20741   0.37073   0.30426   0.00000  Uiso   1.00
H253   H     0.12296   0.37287   0.19876   0.00000  Uiso   1.00
H254   H     0.05839   0.44386   0.20596   0.00000  Uiso   1.00
H255   H     0.02682   0.55666   0.29585   0.00000  Uiso   1.00
H256   H     0.27658   0.55660   0.29591   0.00000  Uiso   1.00
H257   H     0.24996   0.57918   0.42156   0.00000  Uiso   1.00
H258   H     0.27775   0.57416   0.49932   0.00000  Uiso   1.00
H259   H     0.15242   0.47300   0.08193   0.00000  Uiso   1.00
H260   H     0.05753   0.47407   0.41668   0.00000  Uiso   1.00
H261   H     0.09044   0.48166   0.06149   0.00000  Uiso   1.00
H262   H     0.19444   0.56059   0.37620   0.00000  Uiso   1.00
H263   H     0.20756   0.62794   0.30305   0.00000  Uiso   1.00
N264   N     0.04760   0.50001   0.25001   0.00000  Uiso   1.00
N265   N     0.28573   0.49998   0.25000   0.00000  Uiso   1.00
O266   O     0.12846   0.56108   0.25000   0.00000  Uiso   1.00
O267   O     0.20490   0.56107   0.25000   0.00000  Uiso   1.00
O268   O     0.10947   0.50000   0.32681   0.00000  Uiso   1.00
O269   O     0.18591   0.49999   0.32681   0.00000  Uiso   1.00
O270   O     0.12843   0.43893   0.24999   0.00000  Uiso   1.00
O271   O     0.20488   0.43892   0.24999   0.00000  Uiso   1.00
O272   O     0.14742   0.50001   0.17319   0.00000  Uiso   1.00
O273   O     0.22387   0.50000   0.17319   0.00000  Uiso   1.00
Zn274  Zn    0.11562   0.50001   0.25000   0.00000  Uiso   1.00
Zn275  Zn    0.21771   0.49999   0.25000   0.00000  Uiso   1.00
O276   O     0.11546   0.62519   0.19285   0.00000  Uiso   1.00
C277   C     0.14370   0.61699   0.13857   0.00000  Uiso   1.00
H278   H     0.13548   0.58504   0.12756   0.00000  Uiso   1.00
H279   H     0.18292   0.61675   0.13122   0.00000  Uiso   1.00
C280   C     0.13058   0.64844   0.10208   0.00000  Uiso   1.00
H281   H     0.09126   0.65019   0.11193   0.00000  Uiso   1.00
H282   H     0.14272   0.34665   0.10890   0.00000  Uiso   1.00
C283   C     0.15351   0.63596   0.04283   0.00000  Uiso   1.00
H284   H     0.19288   0.63395   0.03197   0.00000  Uiso   1.00
H285   H     0.14408   0.65984   0.01759   0.00000  Uiso   1.00
H286   H     0.14033   0.60528   0.03437   0.00000  Uiso   1.00
S287   S     0.30686   0.42256   0.19218   0.00000  Uiso   1.00
O288   O     0.28594   0.39127   0.23473   0.00000  Uiso   1.00
O289   O     0.27375   0.43036   0.16087   0.00000  Uiso   1.00
O290   O     0.02444   0.40081   0.14977   0.00000  Uiso   1.00
H291   H     0.04025   0.42368   0.12615   0.00000  Uiso   1.00
S292   S     0.01289   0.45885   0.02875   0.00000  Uiso   1.00
O293   O     0.31186   0.46495   0.49841   0.00000  Uiso   1.00
O294   O     0.01850   0.41292   0.03731   0.00000  Uiso   1.00
O295   O     0.32537   0.48429   0.08863   0.00000  Uiso   1.00
H296   H     0.00448   0.51289   0.08222   0.00000  Uiso   1.00
C297   C     0.49960   0.57991   0.24984   0.00000  Uiso   1.00
C298   C     0.47812   0.50647   0.49142   0.00000  Uiso   1.00
C299   C     0.48642   0.51899   0.43823   0.00000  Uiso   1.00
C300   C     0.51308   0.51451   0.01549   0.00000  Uiso   1.00
C301   C     0.55099   0.54137   0.49058   0.00000  Uiso   1.00
C302   C     0.55528   0.55782   0.44063   0.00000  Uiso   1.00
C303   C     0.52364   0.54652   0.41449   0.00000  Uiso   1.00
C304   C     0.51138   0.49639   0.06374   0.00000  Uiso   1.00
C305   C     0.57689   0.53787   0.06835   0.00000  Uiso   1.00
C306   C     0.45706   0.50356   0.41018   0.00000  Uiso   1.00
C307   C     0.52311   0.64487   0.27941   0.00000  Uiso   1.00
C308   C     0.47368   0.50195   0.35175   0.00000  Uiso   1.00
C309   C     0.52347   0.35442   0.27975   0.00000  Uiso   1.00
C310   C     0.50044   0.37597   0.24955   0.00000  Uiso   1.00
C311   C     0.47539   0.35548   0.22060   0.00000  Uiso   1.00
C312   C     0.47499   0.64576   0.21978   0.00000  Uiso   1.00
C313   C     0.49891   0.62411   0.24967   0.00000  Uiso   1.00
C314   C     0.65240   0.46830   0.22405   0.00000  Uiso   1.00
C315   C     0.36630   0.46884   0.22484   0.00000  Uiso   1.00
C316   C     0.34890   0.53144   0.27538   0.00000  Uiso   1.00
C317   C     0.63445   0.53143   0.27540   0.00000  Uiso   1.00
C318   C     0.50027   0.42010   0.25006   0.00000  Uiso   1.00
C319   C     0.52622   0.50111   0.14831   0.00000  Uiso   1.00
C320   C     0.58297   0.55256   0.01708   0.00000  Uiso   1.00
C321   C     0.54109   0.50957   0.09142   0.00000  Uiso   1.00
C322   C     0.41428   0.48466   0.43788   0.00000  Uiso   1.00
C323   C     0.40210   0.47833   0.49267   0.00000  Uiso   1.00
C324   C     0.43450   0.48756   0.01901   0.00000  Uiso   1.00
H325   H     0.59852   0.55003   0.09080   0.00000  Uiso   1.00
H326   H     0.54074   0.37073   0.30426   0.00000  Uiso   1.00
H327   H     0.45629   0.37287   0.19876   0.00000  Uiso   1.00
H328   H     0.39173   0.44386   0.20596   0.00000  Uiso   1.00
H329   H     0.36015   0.55666   0.29585   0.00000  Uiso   1.00
H330   H     0.60992   0.55660   0.29591   0.00000  Uiso   1.00
H331   H     0.58329   0.57918   0.42156   0.00000  Uiso   1.00
H332   H     0.61108   0.57416   0.49932   0.00000  Uiso   1.00
H333   H     0.48575   0.47300   0.08193   0.00000  Uiso   1.00
H334   H     0.39086   0.47407   0.41668   0.00000  Uiso   1.00
H335   H     0.42378   0.48166   0.06149   0.00000  Uiso   1.00
H336   H     0.52777   0.56059   0.37620   0.00000  Uiso   1.00
H337   H     0.54090   0.62794   0.30305   0.00000  Uiso   1.00
N338   N     0.38093   0.50001   0.25001   0.00000  Uiso   1.00
N339   N     0.61906   0.49998   0.25000   0.00000  Uiso   1.00
O340   O     0.46179   0.56108   0.25000   0.00000  Uiso   1.00
O341   O     0.53823   0.56107   0.25000   0.00000  Uiso   1.00
O342   O     0.44280   0.50000   0.32681   0.00000  Uiso   1.00
O343   O     0.51924   0.49999   0.32681   0.00000  Uiso   1.00
O344   O     0.46177   0.43893   0.24999   0.00000  Uiso   1.00
O345   O     0.53821   0.43892   0.24999   0.00000  Uiso   1.00
O346   O     0.48076   0.50001   0.17319   0.00000  Uiso   1.00
O347   O     0.55720   0.50000   0.17319   0.00000  Uiso   1.00
Zn348  Zn    0.44896   0.50001   0.25000   0.00000  Uiso   1.00
Zn349  Zn    0.55104   0.49999   0.25000   0.00000  Uiso   1.00
O350   O     0.44880   0.62519   0.19285   0.00000  Uiso   1.00
C351   C     0.47704   0.61699   0.13857   0.00000  Uiso   1.00
H352   H     0.46882   0.58504   0.12756   0.00000  Uiso   1.00
H353   H     0.51625   0.61675   0.13122   0.00000  Uiso   1.00
C354   C     0.46391   0.64844   0.10208   0.00000  Uiso   1.00
H355   H     0.42459   0.65019   0.11193   0.00000  Uiso   1.00
H356   H     0.47606   0.34665   0.10890   0.00000  Uiso   1.00
C357   C     0.48684   0.63596   0.04283   0.00000  Uiso   1.00
H358   H     0.52621   0.63395   0.03197   0.00000  Uiso   1.00
H359   H     0.47741   0.65984   0.01759   0.00000  Uiso   1.00
H360   H     0.47366   0.60528   0.03437   0.00000  Uiso   1.00
S361   S     0.64019   0.42256   0.19218   0.00000  Uiso   1.00
O362   O     0.61927   0.39127   0.23473   0.00000  Uiso   1.00
O363   O     0.60709   0.43036   0.16087   0.00000  Uiso   1.00
O364   O     0.35777   0.40081   0.14977   0.00000  Uiso   1.00
H365   H     0.37358   0.42368   0.12615   0.00000  Uiso   1.00
S366   S     0.34623   0.45885   0.02875   0.00000  Uiso   1.00
O367   O     0.64520   0.46495   0.49841   0.00000  Uiso   1.00
O368   O     0.35183   0.41292   0.03731   0.00000  Uiso   1.00
O369   O     0.65870   0.48429   0.08863   0.00000  Uiso   1.00
H370   H     0.33781   0.51289   0.08222   0.00000  Uiso   1.00
C371   C     0.83293   0.57991   0.24984   0.00000  Uiso   1.00
C372   C     0.81145   0.50647   0.49142   0.00000  Uiso   1.00
C373   C     0.81975   0.51899   0.43823   0.00000  Uiso   1.00
C374   C     0.84642   0.51451   0.01549   0.00000  Uiso   1.00
C375   C     0.88433   0.54137   0.49058   0.00000  Uiso   1.00
C376   C     0.88861   0.55782   0.44063   0.00000  Uiso   1.00
C377   C     0.85698   0.54652   0.41449   0.00000  Uiso   1.00
C378   C     0.84472   0.49639   0.06374   0.00000  Uiso   1.00
C379   C     0.91022   0.53787   0.06835   0.00000  Uiso   1.00
C380   C     0.79040   0.50356   0.41018   0.00000  Uiso   1.00
C381   C     0.85645   0.64487   0.27941   0.00000  Uiso   1.00
C382   C     0.80701   0.50195   0.35175   0.00000  Uiso   1.00
C383   C     0.85681   0.35442   0.27975   0.00000  Uiso   1.00
C384   C     0.83377   0.37597   0.24955   0.00000  Uiso   1.00
C385   C     0.80872   0.35548   0.22060   0.00000  Uiso   1.00
C386   C     0.80832   0.64576   0.21978   0.00000  Uiso   1.00
C387   C     0.83224   0.62411   0.24967   0.00000  Uiso   1.00
C388   C     0.98573   0.46830   0.22405   0.00000  Uiso   1.00
C389   C     0.69963   0.46884   0.22484   0.00000  Uiso   1.00
C390   C     0.68224   0.53144   0.27538   0.00000  Uiso   1.00
C391   C     0.96779   0.53143   0.27540   0.00000  Uiso   1.00
C392   C     0.83360   0.42010   0.25006   0.00000  Uiso   1.00
C393   C     0.85955   0.50111   0.14831   0.00000  Uiso   1.00
C394   C     0.91631   0.55256   0.01708   0.00000  Uiso   1.00
C395   C     0.87442   0.50957   0.09142   0.00000  Uiso   1.00
C396   C     0.74761   0.48466   0.43788   0.00000  Uiso   1.00
C397   C     0.73544   0.47833   0.49267   0.00000  Uiso   1.00
C398   C     0.76783   0.48756   0.01901   0.00000  Uiso   1.00
H399   H     0.93185   0.55003   0.09080   0.00000  Uiso   1.00
H400   H     0.87407   0.37073   0.30426   0.00000  Uiso   1.00
H401   H     0.78962   0.37287   0.19876   0.00000  Uiso   1.00
H402   H     0.72506   0.44386   0.20596   0.00000  Uiso   1.00
H403   H     0.69349   0.55666   0.29585   0.00000  Uiso   1.00
H404   H     0.94325   0.55660   0.29591   0.00000  Uiso   1.00
H405   H     0.91663   0.57918   0.42156   0.00000  Uiso   1.00
H406   H     0.94442   0.57416   0.49932   0.00000  Uiso   1.00
H407   H     0.81908   0.47300   0.08193   0.00000  Uiso   1.00
H408   H     0.72419   0.47407   0.41668   0.00000  Uiso   1.00
H409   H     0.75711   0.48166   0.06149   0.00000  Uiso   1.00
H410   H     0.86110   0.56059   0.37620   0.00000  Uiso   1.00
H411   H     0.87423   0.62794   0.30305   0.00000  Uiso   1.00
N412   N     0.71426   0.50001   0.25001   0.00000  Uiso   1.00
N413   N     0.95239   0.49998   0.25000   0.00000  Uiso   1.00
O414   O     0.79512   0.56108   0.25000   0.00000  Uiso   1.00
O415   O     0.87157   0.56107   0.25000   0.00000  Uiso   1.00
O416   O     0.77613   0.50000   0.32681   0.00000  Uiso   1.00
O417   O     0.85258   0.49999   0.32681   0.00000  Uiso   1.00
O418   O     0.79510   0.43893   0.24999   0.00000  Uiso   1.00
O419   O     0.87154   0.43892   0.24999   0.00000  Uiso   1.00
O420   O     0.81409   0.50001   0.17319   0.00000  Uiso   1.00
O421   O     0.89053   0.50000   0.17319   0.00000  Uiso   1.00
Zn422  Zn    0.78229   0.50001   0.25000   0.00000  Uiso   1.00
Zn423  Zn    0.88438   0.49999   0.25000   0.00000  Uiso   1.00
O424   O     0.78213   0.62519   0.19285   0.00000  Uiso   1.00
C425   C     0.81037   0.61699   0.13857   0.00000  Uiso   1.00
H426   H     0.80215   0.58504   0.12756   0.00000  Uiso   1.00
H427   H     0.84959   0.61675   0.13122   0.00000  Uiso   1.00
C428   C     0.79725   0.64844   0.10208   0.00000  Uiso   1.00
H429   H     0.75792   0.65019   0.11193   0.00000  Uiso   1.00
H430   H     0.80939   0.34665   0.10890   0.00000  Uiso   1.00
C431   C     0.82018   0.63596   0.04283   0.00000  Uiso   1.00
H432   H     0.85955   0.63395   0.03197   0.00000  Uiso   1.00
H433   H     0.81074   0.65984   0.01759   0.00000  Uiso   1.00
H434   H     0.80700   0.60528   0.03437   0.00000  Uiso   1.00
S435   S     0.97352   0.42256   0.19218   0.00000  Uiso   1.00
O436   O     0.95260   0.39127   0.23473   0.00000  Uiso   1.00
O437   O     0.94042   0.43036   0.16087   0.00000  Uiso   1.00
O438   O     0.69111   0.40081   0.14977   0.00000  Uiso   1.00
H439   H     0.70691   0.42368   0.12615   0.00000  Uiso   1.00
S440   S     0.67956   0.45885   0.02875   0.00000  Uiso   1.00
O441   O     0.97853   0.46495   0.49841   0.00000  Uiso   1.00
O442   O     0.68517   0.41292   0.03731   0.00000  Uiso   1.00
O443   O     0.99204   0.48429   0.08863   0.00000  Uiso   1.00
H444   H     0.67115   0.51289   0.08222   0.00000  Uiso   1.00
C445   C     0.16627   0.91324   0.24984   0.00000  Uiso   1.00
C446   C     0.14478   0.83980   0.49142   0.00000  Uiso   1.00
C447   C     0.15308   0.85232   0.43823   0.00000  Uiso   1.00
C448   C     0.17975   0.84785   0.01549   0.00000  Uiso   1.00
C449   C     0.21766   0.87470   0.49058   0.00000  Uiso   1.00
C450   C     0.22194   0.89115   0.44063   0.00000  Uiso   1.00
C451   C     0.19031   0.87986   0.41449   0.00000  Uiso   1.00
C452   C     0.17805   0.82972   0.06374   0.00000  Uiso   1.00
C453   C     0.24355   0.87121   0.06835   0.00000  Uiso   1.00
C454   C     0.12373   0.83690   0.41018   0.00000  Uiso   1.00
C455   C     0.18978   0.97821   0.27941   0.00000  Uiso   1.00
C456   C     0.14035   0.83528   0.35175   0.00000  Uiso   1.00
C457   C     0.19014   0.68775   0.27975   0.00000  Uiso   1.00
C458   C     0.16711   0.70930   0.24955   0.00000  Uiso   1.00
C459   C     0.14206   0.68881   0.22060   0.00000  Uiso   1.00
C460   C     0.14166   0.97909   0.21978   0.00000  Uiso   1.00
C461   C     0.16557   0.95744   0.24967   0.00000  Uiso   1.00
C462   C     0.31906   0.80163   0.22405   0.00000  Uiso   1.00
C463   C     0.03297   0.80217   0.22484   0.00000  Uiso   1.00
C464   C     0.01557   0.86477   0.27538   0.00000  Uiso   1.00
C465   C     0.30112   0.86477   0.27540   0.00000  Uiso   1.00
C466   C     0.16694   0.75344   0.25006   0.00000  Uiso   1.00
C467   C     0.19289   0.83445   0.14831   0.00000  Uiso   1.00
C468   C     0.24964   0.88590   0.01708   0.00000  Uiso   1.00
C469   C     0.20775   0.84290   0.09142   0.00000  Uiso   1.00
C470   C     0.08094   0.81799   0.43788   0.00000  Uiso   1.00
C471   C     0.06877   0.81167   0.49267   0.00000  Uiso   1.00
C472   C     0.10117   0.82089   0.01901   0.00000  Uiso   1.00
H473   H     0.26518   0.88336   0.09080   0.00000  Uiso   1.00
H474   H     0.20741   0.70407   0.30426   0.00000  Uiso   1.00
H475   H     0.12296   0.70620   0.19876   0.00000  Uiso   1.00
H476   H     0.05839   0.77719   0.20596   0.00000  Uiso   1.00
H477   H     0.02682   0.88999   0.29585   0.00000  Uiso   1.00
H478   H     0.27658   0.88993   0.29591   0.00000  Uiso   1.00
H479   H     0.24996   0.91251   0.42156   0.00000  Uiso   1.00
H480   H     0.27775   0.90749   0.49932   0.00000  Uiso   1.00
H481   H     0.15242   0.80633   0.08193   0.00000  Uiso   1.00
H482   H     0.05753   0.80741   0.41668   0.00000  Uiso   1.00
H483   H     0.09044   0.81499   0.06149   0.00000  Uiso   1.00
H484   H     0.19444   0.89392   0.37620   0.00000  Uiso   1.00
H485   H     0.20756   0.96127   0.30305   0.00000  Uiso   1.00
N486   N     0.04760   0.83334   0.25001   0.00000  Uiso   1.00
N487   N     0.28573   0.83331   0.25000   0.00000  Uiso   1.00
O488   O     0.12846   0.89442   0.25000   0.00000  Uiso   1.00
O489   O     0.20490   0.89441   0.25000   0.00000  Uiso   1.00
O490   O     0.10947   0.83333   0.32681   0.00000  Uiso   1.00
O491   O     0.18591   0.83332   0.32681   0.00000  Uiso   1.00
O492   O     0.12843   0.77226   0.24999   0.00000  Uiso   1.00
O493   O     0.20488   0.77225   0.24999   0.00000  Uiso   1.00
O494   O     0.14742   0.83335   0.17319   0.00000  Uiso   1.00
O495   O     0.22387   0.83334   0.17319   0.00000  Uiso   1.00
Zn496  Zn    0.11562   0.83334   0.25000   0.00000  Uiso   1.00
Zn497  Zn    0.21771   0.83333   0.25000   0.00000  Uiso   1.00
O498   O     0.11546   0.95853   0.19285   0.00000  Uiso   1.00
C499   C     0.14370   0.95032   0.13857   0.00000  Uiso   1.00
H500   H     0.13548   0.91837   0.12756   0.00000  Uiso   1.00
H501   H     0.18292   0.95008   0.13122   0.00000  Uiso   1.00
C502   C     0.13058   0.98178   0.10208   0.00000  Uiso   1.00
H503   H     0.09126   0.98352   0.11193   0.00000  Uiso   1.00
H504   H     0.14272   0.67998   0.10890   0.00000  Uiso   1.00
C505   C     0.15351   0.96930   0.04283   0.00000  Uiso   1.00
H506   H     0.19288   0.96729   0.03197   0.00000  Uiso   1.00
H507   H     0.14408   0.99318   0.01759   0.00000  Uiso   1.00
H508   H     0.14033   0.93861   0.03437   0.00000  Uiso   1.00
S509   S     0.30686   0.75589   0.19218   0.00000  Uiso   1.00
O510   O     0.28594   0.72461   0.23473   0.00000  Uiso   1.00
O511   O     0.27375   0.76369   0.16087   0.00000  Uiso   1.00
O512   O     0.02444   0.73415   0.14977   0.00000  Uiso   1.00
H513   H     0.04025   0.75702   0.12615   0.00000  Uiso   1.00
S514   S     0.01289   0.79218   0.02875   0.00000  Uiso   1.00
O515   O     0.31186   0.79828   0.49841   0.00000  Uiso   1.00
O516   O     0.01850   0.74626   0.03731   0.00000  Uiso   1.00
O517   O     0.32537   0.81762   0.08863   0.00000  Uiso   1.00
H518   H     0.00448   0.84622   0.08222   0.00000  Uiso   1.00
C519   C     0.49960   0.91324   0.24984   0.00000  Uiso   1.00
C520   C     0.47812   0.83980   0.49142   0.00000  Uiso   1.00
C521   C     0.48642   0.85232   0.43823   0.00000  Uiso   1.00
C522   C     0.51308   0.84785   0.01549   0.00000  Uiso   1.00
C523   C     0.55099   0.87470   0.49058   0.00000  Uiso   1.00
C524   C     0.55528   0.89115   0.44063   0.00000  Uiso   1.00
C525   C     0.52364   0.87986   0.41449   0.00000  Uiso   1.00
C526   C     0.51138   0.82972   0.06374   0.00000  Uiso   1.00
C527   C     0.57689   0.87121   0.06835   0.00000  Uiso   1.00
C528   C     0.45706   0.83690   0.41018   0.00000  Uiso   1.00
C529   C     0.52311   0.97821   0.27941   0.00000  Uiso   1.00
C530   C     0.47368   0.83528   0.35175   0.00000  Uiso   1.00
C531   C     0.52347   0.68775   0.27975   0.00000  Uiso   1.00
C532   C     0.50044   0.70930   0.24955   0.00000  Uiso   1.00
C533   C     0.47539   0.68881   0.22060   0.00000  Uiso   1.00
C534   C     0.47499   0.97909   0.21978   0.00000  Uiso   1.00
C535   C     0.49891   0.95744   0.24967   0.00000  Uiso   1.00
C536   C     0.65240   0.80163   0.22405   0.00000  Uiso   1.00
C537   C     0.36630   0.80217   0.22484   0.00000  Uiso   1.00
C538   C     0.34890   0.86477   0.27538   0.00000  Uiso   1.00
C539   C     0.63445   0.86477   0.27540   0.00000  Uiso   1.00
C540   C     0.50027   0.75344   0.25006   0.00000  Uiso   1.00
C541   C     0.52622   0.83445   0.14831   0.00000  Uiso   1.00
C542   C     0.58297   0.88590   0.01708   0.00000  Uiso   1.00
C543   C     0.54109   0.84290   0.09142   0.00000  Uiso   1.00
C544   C     0.41428   0.81799   0.43788   0.00000  Uiso   1.00
C545   C     0.40210   0.81167   0.49267   0.00000  Uiso   1.00
C546   C     0.43450   0.82089   0.01901   0.00000  Uiso   1.00
H547   H     0.59852   0.88336   0.09080   0.00000  Uiso   1.00
H548   H     0.54074   0.70407   0.30426   0.00000  Uiso   1.00
H549   H     0.45629   0.70620   0.19876   0.00000  Uiso   1.00
H550   H     0.39173   0.77719   0.20596   0.00000  Uiso   1.00
H551   H     0.36015   0.88999   0.29585   0.00000  Uiso   1.00
H552   H     0.60992   0.88993   0.29591   0.00000  Uiso   1.00
H553   H     0.58329   0.91251   0.42156   0.00000  Uiso   1.00
H554   H     0.61108   0.90749   0.49932   0.00000  Uiso   1.00
H555   H     0.48575   0.80633   0.08193   0.00000  Uiso   1.00
H556   H     0.39086   0.80741   0.41668   0.00000  Uiso   1.00
H557   H     0.42378   0.81499   0.06149   0.00000  Uiso   1.00
H558   H     0.52777   0.89392   0.37620   0.00000  Uiso   1.00
H559   H     0.54090   0.96127   0.30305   0.00000  Uiso   1.00
N560   N     0.38093   0.83334   0.25001   0.00000  Uiso   1.00
N561   N     0.61906   0.83331   0.25000   0.00000  Uiso   1.00
O562   O     0.46179   0.89442   0.25000   0.00000  Uiso   1.00
O563   O     0.53823   0.89441   0.25000   0.00000  Uiso   1.00
O564   O     0.44280   0.83333   0.32681   0.00000  Uiso   1.00
O565   O     0.51924   0.83332   0.32681   0.00000  Uiso   1.00
O566   O     0.46177   0.77226   0.24999   0.00000  Uiso   1.00
O567   O     0.53821   0.77225   0.24999   0.00000  Uiso   1.00
O568   O     0.48076   0.83335   0.17319   0.00000  Uiso   1.00
O569   O     0.55720   0.83334   0.17319   0.00000  Uiso   1.00
Zn570  Zn    0.44896   0.83334   0.25000   0.00000  Uiso   1.00
Zn571  Zn    0.55104   0.83333   0.25000   0.00000  Uiso   1.00
O572   O     0.44880   0.95853   0.19285   0.00000  Uiso   1.00
C573   C     0.47704   0.95032   0.13857   0.00000  Uiso   1.00
H574   H     0.46882   0.91837   0.12756   0.00000  Uiso   1.00
H575   H     0.51625   0.95008   0.13122   0.00000  Uiso   1.00
C576   C     0.46391   0.98178   0.10208   0.00000  Uiso   1.00
H577   H     0.42459   0.98352   0.11193   0.00000  Uiso   1.00
H578   H     0.47606   0.67998   0.10890   0.00000  Uiso   1.00
C579   C     0.48684   0.96930   0.04283   0.00000  Uiso   1.00
H580   H     0.52621   0.96729   0.03197   0.00000  Uiso   1.00
H581   H     0.47741   0.99318   0.01759   0.00000  Uiso   1.00
H582   H     0.47366   0.93861   0.03437   0.00000  Uiso   1.00
S583   S     0.64019   0.75589   0.19218   0.00000  Uiso   1.00
O584   O     0.61927   0.72461   0.23473   0.00000  Uiso   1.00
O585   O     0.60709   0.76369   0.16087   0.00000  Uiso   1.00
O586   O     0.35777   0.73415   0.14977   0.00000  Uiso   1.00
H587   H     0.37358   0.75702   0.12615   0.00000  Uiso   1.00
S588   S     0.34623   0.79218   0.02875   0.00000  Uiso   1.00
O589   O     0.64520   0.79828   0.49841   0.00000  Uiso   1.00
O590   O     0.35183   0.74626   0.03731   0.00000  Uiso   1.00
O591   O     0.65870   0.81762   0.08863   0.00000  Uiso   1.00
H592   H     0.33781   0.84622   0.08222   0.00000  Uiso   1.00
C593   C     0.83293   0.91324   0.24984   0.00000  Uiso   1.00
C594   C     0.81145   0.83980   0.49142   0.00000  Uiso   1.00
C595   C     0.81975   0.85232   0.43823   0.00000  Uiso   1.00
C596   C     0.84642   0.84785   0.01549   0.00000  Uiso   1.00
C597   C     0.88433   0.87470   0.49058   0.00000  Uiso   1.00
C598   C     0.88861   0.89115   0.44063   0.00000  Uiso   1.00
C599   C     0.85698   0.87986   0.41449   0.00000  Uiso   1.00
C600   C     0.84472   0.82972   0.06374   0.00000  Uiso   1.00
C601   C     0.91022   0.87121   0.06835   0.00000  Uiso   1.00
C602   C     0.79040   0.83690   0.41018   0.00000  Uiso   1.00
C603   C     0.85645   0.97821   0.27941   0.00000  Uiso   1.00
C604   C     0.80701   0.83528   0.35175   0.00000  Uiso   1.00
C605   C     0.85681   0.68775   0.27975   0.00000  Uiso   1.00
C606   C     0.83377   0.70930   0.24955   0.00000  Uiso   1.00
C607   C     0.80872   0.68881   0.22060   0.00000  Uiso   1.00
C608   C     0.80832   0.97909   0.21978   0.00000  Uiso   1.00
C609   C     0.83224   0.95744   0.24967   0.00000  Uiso   1.00
C610   C     0.98573   0.80163   0.22405   0.00000  Uiso   1.00
C611   C     0.69963   0.80217   0.22484   0.00000  Uiso   1.00
C612   C     0.68224   0.86477   0.27538   0.00000  Uiso   1.00
C613   C     0.96779   0.86477   0.27540   0.00000  Uiso   1.00
C614   C     0.83360   0.75344   0.25006   0.00000  Uiso   1.00
C615   C     0.85955   0.83445   0.14831   0.00000  Uiso   1.00
C616   C     0.91631   0.88590   0.01708   0.00000  Uiso   1.00
C617   C     0.87442   0.84290   0.09142   0.00000  Uiso   1.00
C618   C     0.74761   0.81799   0.43788   0.00000  Uiso   1.00
C619   C     0.73544   0.81167   0.49267   0.00000  Uiso   1.00
C620   C     0.76783   0.82089   0.01901   0.00000  Uiso   1.00
H621   H     0.93185   0.88336   0.09080   0.00000  Uiso   1.00
H622   H     0.87407   0.70407   0.30426   0.00000  Uiso   1.00
H623   H     0.78962   0.70620   0.19876   0.00000  Uiso   1.00
H624   H     0.72506   0.77719   0.20596   0.00000  Uiso   1.00
H625   H     0.69349   0.88999   0.29585   0.00000  Uiso   1.00
H626   H     0.94325   0.88993   0.29591   0.00000  Uiso   1.00
H627   H     0.91663   0.91251   0.42156   0.00000  Uiso   1.00
H628   H     0.94442   0.90749   0.49932   0.00000  Uiso   1.00
H629   H     0.81908   0.80633   0.08193   0.00000  Uiso   1.00
H630   H     0.72419   0.80741   0.41668   0.00000  Uiso   1.00
H631   H     0.75711   0.81499   0.06149   0.00000  Uiso   1.00
H632   H     0.86110   0.89392   0.37620   0.00000  Uiso   1.00
H633   H     0.87423   0.96127   0.30305   0.00000  Uiso   1.00
N634   N     0.71426   0.83334   0.25001   0.00000  Uiso   1.00
N635   N     0.95239   0.83331   0.25000   0.00000  Uiso   1.00
O636   O     0.79512   0.89442   0.25000   0.00000  Uiso   1.00
O637   O     0.87157   0.89441   0.25000   0.00000  Uiso   1.00
O638   O     0.77613   0.83333   0.32681   0.00000  Uiso   1.00
O639   O     0.85258   0.83332   0.32681   0.00000  Uiso   1.00
O640   O     0.79510   0.77226   0.24999   0.00000  Uiso   1.00
O641   O     0.87154   0.77225   0.24999   0.00000  Uiso   1.00
O642   O     0.81409   0.83335   0.17319   0.00000  Uiso   1.00
O643   O     0.89053   0.83334   0.17319   0.00000  Uiso   1.00
Zn644  Zn    0.78229   0.83334   0.25000   0.00000  Uiso   1.00
Zn645  Zn    0.88438   0.83333   0.25000   0.00000  Uiso   1.00
O646   O     0.78213   0.95853   0.19285   0.00000  Uiso   1.00
C647   C     0.81037   0.95032   0.13857   0.00000  Uiso   1.00
H648   H     0.80215   0.91837   0.12756   0.00000  Uiso   1.00
H649   H     0.84959   0.95008   0.13122   0.00000  Uiso   1.00
C650   C     0.79725   0.98178   0.10208   0.00000  Uiso   1.00
H651   H     0.75792   0.98352   0.11193   0.00000  Uiso   1.00
H652   H     0.80939   0.67998   0.10890   0.00000  Uiso   1.00
C653   C     0.82018   0.96930   0.04283   0.00000  Uiso   1.00
H654   H     0.85955   0.96729   0.03197   0.00000  Uiso   1.00
H655   H     0.81074   0.99318   0.01759   0.00000  Uiso   1.00
H656   H     0.80700   0.93861   0.03437   0.00000  Uiso   1.00
S657   S     0.97352   0.75589   0.19218   0.00000  Uiso   1.00
O658   O     0.95260   0.72461   0.23473   0.00000  Uiso   1.00
O659   O     0.94042   0.76369   0.16087   0.00000  Uiso   1.00
O660   O     0.69111   0.73415   0.14977   0.00000  Uiso   1.00
H661   H     0.70691   0.75702   0.12615   0.00000  Uiso   1.00
S662   S     0.67956   0.79218   0.02875   0.00000  Uiso   1.00
O663   O     0.97853   0.79828   0.49841   0.00000  Uiso   1.00
O664   O     0.68517   0.74626   0.03731   0.00000  Uiso   1.00
O665   O     0.99204   0.81762   0.08863   0.00000  Uiso   1.00
H666   H     0.67115   0.84622   0.08222   0.00000  Uiso   1.00
C667   C     0.16627   0.24657   0.74984   0.00000  Uiso   1.00
C668   C     0.14478   0.17314   0.99142   0.00000  Uiso   1.00
C669   C     0.15308   0.18565   0.93823   0.00000  Uiso   1.00
C670   C     0.17975   0.18118   0.51549   0.00000  Uiso   1.00
C671   C     0.21766   0.20803   0.99058   0.00000  Uiso   1.00
C672   C     0.22194   0.22449   0.94063   0.00000  Uiso   1.00
C673   C     0.19031   0.21319   0.91449   0.00000  Uiso   1.00
C674   C     0.17805   0.16306   0.56374   0.00000  Uiso   1.00
C675   C     0.24355   0.20454   0.56835   0.00000  Uiso   1.00
C676   C     0.12373   0.17023   0.91018   0.00000  Uiso   1.00
C677   C     0.18978   0.31154   0.77941   0.00000  Uiso   1.00
C678   C     0.14035   0.16861   0.85175   0.00000  Uiso   1.00
C679   C     0.19014   0.02108   0.77975   0.00000  Uiso   1.00
C680   C     0.16711   0.04263   0.74955   0.00000  Uiso   1.00
C681   C     0.14206   0.02214   0.72060   0.00000  Uiso   1.00
C682   C     0.14166   0.31242   0.71978   0.00000  Uiso   1.00
C683   C     0.16557   0.29078   0.74967   0.00000  Uiso   1.00
C684   C     0.31906   0.13497   0.72405   0.00000  Uiso   1.00
C685   C     0.03297   0.13550   0.72484   0.00000  Uiso   1.00
C686   C     0.01557   0.19810   0.77538   0.00000  Uiso   1.00
C687   C     0.30112   0.19810   0.77540   0.00000  Uiso   1.00
C688   C     0.16694   0.08677   0.75006   0.00000  Uiso   1.00
C689   C     0.19289   0.16778   0.64831   0.00000  Uiso   1.00
C690   C     0.24964   0.21923   0.51708   0.00000  Uiso   1.00
C691   C     0.20775   0.17623   0.59142   0.00000  Uiso   1.00
C692   C     0.08094   0.15132   0.93788   0.00000  Uiso   1.00
C693   C     0.06877   0.14500   0.99267   0.00000  Uiso   1.00
C694   C     0.10117   0.15423   0.51901   0.00000  Uiso   1.00
H695   H     0.26518   0.21669   0.59080   0.00000  Uiso   1.00
H696   H     0.20741   0.03740   0.80426   0.00000  Uiso   1.00
H697   H     0.12296   0.03954   0.69876   0.00000  Uiso   1.00
H698   H     0.05839   0.11052   0.70596   0.00000  Uiso   1.00
H699   H     0.02682   0.22332   0.79585   0.00000  Uiso   1.00
H700   H     0.27658   0.22327   0.79591   0.00000  Uiso   1.00
H701   H     0.24996   0.24585   0.92156   0.00000  Uiso   1.00
H702   H     0.27775   0.24083   0.99932   0.00000  Uiso   1.00
H703   H     0.15242   0.13967   0.58193   0.00000  Uiso   1.00
H704   H     0.05753   0.14074   0.91668   0.00000  Uiso   1.00
H705   H     0.09044   0.14833   0.56149   0.00000  Uiso   1.00
H706   H     0.19444   0.22726   0.87620   0.00000  Uiso   1.00
H707   H     0.20756   0.29461   0.80305   0.00000  Uiso   1.00
N708   N     0.04760   0.16668   0.75001   0.00000  Uiso   1.00
N709   N     0.28573   0.16665   0.75000   0.00000  Uiso   1.00
O710   O     0.12846   0.22775   0.75000   0.00000  Uiso   1.00
O711   O     0.20490   0.22774   0.75000   0.00000  Uiso   1.00
O712   O     0.10947   0.16666   0.82681   0.00000  Uiso   1.00
O713   O     0.18591   0.16665   0.82681   0.00000  Uiso   1.00
O714   O     0.12843   0.10559   0.74999   0.00000  Uiso   1.00
O715   O     0.20488   0.10558   0.74999   0.00000  Uiso   1.00
O716   O     0.14742   0.16668   0.67319   0.00000  Uiso   1.00
O717   O     0.22387   0.16667   0.67319   0.00000  Uiso   1.00
Zn718  Zn    0.11562   0.16667   0.75000   0.00000  Uiso   1.00
Zn719  Zn    0.21771   0.16666   0.75000   0.00000  Uiso   1.00
O720   O     0.11546   0.29186   0.69285   0.00000  Uiso   1.00
C721   C     0.14370   0.28365   0.63857   0.00000  Uiso   1.00
H722   H     0.13548   0.25171   0.62756   0.00000  Uiso   1.00
H723   H     0.18292   0.28341   0.63122   0.00000  Uiso   1.00
C724   C     0.13058   0.31511   0.60208   0.00000  Uiso   1.00
H725   H     0.09126   0.31685   0.61193   0.00000  Uiso   1.00
H726   H     0.14272   0.01332   0.60890   0.00000  Uiso   1.00
C727   C     0.15351   0.30263   0.54283   0.00000  Uiso   1.00
H728   H     0.19288   0.30062   0.53197   0.00000  Uiso   1.00
H729   H     0.14408   0.32651   0.51759   0.00000  Uiso   1.00
H730   H     0.14033   0.27195   0.53437   0.00000  Uiso   1.00
S731   S     0.30686   0.08923   0.69218   0.00000  Uiso   1.00
O732   O     0.28594   0.05794   0.73473   0.00000  Uiso   1.00
O733   O     0.27375   0.09702   0.66087   0.00000  Uiso   1.00
O734   O     0.02444   0.06748   0.64977   0.00000  Uiso   1.00
H735   H     0.04025   0.09035   0.62615   0.00000  Uiso   1.00
S736   S     0.01289   0.12552   0.52875   0.00000  Uiso   1.00
O737   O     0.31186   0.13162   0.99841   0.00000  Uiso   1.00
O738   O     0.01850   0.07959   0.53731   0.00000  Uiso   1.00
O739   O     0.32537   0.15096   0.58863   0.00000  Uiso   1.00
H740   H     0.00448   0.17956   0.58222   0.00000  Uiso   1.00
C741   C     0.49960   0.24657   0.74984   0.00000  Uiso   1.00
C742   C     0.47812   0.17314   0.99142   0.00000  Uiso   1.00
C743   C     0.48642   0.18565   0.93823   0.00000  Uiso   1.00
C744   C     0.51308   0.18118   0.51549   0.00000  Uiso   1.00
C745   C     0.55099   0.20803   0.99058   0.00000  Uiso   1.00
C746   C     0.55528   0.22449   0.94063   0.00000  Uiso   1.00
C747   C     0.52364   0.21319   0.91449   0.00000  Uiso   1.00
C748   C     0.51138   0.16306   0.56374   0.00000  Uiso   1.00
C749   C     0.57689   0.20454   0.56835   0.00000  Uiso   1.00
C750   C     0.45706   0.17023   0.91018   0.00000  Uiso   1.00
C751   C     0.52311   0.31154   0.77941   0.00000  Uiso   1.00
C752   C     0.47368   0.16861   0.85175   0.00000  Uiso   1.00
C753   C     0.52347   0.02108   0.77975   0.00000  Uiso   1.00
C754   C     0.50044   0.04263   0.74955   0.00000  Uiso   1.00
C755   C     0.47539   0.02214   0.72060   0.00000  Uiso   1.00
C756   C     0.47499   0.31242   0.71978   0.00000  Uiso   1.00
C757   C     0.49891   0.29078   0.74967   0.00000  Uiso   1.00
C758   C     0.65240   0.13497   0.72405   0.00000  Uiso   1.00
C759   C     0.36630   0.13550   0.72484   0.00000  Uiso   1.00
C760   C     0.34890   0.19810   0.77538   0.00000  Uiso   1.00
C761   C     0.63445   0.19810   0.77540   0.00000  Uiso   1.00
C762   C     0.50027   0.08677   0.75006   0.00000  Uiso   1.00
C763   C     0.52622   0.16778   0.64831   0.00000  Uiso   1.00
C764   C     0.58297   0.21923   0.51708   0.00000  Uiso   1.00
C765   C     0.54109   0.17623   0.59142   0.00000  Uiso   1.00
C766   C     0.41428   0.15132   0.93788   0.00000  Uiso   1.00
C767   C     0.40210   0.14500   0.99267   0.00000  Uiso   1.00
C768   C     0.43450   0.15423   0.51901   0.00000  Uiso   1.00
H769   H     0.59852   0.21669   0.59080   0.00000  Uiso   1.00
H770   H     0.54074   0.03740   0.80426   0.00000  Uiso   1.00
H771   H     0.45629   0.03954   0.69876   0.00000  Uiso   1.00
H772   H     0.39173   0.11052   0.70596   0.00000  Uiso   1.00
H773   H     0.36015   0.22332   0.79585   0.00000  Uiso   1.00
H774   H     0.60992   0.22327   0.79591   0.00000  Uiso   1.00
H775   H     0.58329   0.24585   0.92156   0.00000  Uiso   1.00
H776   H     0.61108   0.24083   0.99932   0.00000  Uiso   1.00
H777   H     0.48575   0.13967   0.58193   0.00000  Uiso   1.00
H778   H     0.39086   0.14074   0.91668   0.00000  Uiso   1.00
H779   H     0.42378   0.14833   0.56149   0.00000  Uiso   1.00
H780   H     0.52777   0.22726   0.87620   0.00000  Uiso   1.00
H781   H     0.54090   0.29461   0.80305   0.00000  Uiso   1.00
N782   N     0.38093   0.16668   0.75001   0.00000  Uiso   1.00
N783   N     0.61906   0.16665   0.75000   0.00000  Uiso   1.00
O784   O     0.46179   0.22775   0.75000   0.00000  Uiso   1.00
O785   O     0.53823   0.22774   0.75000   0.00000  Uiso   1.00
O786   O     0.44280   0.16666   0.82681   0.00000  Uiso   1.00
O787   O     0.51924   0.16665   0.82681   0.00000  Uiso   1.00
O788   O     0.46177   0.10559   0.74999   0.00000  Uiso   1.00
O789   O     0.53821   0.10558   0.74999   0.00000  Uiso   1.00
O790   O     0.48076   0.16668   0.67319   0.00000  Uiso   1.00
O791   O     0.55720   0.16667   0.67319   0.00000  Uiso   1.00
Zn792  Zn    0.44896   0.16667   0.75000   0.00000  Uiso   1.00
Zn793  Zn    0.55104   0.16666   0.75000   0.00000  Uiso   1.00
O794   O     0.44880   0.29186   0.69285   0.00000  Uiso   1.00
C795   C     0.47704   0.28365   0.63857   0.00000  Uiso   1.00
H796   H     0.46882   0.25171   0.62756   0.00000  Uiso   1.00
H797   H     0.51625   0.28341   0.63122   0.00000  Uiso   1.00
C798   C     0.46391   0.31511   0.60208   0.00000  Uiso   1.00
H799   H     0.42459   0.31685   0.61193   0.00000  Uiso   1.00
H800   H     0.47606   0.01332   0.60890   0.00000  Uiso   1.00
C801   C     0.48684   0.30263   0.54283   0.00000  Uiso   1.00
H802   H     0.52621   0.30062   0.53197   0.00000  Uiso   1.00
H803   H     0.47741   0.32651   0.51759   0.00000  Uiso   1.00
H804   H     0.47366   0.27195   0.53437   0.00000  Uiso   1.00
S805   S     0.64019   0.08923   0.69218   0.00000  Uiso   1.00
O806   O     0.61927   0.05794   0.73473   0.00000  Uiso   1.00
O807   O     0.60709   0.09702   0.66087   0.00000  Uiso   1.00
O808   O     0.35777   0.06748   0.64977   0.00000  Uiso   1.00
H809   H     0.37358   0.09035   0.62615   0.00000  Uiso   1.00
S810   S     0.34623   0.12552   0.52875   0.00000  Uiso   1.00
O811   O     0.64520   0.13162   0.99841   0.00000  Uiso   1.00
O812   O     0.35183   0.07959   0.53731   0.00000  Uiso   1.00
O813   O     0.65870   0.15096   0.58863   0.00000  Uiso   1.00
H814   H     0.33781   0.17956   0.58222   0.00000  Uiso   1.00
C815   C     0.83293   0.24657   0.74984   0.00000  Uiso   1.00
C816   C     0.81145   0.17314   0.99142   0.00000  Uiso   1.00
C817   C     0.81975   0.18565   0.93823   0.00000  Uiso   1.00
C818   C     0.84642   0.18118   0.51549   0.00000  Uiso   1.00
C819   C     0.88433   0.20803   0.99058   0.00000  Uiso   1.00
C820   C     0.88861   0.22449   0.94063   0.00000  Uiso   1.00
C821   C     0.85698   0.21319   0.91449   0.00000  Uiso   1.00
C822   C     0.84472   0.16306   0.56374   0.00000  Uiso   1.00
C823   C     0.91022   0.20454   0.56835   0.00000  Uiso   1.00
C824   C     0.79040   0.17023   0.91018   0.00000  Uiso   1.00
C825   C     0.85645   0.31154   0.77941   0.00000  Uiso   1.00
C826   C     0.80701   0.16861   0.85175   0.00000  Uiso   1.00
C827   C     0.85681   0.02108   0.77975   0.00000  Uiso   1.00
C828   C     0.83377   0.04263   0.74955   0.00000  Uiso   1.00
C829   C     0.80872   0.02214   0.72060   0.00000  Uiso   1.00
C830   C     0.80832   0.31242   0.71978   0.00000  Uiso   1.00
C831   C     0.83224   0.29078   0.74967   0.00000  Uiso   1.00
C832   C     0.98573   0.13497   0.72405   0.00000  Uiso   1.00
C833   C     0.69963   0.13550   0.72484   0.00000  Uiso   1.00
C834   C     0.68224   0.19810   0.77538   0.00000  Uiso   1.00
C835   C     0.96779   0.19810   0.77540   0.00000  Uiso   1.00
C836   C     0.83360   0.08677   0.75006   0.00000  Uiso   1.00
C837   C     0.85955   0.16778   0.64831   0.00000  Uiso   1.00
C838   C     0.91631   0.21923   0.51708   0.00000  Uiso   1.00
C839   C     0.87442   0.17623   0.59142   0.00000  Uiso   1.00
C840   C     0.74761   0.15132   0.93788   0.00000  Uiso   1.00
C841   C     0.73544   0.14500   0.99267   0.00000  Uiso   1.00
C842   C     0.76783   0.15423   0.51901   0.00000  Uiso   1.00
H843   H     0.93185   0.21669   0.59080   0.00000  Uiso   1.00
H844   H     0.87407   0.03740   0.80426   0.00000  Uiso   1.00
H845   H     0.78962   0.03954   0.69876   0.00000  Uiso   1.00
H846   H     0.72506   0.11052   0.70596   0.00000  Uiso   1.00
H847   H     0.69349   0.22332   0.79585   0.00000  Uiso   1.00
H848   H     0.94325   0.22327   0.79591   0.00000  Uiso   1.00
H849   H     0.91663   0.24585   0.92156   0.00000  Uiso   1.00
H850   H     0.94442   0.24083   0.99932   0.00000  Uiso   1.00
H851   H     0.81908   0.13967   0.58193   0.00000  Uiso   1.00
H852   H     0.72419   0.14074   0.91668   0.00000  Uiso   1.00
H853   H     0.75711   0.14833   0.56149   0.00000  Uiso   1.00
H854   H     0.86110   0.22726   0.87620   0.00000  Uiso   1.00
H855   H     0.87423   0.29461   0.80305   0.00000  Uiso   1.00
N856   N     0.71426   0.16668   0.75001   0.00000  Uiso   1.00
N857   N     0.95239   0.16665   0.75000   0.00000  Uiso   1.00
O858   O     0.79512   0.22775   0.75000   0.00000  Uiso   1.00
O859   O     0.87157   0.22774   0.75000   0.00000  Uiso   1.00
O860   O     0.77613   0.16666   0.82681   0.00000  Uiso   1.00
O861   O     0.85258   0.16665   0.82681   0.00000  Uiso   1.00
O862   O     0.79510   0.10559   0.74999   0.00000  Uiso   1.00
O863   O     0.87154   0.10558   0.74999   0.00000  Uiso   1.00
O864   O     0.81409   0.16668   0.67319   0.00000  Uiso   1.00
O865   O     0.89053   0.16667   0.67319   0.00000  Uiso   1.00
Zn866  Zn    0.78229   0.16667   0.75000   0.00000  Uiso   1.00
Zn867  Zn    0.88438   0.16666   0.75000   0.00000  Uiso   1.00
O868   O     0.78213   0.29186   0.69285   0.00000  Uiso   1.00
C869   C     0.81037   0.28365   0.63857   0.00000  Uiso   1.00
H870   H     0.80215   0.25171   0.62756   0.00000  Uiso   1.00
H871   H     0.84959   0.28341   0.63122   0.00000  Uiso   1.00
C872   C     0.79725   0.31511   0.60208   0.00000  Uiso   1.00
H873   H     0.75792   0.31685   0.61193   0.00000  Uiso   1.00
H874   H     0.80939   0.01332   0.60890   0.00000  Uiso   1.00
C875   C     0.82018   0.30263   0.54283   0.00000  Uiso   1.00
H876   H     0.85955   0.30062   0.53197   0.00000  Uiso   1.00
H877   H     0.81074   0.32651   0.51759   0.00000  Uiso   1.00
H878   H     0.80700   0.27195   0.53437   0.00000  Uiso   1.00
S879   S     0.97352   0.08923   0.69218   0.00000  Uiso   1.00
O880   O     0.95260   0.05794   0.73473   0.00000  Uiso   1.00
O881   O     0.94042   0.09702   0.66087   0.00000  Uiso   1.00
O882   O     0.69111   0.06748   0.64977   0.00000  Uiso   1.00
H883   H     0.70691   0.09035   0.62615   0.00000  Uiso   1.00
S884   S     0.67956   0.12552   0.52875   0.00000  Uiso   1.00
O885   O     0.97853   0.13162   0.99841   0.00000  Uiso   1.00
O886   O     0.68517   0.07959   0.53731   0.00000  Uiso   1.00
O887   O     0.99204   0.15096   0.58863   0.00000  Uiso   1.00
H888   H     0.67115   0.17956   0.58222   0.00000  Uiso   1.00
C889   C     0.16627   0.57991   0.74984   0.00000  Uiso   1.00
C890   C     0.14478   0.50647   0.99142   0.00000  Uiso   1.00
C891   C     0.15308   0.51899   0.93823   0.00000  Uiso   1.00
C892   C     0.17975   0.51451   0.51549   0.00000  Uiso   1.00
C893   C     0.21766   0.54137   0.99058   0.00000  Uiso   1.00
C894   C     0.22194   0.55782   0.94063   0.00000  Uiso   1.00
C895   C     0.19031   0.54652   0.91449   0.00000  Uiso   1.00
C896   C     0.17805   0.49639   0.56374   0.00000  Uiso   1.00
C897   C     0.24355   0.53787   0.56835   0.00000  Uiso   1.00
C898   C     0.12373   0.50356   0.91018   0.00000  Uiso   1.00
C899   C     0.18978   0.64487   0.77941   0.00000  Uiso   1.00
C900   C     0.14035   0.50195   0.85175   0.00000  Uiso   1.00
C901   C     0.19014   0.35442   0.77975   0.00000  Uiso   1.00
C902   C     0.16711   0.37597   0.74955   0.00000  Uiso   1.00
C903   C     0.14206   0.35548   0.72060   0.00000  Uiso   1.00
C904   C     0.14166   0.64576   0.71978   0.00000  Uiso   1.00
C905   C     0.16557   0.62411   0.74967   0.00000  Uiso   1.00
C906   C     0.31906   0.46830   0.72405   0.00000  Uiso   1.00
C907   C     0.03297   0.46884   0.72484   0.00000  Uiso   1.00
C908   C     0.01557   0.53144   0.77538   0.00000  Uiso   1.00
C909   C     0.30112   0.53143   0.77540   0.00000  Uiso   1.00
C910   C     0.16694   0.42010   0.75006   0.00000  Uiso   1.00
C911   C     0.19289   0.50111   0.64831   0.00000  Uiso   1.00
C912   C     0.24964   0.55256   0.51708   0.00000  Uiso   1.00
C913   C     0.20775   0.50957   0.59142   0.00000  Uiso   1.00
C914   C     0.08094   0.48466   0.93788   0.00000  Uiso   1.00
C915   C     0.06877   0.47833   0.99267   0.00000  Uiso   1.00
C916   C     0.10117   0.48756   0.51901   0.00000  Uiso   1.00
H917   H     0.26518   0.55003   0.59080   0.00000  Uiso   1.00
H918   H     0.20741   0.37073   0.80426   0.00000  Uiso   1.00
H919   H     0.12296   0.37287   0.69876   0.00000  Uiso   1.00
H920   H     0.05839   0.44386   0.70596   0.00000  Uiso   1.00
H921   H     0.02682   0.55666   0.79585   0.00000  Uiso   1.00
H922   H     0.27658   0.55660   0.79591   0.00000  Uiso   1.00
H923   H     0.24996   0.57918   0.92156   0.00000  Uiso   1.00
H924   H     0.27775   0.57416   0.99932   0.00000  Uiso   1.00
H925   H     0.15242   0.47300   0.58193   0.00000  Uiso   1.00
H926   H     0.05753   0.47407   0.91668   0.00000  Uiso   1.00
H927   H     0.09044   0.48166   0.56149   0.00000  Uiso   1.00
H928   H     0.19444   0.56059   0.87620   0.00000  Uiso   1.00
H929   H     0.20756   0.62794   0.80305   0.00000  Uiso   1.00
N930   N     0.04760   0.50001   0.75001   0.00000  Uiso   1.00
N931   N     0.28573   0.49998   0.75000   0.00000  Uiso   1.00
O932   O     0.12846   0.56108   0.75000   0.00000  Uiso   1.00
O933   O     0.20490   0.56107   0.75000   0.00000  Uiso   1.00
O934   O     0.10947   0.50000   0.82681   0.00000  Uiso   1.00
O935   O     0.18591   0.49999   0.82681   0.00000  Uiso   1.00
O936   O     0.12843   0.43893   0.74999   0.00000  Uiso   1.00
O937   O     0.20488   0.43892   0.74999   0.00000  Uiso   1.00
O938   O     0.14742   0.50001   0.67319   0.00000  Uiso   1.00
O939   O     0.22387   0.50000   0.67319   0.00000  Uiso   1.00
Zn940  Zn    0.11562   0.50001   0.75000   0.00000  Uiso   1.00
Zn941  Zn    0.21771   0.49999   0.75000   0.00000  Uiso   1.00
O942   O     0.11546   0.62519   0.69285   0.00000  Uiso   1.00
C943   C     0.14370   0.61699   0.63857   0.00000  Uiso   1.00
H944   H     0.13548   0.58504   0.62756   0.00000  Uiso   1.00
H945   H     0.18292   0.61675   0.63122   0.00000  Uiso   1.00
C946   C     0.13058   0.64844   0.60208   0.00000  Uiso   1.00
H947   H     0.09126   0.65019   0.61193   0.00000  Uiso   1.00
H948   H     0.14272   0.34665   0.60890   0.00000  Uiso   1.00
C949   C     0.15351   0.63596   0.54283   0.00000  Uiso   1.00
H950   H     0.19288   0.63395   0.53197   0.00000  Uiso   1.00
H951   H     0.14408   0.65984   0.51759   0.00000  Uiso   1.00
H952   H     0.14033   0.60528   0.53437   0.00000  Uiso   1.00
S953   S     0.30686   0.42256   0.69218   0.00000  Uiso   1.00
O954   O     0.28594   0.39127   0.73473   0.00000  Uiso   1.00
O955   O     0.27375   0.43036   0.66087   0.00000  Uiso   1.00
O956   O     0.02444   0.40081   0.64977   0.00000  Uiso   1.00
H957   H     0.04025   0.42368   0.62615   0.00000  Uiso   1.00
S958   S     0.01289   0.45885   0.52875   0.00000  Uiso   1.00
O959   O     0.31186   0.46495   0.99841   0.00000  Uiso   1.00
O960   O     0.01850   0.41292   0.53731   0.00000  Uiso   1.00
O961   O     0.32537   0.48429   0.58863   0.00000  Uiso   1.00
H962   H     0.00448   0.51289   0.58222   0.00000  Uiso   1.00
C963   C     0.49960   0.57991   0.74984   0.00000  Uiso   1.00
C964   C     0.47812   0.50647   0.99142   0.00000  Uiso   1.00
C965   C     0.48642   0.51899   0.93823   0.00000  Uiso   1.00
C966   C     0.51308   0.51451   0.51549   0.00000  Uiso   1.00
C967   C     0.55099   0.54137   0.99058   0.00000  Uiso   1.00
C968   C     0.55528   0.55782   0.94063   0.00000  Uiso   1.00
C969   C     0.52364   0.54652   0.91449   0.00000  Uiso   1.00
C970   C     0.51138   0.49639   0.56374   0.00000  Uiso   1.00
C971   C     0.57689   0.53787   0.56835   0.00000  Uiso   1.00
C972   C     0.45706   0.50356   0.91018   0.00000  Uiso   1.00
C973   C     0.52311   0.64487   0.77941   0.00000  Uiso   1.00
C974   C     0.47368   0.50195   0.85175   0.00000  Uiso   1.00
C975   C     0.52347   0.35442   0.77975   0.00000  Uiso   1.00
C976   C     0.50044   0.37597   0.74955   0.00000  Uiso   1.00
C977   C     0.47539   0.35548   0.72060   0.00000  Uiso   1.00
C978   C     0.47499   0.64576   0.71978   0.00000  Uiso   1.00
C979   C     0.49891   0.62411   0.74967   0.00000  Uiso   1.00
C980   C     0.65240   0.46830   0.72405   0.00000  Uiso   1.00
C981   C     0.36630   0.46884   0.72484   0.00000  Uiso   1.00
C982   C     0.34890   0.53144   0.77538   0.00000  Uiso   1.00
C983   C     0.63445   0.53143   0.77540   0.00000  Uiso   1.00
C984   C     0.50027   0.42010   0.75006   0.00000  Uiso   1.00
C985   C     0.52622   0.50111   0.64831   0.00000  Uiso   1.00
C986   C     0.58297   0.55256   0.51708   0.00000  Uiso   1.00
C987   C     0.54109   0.50957   0.59142   0.00000  Uiso   1.00
C988   C     0.41428   0.48466   0.93788   0.00000  Uiso   1.00
C989   C     0.40210   0.47833   0.99267   0.00000  Uiso   1.00
C990   C     0.43450   0.48756   0.51901   0.00000  Uiso   1.00
H991   H     0.59852   0.55003   0.59080   0.00000  Uiso   1.00
H992   H     0.54074   0.37073   0.80426   0.00000  Uiso   1.00
H993   H     0.45629   0.37287   0.69876   0.00000  Uiso   1.00
H994   H     0.39173   0.44386   0.70596   0.00000  Uiso   1.00
H995   H     0.36015   0.55666   0.79585   0.00000  Uiso   1.00
H996   H     0.60992   0.55660   0.79591   0.00000  Uiso   1.00
H997   H     0.58329   0.57918   0.92156   0.00000  Uiso   1.00
H998   H     0.61108   0.57416   0.99932   0.00000  Uiso   1.00
H999   H     0.48575   0.47300   0.58193   0.00000  Uiso   1.00
H1000  H     0.39086   0.47407   0.91668   0.00000  Uiso   1.00
H1001  H     0.42378   0.48166   0.56149   0.00000  Uiso   1.00
H1002  H     0.52777   0.56059   0.87620   0.00000  Uiso   1.00
H1003  H     0.54090   0.62794   0.80305   0.00000  Uiso   1.00
N1004  N     0.38093   0.50001   0.75001   0.00000  Uiso   1.00
N1005  N     0.61906   0.49998   0.75000   0.00000  Uiso   1.00
O1006  O     0.46179   0.56108   0.75000   0.00000  Uiso   1.00
O1007  O     0.53823   0.56107   0.75000   0.00000  Uiso   1.00
O1008  O     0.44280   0.50000   0.82681   0.00000  Uiso   1.00
O1009  O     0.51924   0.49999   0.82681   0.00000  Uiso   1.00
O1010  O     0.46177   0.43893   0.74999   0.00000  Uiso   1.00
O1011  O     0.53821   0.43892   0.74999   0.00000  Uiso   1.00
O1012  O     0.48076   0.50001   0.67319   0.00000  Uiso   1.00
O1013  O     0.55720   0.50000   0.67319   0.00000  Uiso   1.00
Zn1014 Zn    0.44896   0.50001   0.75000   0.00000  Uiso   1.00
Zn1015 Zn    0.55104   0.49999   0.75000   0.00000  Uiso   1.00
O1016  O     0.44880   0.62519   0.69285   0.00000  Uiso   1.00
C1017  C     0.47704   0.61699   0.63857   0.00000  Uiso   1.00
H1018  H     0.46882   0.58504   0.62756   0.00000  Uiso   1.00
H1019  H     0.51625   0.61675   0.63122   0.00000  Uiso   1.00
C1020  C     0.46391   0.64844   0.60208   0.00000  Uiso   1.00
H1021  H     0.42459   0.65019   0.61193   0.00000  Uiso   1.00
H1022  H     0.47606   0.34665   0.60890   0.00000  Uiso   1.00
C1023  C     0.48684   0.63596   0.54283   0.00000  Uiso   1.00
H1024  H     0.52621   0.63395   0.53197   0.00000  Uiso   1.00
H1025  H     0.47741   0.65984   0.51759   0.00000  Uiso   1.00
H1026  H     0.47366   0.60528   0.53437   0.00000  Uiso   1.00
S1027  S     0.64019   0.42256   0.69218   0.00000  Uiso   1.00
O1028  O     0.61927   0.39127   0.73473   0.00000  Uiso   1.00
O1029  O     0.60709   0.43036   0.66087   0.00000  Uiso   1.00
O1030  O     0.35777   0.40081   0.64977   0.00000  Uiso   1.00
H1031  H     0.37358   0.42368   0.62615   0.00000  Uiso   1.00
S1032  S     0.34623   0.45885   0.52875   0.00000  Uiso   1.00
O1033  O     0.64520   0.46495   0.99841   0.00000  Uiso   1.00
O1034  O     0.35183   0.41292   0.53731   0.00000  Uiso   1.00
O1035  O     0.65870   0.48429   0.58863   0.00000  Uiso   1.00
H1036  H     0.33781   0.51289   0.58222   0.00000  Uiso   1.00
C1037  C     0.83293   0.57991   0.74984   0.00000  Uiso   1.00
C1038  C     0.81145   0.50647   0.99142   0.00000  Uiso   1.00
C1039  C     0.81975   0.51899   0.93823   0.00000  Uiso   1.00
C1040  C     0.84642   0.51451   0.51549   0.00000  Uiso   1.00
C1041  C     0.88433   0.54137   0.99058   0.00000  Uiso   1.00
C1042  C     0.88861   0.55782   0.94063   0.00000  Uiso   1.00
C1043  C     0.85698   0.54652   0.91449   0.00000  Uiso   1.00
C1044  C     0.84472   0.49639   0.56374   0.00000  Uiso   1.00
C1045  C     0.91022   0.53787   0.56835   0.00000  Uiso   1.00
C1046  C     0.79040   0.50356   0.91018   0.00000  Uiso   1.00
C1047  C     0.85645   0.64487   0.77941   0.00000  Uiso   1.00
C1048  C     0.80701   0.50195   0.85175   0.00000  Uiso   1.00
C1049  C     0.85681   0.35442   0.77975   0.00000  Uiso   1.00
C1050  C     0.83377   0.37597   0.74955   0.00000  Uiso   1.00
C1051  C     0.80872   0.35548   0.72060   0.00000  Uiso   1.00
C1052  C     0.80832   0.64576   0.71978   0.00000  Uiso   1.00
C1053  C     0.83224   0.62411   0.74967   0.00000  Uiso   1.00
C1054  C     0.98573   0.46830   0.72405   0.00000  Uiso   1.00
C1055  C     0.69963   0.46884   0.72484   0.00000  Uiso   1.00
C1056  C     0.68224   0.53144   0.77538   0.00000  Uiso   1.00
C1057  C     0.96779   0.53143   0.77540   0.00000  Uiso   1.00
C1058  C     0.83360   0.42010   0.75006   0.00000  Uiso   1.00
C1059  C     0.85955   0.50111   0.64831   0.00000  Uiso   1.00
C1060  C     0.91631   0.55256   0.51708   0.00000  Uiso   1.00
C1061  C     0.87442   0.50957   0.59142   0.00000  Uiso   1.00
C1062  C     0.74761   0.48466   0.93788   0.00000  Uiso   1.00
C1063  C     0.73544   0.47833   0.99267   0.00000  Uiso   1.00
C1064  C     0.76783   0.48756   0.51901   0.00000  Uiso   1.00
H1065  H     0.93185   0.55003   0.59080   0.00000  Uiso   1.00
H1066  H     0.87407   0.37073   0.80426   0.00000  Uiso   1.00
H1067  H     0.78962   0.37287   0.69876   0.00000  Uiso   1.00
H1068  H     0.72506   0.44386   0.70596   0.00000  Uiso   1.00
H1069  H     0.69349   0.55666   0.79585   0.00000  Uiso   1.00
H1070  H     0.94325   0.55660   0.79591   0.00000  Uiso   1.00
H1071  H     0.91663   0.57918   0.92156   0.00000  Uiso   1.00
H1072  H     0.94442   0.57416   0.99932   0.00000  Uiso   1.00
H1073  H     0.81908   0.47300   0.58193   0.00000  Uiso   1.00
H1074  H     0.72419   0.47407   0.91668   0.00000  Uiso   1.00
H1075  H     0.75711   0.48166   0.56149   0.00000  Uiso   1.00
H1076  H     0.86110   0.56059   0.87620   0.00000  Uiso   1.00
H1077  H     0.87423   0.62794   0.80305   0.00000  Uiso   1.00
N1078  N     0.71426   0.50001   0.75001   0.00000  Uiso   1.00
N1079  N     0.95239   0.49998   0.75000   0.00000  Uiso   1.00
O1080  O     0.79512   0.56108   0.75000   0.00000  Uiso   1.00
O1081  O     0.87157   0.56107   0.75000   0.00000  Uiso   1.00
O1082  O     0.77613   0.50000   0.82681   0.00000  Uiso   1.00
O1083  O     0.85258   0.49999   0.82681   0.00000  Uiso   1.00
O1084  O     0.79510   0.43893   0.74999   0.00000  Uiso   1.00
O1085  O     0.87154   0.43892   0.74999   0.00000  Uiso   1.00
O1086  O     0.81409   0.50001   0.67319   0.00000  Uiso   1.00
O1087  O     0.89053   0.50000   0.67319   0.00000  Uiso   1.00
Zn1088 Zn    0.78229   0.50001   0.75000   0.00000  Uiso   1.00
Zn1089 Zn    0.88438   0.49999   0.75000   0.00000  Uiso   1.00
O1090  O     0.78213   0.62519   0.69285   0.00000  Uiso   1.00
C1091  C     0.81037   0.61699   0.63857   0.00000  Uiso   1.00
H1092  H     0.80215   0.58504   0.62756   0.00000  Uiso   1.00
H1093  H     0.84959   0.61675   0.63122   0.00000  Uiso   1.00
C1094  C     0.79725   0.64844   0.60208   0.00000  Uiso   1.00
H1095  H     0.75792   0.65019   0.61193   0.00000  Uiso   1.00
H1096  H     0.80939   0.34665   0.60890   0.00000  Uiso   1.00
C1097  C     0.82018   0.63596   0.54283   0.00000  Uiso   1.00
H1098  H     0.85955   0.63395   0.53197   0.00000  Uiso   1.00
H1099  H     0.81074   0.65984   0.51759   0.00000  Uiso   1.00
H1100  H     0.80700   0.60528   0.53437   0.00000  Uiso   1.00
S1101  S     0.97352   0.42256   0.69218   0.00000  Uiso   1.00
O1102  O     0.95260   0.39127   0.73473   0.00000  Uiso   1.00
O1103  O     0.94042   0.43036   0.66087   0.00000  Uiso   1.00
O1104  O     0.69111   0.40081   0.64977   0.00000  Uiso   1.00
H1105  H     0.70691   0.42368   0.62615   0.00000  Uiso   1.00
S1106  S     0.67956   0.45885   0.52875   0.00000  Uiso   1.00
O1107  O     0.97853   0.46495   0.99841   0.00000  Uiso   1.00
O1108  O     0.68517   0.41292   0.53731   0.00000  Uiso   1.00
O1109  O     0.99204   0.48429   0.58863   0.00000  Uiso   1.00
H1110  H     0.67115   0.51289   0.58222   0.00000  Uiso   1.00
C1111  C     0.16627   0.91324   0.74984   0.00000  Uiso   1.00
C1112  C     0.14478   0.83980   0.99142   0.00000  Uiso   1.00
C1113  C     0.15308   0.85232   0.93823   0.00000  Uiso   1.00
C1114  C     0.17975   0.84785   0.51549   0.00000  Uiso   1.00
C1115  C     0.21766   0.87470   0.99058   0.00000  Uiso   1.00
C1116  C     0.22194   0.89115   0.94063   0.00000  Uiso   1.00
C1117  C     0.19031   0.87986   0.91449   0.00000  Uiso   1.00
C1118  C     0.17805   0.82972   0.56374   0.00000  Uiso   1.00
C1119  C     0.24355   0.87121   0.56835   0.00000  Uiso   1.00
C1120  C     0.12373   0.83690   0.91018   0.00000  Uiso   1.00
C1121  C     0.18978   0.97821   0.77941   0.00000  Uiso   1.00
C1122  C     0.14035   0.83528   0.85175   0.00000  Uiso   1.00
C1123  C     0.19014   0.68775   0.77975   0.00000  Uiso   1.00
C1124  C     0.16711   0.70930   0.74955   0.00000  Uiso   1.00
C1125  C     0.14206   0.68881   0.72060   0.00000  Uiso   1.00
C1126  C     0.14166   0.97909   0.71978   0.00000  Uiso   1.00
C1127  C     0.16557   0.95744   0.74967   0.00000  Uiso   1.00
C1128  C     0.31906   0.80163   0.72405   0.00000  Uiso   1.00
C1129  C     0.03297   0.80217   0.72484   0.00000  Uiso   1.00
C1130  C     0.01557   0.86477   0.77538   0.00000  Uiso   1.00
C1131  C     0.30112   0.86477   0.77540   0.00000  Uiso   1.00
C1132  C     0.16694   0.75344   0.75006   0.00000  Uiso   1.00
C1133  C     0.19289   0.83445   0.64831   0.00000  Uiso   1.00
C1134  C     0.24964   0.88590   0.51708   0.00000  Uiso   1.00
C1135  C     0.20775   0.84290   0.59142   0.00000  Uiso   1.00
C1136  C     0.08094   0.81799   0.93788   0.00000  Uiso   1.00
C1137  C     0.06877   0.81167   0.99267   0.00000  Uiso   1.00
C1138  C     0.10117   0.82089   0.51901   0.00000  Uiso   1.00
H1139  H     0.26518   0.88336   0.59080   0.00000  Uiso   1.00
H1140  H     0.20741   0.70407   0.80426   0.00000  Uiso   1.00
H1141  H     0.12296   0.70620   0.69876   0.00000  Uiso   1.00
H1142  H     0.05839   0.77719   0.70596   0.00000  Uiso   1.00
H1143  H     0.02682   0.88999   0.79585   0.00000  Uiso   1.00
H1144  H     0.27658   0.88993   0.79591   0.00000  Uiso   1.00
H1145  H     0.24996   0.91251   0.92156   0.00000  Uiso   1.00
H1146  H     0.27775   0.90749   0.99932   0.00000  Uiso   1.00
H1147  H     0.15242   0.80633   0.58193   0.00000  Uiso   1.00
H1148  H     0.05753   0.80741   0.91668   0.00000  Uiso   1.00
H1149  H     0.09044   0.81499   0.56149   0.00000  Uiso   1.00
H1150  H     0.19444   0.89392   0.87620   0.00000  Uiso   1.00
H1151  H     0.20756   0.96127   0.80305   0.00000  Uiso   1.00
N1152  N     0.04760   0.83334   0.75001   0.00000  Uiso   1.00
N1153  N     0.28573   0.83331   0.75000   0.00000  Uiso   1.00
O1154  O     0.12846   0.89442   0.75000   0.00000  Uiso   1.00
O1155  O     0.20490   0.89441   0.75000   0.00000  Uiso   1.00
O1156  O     0.10947   0.83333   0.82681   0.00000  Uiso   1.00
O1157  O     0.18591   0.83332   0.82681   0.00000  Uiso   1.00
O1158  O     0.12843   0.77226   0.74999   0.00000  Uiso   1.00
O1159  O     0.20488   0.77225   0.74999   0.00000  Uiso   1.00
O1160  O     0.14742   0.83335   0.67319   0.00000  Uiso   1.00
O1161  O     0.22387   0.83334   0.67319   0.00000  Uiso   1.00
Zn1162 Zn    0.11562   0.83334   0.75000   0.00000  Uiso   1.00
Zn1163 Zn    0.21771   0.83333   0.75000   0.00000  Uiso   1.00
O1164  O     0.11546   0.95853   0.69285   0.00000  Uiso   1.00
C1165  C     0.14370   0.95032   0.63857   0.00000  Uiso   1.00
H1166  H     0.13548   0.91837   0.62756   0.00000  Uiso   1.00
H1167  H     0.18292   0.95008   0.63122   0.00000  Uiso   1.00
C1168  C     0.13058   0.98178   0.60208   0.00000  Uiso   1.00
H1169  H     0.09126   0.98352   0.61193   0.00000  Uiso   1.00
H1170  H     0.14272   0.67998   0.60890   0.00000  Uiso   1.00
C1171  C     0.15351   0.96930   0.54283   0.00000  Uiso   1.00
H1172  H     0.19288   0.96729   0.53197   0.00000  Uiso   1.00
H1173  H     0.14408   0.99318   0.51759   0.00000  Uiso   1.00
H1174  H     0.14033   0.93861   0.53437   0.00000  Uiso   1.00
S1175  S     0.30686   0.75589   0.69218   0.00000  Uiso   1.00
O1176  O     0.28594   0.72461   0.73473   0.00000  Uiso   1.00
O1177  O     0.27375   0.76369   0.66087   0.00000  Uiso   1.00
O1178  O     0.02444   0.73415   0.64977   0.00000  Uiso   1.00
H1179  H     0.04025   0.75702   0.62615   0.00000  Uiso   1.00
S1180  S     0.01289   0.79218   0.52875   0.00000  Uiso   1.00
O1181  O     0.31186   0.79828   0.99841   0.00000  Uiso   1.00
O1182  O     0.01850   0.74626   0.53731   0.00000  Uiso   1.00
O1183  O     0.32537   0.81762   0.58863   0.00000  Uiso   1.00
H1184  H     0.00448   0.84622   0.58222   0.00000  Uiso   1.00
C1185  C     0.49960   0.91324   0.74984   0.00000  Uiso   1.00
C1186  C     0.47812   0.83980   0.99142   0.00000  Uiso   1.00
C1187  C     0.48642   0.85232   0.93823   0.00000  Uiso   1.00
C1188  C     0.51308   0.84785   0.51549   0.00000  Uiso   1.00
C1189  C     0.55099   0.87470   0.99058   0.00000  Uiso   1.00
C1190  C     0.55528   0.89115   0.94063   0.00000  Uiso   1.00
C1191  C     0.52364   0.87986   0.91449   0.00000  Uiso   1.00
C1192  C     0.51138   0.82972   0.56374   0.00000  Uiso   1.00
C1193  C     0.57689   0.87121   0.56835   0.00000  Uiso   1.00
C1194  C     0.45706   0.83690   0.91018   0.00000  Uiso   1.00
C1195  C     0.52311   0.97821   0.77941   0.00000  Uiso   1.00
C1196  C     0.47368   0.83528   0.85175   0.00000  Uiso   1.00
C1197  C     0.52347   0.68775   0.77975   0.00000  Uiso   1.00
C1198  C     0.50044   0.70930   0.74955   0.00000  Uiso   1.00
C1199  C     0.47539   0.68881   0.72060   0.00000  Uiso   1.00
C1200  C     0.47499   0.97909   0.71978   0.00000  Uiso   1.00
C1201  C     0.49891   0.95744   0.74967   0.00000  Uiso   1.00
C1202  C     0.65240   0.80163   0.72405   0.00000  Uiso   1.00
C1203  C     0.36630   0.80217   0.72484   0.00000  Uiso   1.00
C1204  C     0.34890   0.86477   0.77538   0.00000  Uiso   1.00
C1205  C     0.63445   0.86477   0.77540   0.00000  Uiso   1.00
C1206  C     0.50027   0.75344   0.75006   0.00000  Uiso   1.00
C1207  C     0.52622   0.83445   0.64831   0.00000  Uiso   1.00
C1208  C     0.58297   0.88590   0.51708   0.00000  Uiso   1.00
C1209  C     0.54109   0.84290   0.59142   0.00000  Uiso   1.00
C1210  C     0.41428   0.81799   0.93788   0.00000  Uiso   1.00
C1211  C     0.40210   0.81167   0.99267   0.00000  Uiso   1.00
C1212  C     0.43450   0.82089   0.51901   0.00000  Uiso   1.00
H1213  H     0.59852   0.88336   0.59080   0.00000  Uiso   1.00
H1214  H     0.54074   0.70407   0.80426   0.00000  Uiso   1.00
H1215  H     0.45629   0.70620   0.69876   0.00000  Uiso   1.00
H1216  H     0.39173   0.77719   0.70596   0.00000  Uiso   1.00
H1217  H     0.36015   0.88999   0.79585   0.00000  Uiso   1.00
H1218  H     0.60992   0.88993   0.79591   0.00000  Uiso   1.00
H1219  H     0.58329   0.91251   0.92156   0.00000  Uiso   1.00
H1220  H     0.61108   0.90749   0.99932   0.00000  Uiso   1.00
H1221  H     0.48575   0.80633   0.58193   0.00000  Uiso   1.00
H1222  H     0.39086   0.80741   0.91668   0.00000  Uiso   1.00
H1223  H     0.42378   0.81499   0.56149   0.00000  Uiso   1.00
H1224  H     0.52777   0.89392   0.87620   0.00000  Uiso   1.00
H1225  H     0.54090   0.96127   0.80305   0.00000  Uiso   1.00
N1226  N     0.38093   0.83334   0.75001   0.00000  Uiso   1.00
N1227  N     0.61906   0.83331   0.75000   0.00000  Uiso   1.00
O1228  O     0.46179   0.89442   0.75000   0.00000  Uiso   1.00
O1229  O     0.53823   0.89441   0.75000   0.00000  Uiso   1.00
O1230  O     0.44280   0.83333   0.82681   0.00000  Uiso   1.00
O1231  O     0.51924   0.83332   0.82681   0.00000  Uiso   1.00
O1232  O     0.46177   0.77226   0.74999   0.00000  Uiso   1.00
O1233  O     0.53821   0.77225   0.74999   0.00000  Uiso   1.00
O1234  O     0.48076   0.83335   0.67319   0.00000  Uiso   1.00
O1235  O     0.55720   0.83334   0.67319   0.00000  Uiso   1.00
Zn1236 Zn    0.44896   0.83334   0.75000   0.00000  Uiso   1.00
Zn1237 Zn    0.55104   0.83333   0.75000   0.00000  Uiso   1.00
O1238  O     0.44880   0.95853   0.69285   0.00000  Uiso   1.00
C1239  C     0.47704   0.95032   0.63857   0.00000  Uiso   1.00
H1240  H     0.46882   0.91837   0.62756   0.00000  Uiso   1.00
H1241  H     0.51625   0.95008   0.63122   0.00000  Uiso   1.00
C1242  C     0.46391   0.98178   0.60208   0.00000  Uiso   1.00
H1243  H     0.42459   0.98352   0.61193   0.00000  Uiso   1.00
H1244  H     0.47606   0.67998   0.60890   0.00000  Uiso   1.00
C1245  C     0.48684   0.96930   0.54283   0.00000  Uiso   1.00
H1246  H     0.52621   0.96729   0.53197   0.00000  Uiso   1.00
H1247  H     0.47741   0.99318   0.51759   0.00000  Uiso   1.00
H1248  H     0.47366   0.93861   0.53437   0.00000  Uiso   1.00
S1249  S     0.64019   0.75589   0.69218   0.00000  Uiso   1.00
O1250  O     0.61927   0.72461   0.73473   0.00000  Uiso   1.00
O1251  O     0.60709   0.76369   0.66087   0.00000  Uiso   1.00
O1252  O     0.35777   0.73415   0.64977   0.00000  Uiso   1.00
H1253  H     0.37358   0.75702   0.62615   0.00000  Uiso   1.00
S1254  S     0.34623   0.79218   0.52875   0.00000  Uiso   1.00
O1255  O     0.64520   0.79828   0.99841   0.00000  Uiso   1.00
O1256  O     0.35183   0.74626   0.53731   0.00000  Uiso   1.00
O1257  O     0.65870   0.81762   0.58863   0.00000  Uiso   1.00
H1258  H     0.33781   0.84622   0.58222   0.00000  Uiso   1.00
C1259  C     0.83293   0.91324   0.74984   0.00000  Uiso   1.00
C1260  C     0.81145   0.83980   0.99142   0.00000  Uiso   1.00
C1261  C     0.81975   0.85232   0.93823   0.00000  Uiso   1.00
C1262  C     0.84642   0.84785   0.51549   0.00000  Uiso   1.00
C1263  C     0.88433   0.87470   0.99058   0.00000  Uiso   1.00
C1264  C     0.88861   0.89115   0.94063   0.00000  Uiso   1.00
C1265  C     0.85698   0.87986   0.91449   0.00000  Uiso   1.00
C1266  C     0.84472   0.82972   0.56374   0.00000  Uiso   1.00
C1267  C     0.91022   0.87121   0.56835   0.00000  Uiso   1.00
C1268  C     0.79040   0.83690   0.91018   0.00000  Uiso   1.00
C1269  C     0.85645   0.97821   0.77941   0.00000  Uiso   1.00
C1270  C     0.80701   0.83528   0.85175   0.00000  Uiso   1.00
C1271  C     0.85681   0.68775   0.77975   0.00000  Uiso   1.00
C1272  C     0.83377   0.70930   0.74955   0.00000  Uiso   1.00
C1273  C     0.80872   0.68881   0.72060   0.00000  Uiso   1.00
C1274  C     0.80832   0.97909   0.71978   0.00000  Uiso   1.00
C1275  C     0.83224   0.95744   0.74967   0.00000  Uiso   1.00
C1276  C     0.98573   0.80163   0.72405   0.00000  Uiso   1.00
C1277  C     0.69963   0.80217   0.72484   0.00000  Uiso   1.00
C1278  C     0.68224   0.86477   0.77538   0.00000  Uiso   1.00
C1279  C     0.96779   0.86477   0.77540   0.00000  Uiso   1.00
C1280  C     0.83360   0.75344   0.75006   0.00000  Uiso   1.00
C1281  C     0.85955   0.83445   0.64831   0.00000  Uiso   1.00
C1282  C     0.91631   0.88590   0.51708   0.00000  Uiso   1.00
C1283  C     0.87442   0.84290   0.59142   0.00000  Uiso   1.00
C1284  C     0.74761   0.81799   0.93788   0.00000  Uiso   1.00
C1285  C     0.73544   0.81167   0.99267   0.00000  Uiso   1.00
C1286  C     0.76783   0.82089   0.51901   0.00000  Uiso   1.00
H1287  H     0.93185   0.88336   0.59080   0.00000  Uiso   1.00
H1288  H     0.87407   0.70407   0.80426   0.00000  Uiso   1.00
H1289  H     0.78962   0.70620   0.69876   0.00000  Uiso   1.00
H1290  H     0.72506   0.77719   0.70596   0.00000  Uiso   1.00
H1291  H     0.69349   0.88999   0.79585   0.00000  Uiso   1.00
H1292  H     0.94325   0.88993   0.79591   0.00000  Uiso   1.00
H1293  H     0.91663   0.91251   0.92156   0.00000  Uiso   1.00
H1294  H     0.94442   0.90749   0.99932   0.00000  Uiso   1.00
H1295  H     0.81908   0.80633   0.58193   0.00000  Uiso   1.00
H1296  H     0.72419   0.80741   0.91668   0.00000  Uiso   1.00
H1297  H     0.75711   0.81499   0.56149   0.00000  Uiso   1.00
H1298  H     0.86110   0.89392   0.87620   0.00000  Uiso   1.00
H1299  H     0.87423   0.96127   0.80305   0.00000  Uiso   1.00
N1300  N     0.71426   0.83334   0.75001   0.00000  Uiso   1.00
N1301  N     0.95239   0.83331   0.75000   0.00000  Uiso   1.00
O1302  O     0.79512   0.89442   0.75000   0.00000  Uiso   1.00
O1303  O     0.87157   0.89441   0.75000   0.00000  Uiso   1.00
O1304  O     0.77613   0.83333   0.82681   0.00000  Uiso   1.00
O1305  O     0.85258   0.83332   0.82681   0.00000  Uiso   1.00
O1306  O     0.79510   0.77226   0.74999   0.00000  Uiso   1.00
O1307  O     0.87154   0.77225   0.74999   0.00000  Uiso   1.00
O1308  O     0.81409   0.83335   0.67319   0.00000  Uiso   1.00
O1309  O     0.89053   0.83334   0.67319   0.00000  Uiso   1.00
Zn1310 Zn    0.78229   0.83334   0.75000   0.00000  Uiso   1.00
Zn1311 Zn    0.88438   0.83333   0.75000   0.00000  Uiso   1.00
O1312  O     0.78213   0.95853   0.69285   0.00000  Uiso   1.00
C1313  C     0.81037   0.95032   0.63857   0.00000  Uiso   1.00
H1314  H     0.80215   0.91837   0.62756   0.00000  Uiso   1.00
H1315  H     0.84959   0.95008   0.63122   0.00000  Uiso   1.00
C1316  C     0.79725   0.98178   0.60208   0.00000  Uiso   1.00
H1317  H     0.75792   0.98352   0.61193   0.00000  Uiso   1.00
H1318  H     0.80939   0.67998   0.60890   0.00000  Uiso   1.00
C1319  C     0.82018   0.96930   0.54283   0.00000  Uiso   1.00
H1320  H     0.85955   0.96729   0.53197   0.00000  Uiso   1.00
H1321  H     0.81074   0.99318   0.51759   0.00000  Uiso   1.00
H1322  H     0.80700   0.93861   0.53437   0.00000  Uiso   1.00
S1323  S     0.97352   0.75589   0.69218   0.00000  Uiso   1.00
O1324  O     0.95260   0.72461   0.73473   0.00000  Uiso   1.00
O1325  O     0.94042   0.76369   0.66087   0.00000  Uiso   1.00
O1326  O     0.69111   0.73415   0.64977   0.00000  Uiso   1.00
H1327  H     0.70691   0.75702   0.62615   0.00000  Uiso   1.00
S1328  S     0.67956   0.79218   0.52875   0.00000  Uiso   1.00
O1329  O     0.97853   0.79828   0.99841   0.00000  Uiso   1.00
O1330  O     0.68517   0.74626   0.53731   0.00000  Uiso   1.00
O1331  O     0.99204   0.81762   0.58863   0.00000  Uiso   1.00
H1332  H     0.67115   0.84622   0.58222   0.00000  Uiso   1.00
loop_
_geom_bond_atom_site_label_1
_geom_bond_atom_site_label_2
_geom_bond_distance
_geom_bond_site_symmetry_2
_ccdc_geom_bond_type
C1     O44     1.287   .     A
C1     O45     1.286   .     A
C1     C17     1.412   .     S
C2     C3      1.407   .     A
C2     C670    1.412   .     S
C2     C694    1.416   .     S
C3     C10     1.410   .     A
C3     C7      1.414   .     A
C4     C8      1.392   .     A
C4     C668    1.412   1_554 S
C4     C671    1.419   1_554 S
C5     C6      1.393   .     A
C5     C670    1.419   .     S
C5     C690    1.403   .     S
C6     H35     1.084   .     S
C6     C7      1.388   .     A
C7     H40     1.082   .     S
C8     C25     1.387   .     A
C8     H37     1.080   .     S
C9     C24     1.393   .     A
C9     H29     1.082   .     S
C9     C25     1.399   .     A
C10    C12     1.453   .     S
C10    C26     1.399   .     A
C11    H41     1.084   .     S
C11    C17     1.397   .     A
C11    C235    1.370   .     S
C12    O47     1.297   .     A
C12    O46     1.296   .     A
C13    C14     1.390   .     A
C13    H30     1.083   .     S
C13    C455    1.370   1_545 S
C14    C15     1.396   .     A
C14    C22     1.410   .     S
C15    H31     1.084   .     S
C15    C460    1.376   1_545 S
C16    O54     1.385   .     S
C16    C17     1.403   .     A
C16    C237    1.376   .     S
C18    N43     1.400   .     A
C18    S65     1.777   .     S
C18    C93     1.413   .     S
C19    N42     1.346   .     A
C19    H32     1.080   .     S
C19    C166    1.413   1_455 S
C20    H33     1.082   .     S
C20    N42     1.370   .     A
C20    C169    1.422   1_455 S
C21    H34     1.082   .     S
C21    N43     1.367   .     A
C21    C94     1.422   .     S
C22    O48     1.282   .     A
C22    O49     1.291   .     A
C23    O51     1.296   .     A
C23    C25     1.448   .     S
C23    O50     1.296   .     A
C24    C671    1.403   1_554 S
C24    H702    1.084   1_554 S
C26    H38     1.083   .     S
C26    C27     1.387   .     A
C27    C694    1.395   .     S
C27    S736    1.755   .     S
C28    H39     1.079   .     S
C28    C693    1.395   1_554 S
C28    C668    1.416   1_554 S
H36    C690    1.084   .     S
N42    Zn52    2.024   .     S
N43    Zn53    2.024   .     S
O44    Zn52    1.997   .     S
O45    Zn53    1.980   .     S
O46    Zn52    1.971   .     S
O47    Zn53    1.931   .     S
O48    Zn52    1.980   .     S
O49    Zn53    1.997   .     S
O50    Zn52    1.931   .     S
O51    Zn53    1.971   .     S
O54    C55     1.416   .     S
C55    H57     1.118   .     S
C55    H56     1.111   .     S
C55    C58     1.532   .     S
C58    C61     1.525   .     S
C58    H59     1.112   .     S
C58    H282    1.110   .     S
H60    C502    1.110   1_545 S
C61    H64     1.111   .     S
C61    H62     1.111   .     S
C61    H63     1.110   .     S
S65    O66     1.499   .     D
S65    O67     1.498   .     D
S65    O142    1.684   .     S
O68    H69     0.990   .     S
O68    S213    1.684   1_455 S
S70    O72     1.502   .     D
S70    C693    1.755   1_554 S
S70    O885    1.503   1_454 S
S70    O221    1.680   1_455 S
O71    S810    1.503   .     S
O73    S144    1.680   .     S
O73    H148    0.990   .     S
H74    O221    0.990   1_455 S
C75    O118    1.287   .     A
C75    O119    1.286   .     A
C75    C91     1.412   .     S
C76    C77     1.407   .     A
C76    C744    1.412   .     S
C76    C768    1.416   .     S
C77    C84     1.410   .     A
C77    C81     1.414   .     A
C78    C82     1.392   .     A
C78    C742    1.412   1_554 S
C78    C745    1.419   1_554 S
C79    C80     1.393   .     A
C79    C744    1.419   .     S
C79    C764    1.403   .     S
C80    H109    1.084   .     S
C80    C81     1.388   .     A
C81    H114    1.082   .     S
C82    C99     1.387   .     A
C82    H111    1.080   .     S
C83    C98     1.393   .     A
C83    H103    1.082   .     S
C83    C99     1.399   .     A
C84    C86     1.453   .     S
C84    C100    1.399   .     A
C85    H115    1.084   .     S
C85    C91     1.397   .     A
C85    C309    1.370   .     S
C86    O121    1.297   .     A
C86    O120    1.296   .     A
C87    C88     1.390   .     A
C87    H104    1.083   .     S
C87    C529    1.370   1_545 S
C88    C89     1.396   .     A
C88    C96     1.410   .     S
C89    H105    1.084   .     S
C89    C534    1.376   1_545 S
C90    O128    1.385   .     S
C90    C91     1.403   .     A
C90    C311    1.376   .     S
C92    N117    1.400   .     A
C92    S139    1.777   .     S
C92    C167    1.413   .     S
C93    N116    1.346   .     A
C93    H106    1.080   .     S
C94    H107    1.082   .     S
C94    N116    1.370   .     A
C95    H108    1.082   .     S
C95    N117    1.367   .     A
C95    C168    1.422   .     S
C96    O122    1.282   .     A
C96    O123    1.291   .     A
C97    O125    1.296   .     A
C97    C99     1.448   .     S
C97    O124    1.296   .     A
C98    C745    1.403   1_554 S
C98    H776    1.084   1_554 S
C100   H112    1.083   .     S
C100   C101    1.387   .     A
C101   C768    1.395   .     S
C101   S810    1.755   .     S
C102   H113    1.079   .     S
C102   C767    1.395   1_554 S
C102   C742    1.416   1_554 S
H110   C764    1.084   .     S
N116   Zn126   2.024   .     S
N117   Zn127   2.024   .     S
O118   Zn126   1.997   .     S
O119   Zn127   1.980   .     S
O120   Zn126   1.971   .     S
O121   Zn127   1.931   .     S
O122   Zn126   1.980   .     S
O123   Zn127   1.997   .     S
O124   Zn126   1.931   .     S
O125   Zn127   1.971   .     S
O128   C129    1.416   .     S
C129   H131    1.118   .     S
C129   H130    1.111   .     S
C129   C132    1.532   .     S
C132   C135    1.525   .     S
C132   H133    1.112   .     S
C132   H356    1.110   .     S
H134   C576    1.110   1_545 S
C135   H138    1.111   .     S
C135   H136    1.111   .     S
C135   H137    1.110   .     S
S139   O140    1.499   .     D
S139   O141    1.498   .     D
S139   O216    1.684   .     S
O142   H143    0.990   .     S
S144   O146    1.502   .     D
S144   C767    1.755   1_554 S
S144   O737    1.503   1_554 S
O145   S884    1.503   .     S
O147   S218    1.680   .     S
O147   H222    0.990   .     S
C149   O192    1.287   .     A
C149   O193    1.286   .     A
C149   C165    1.412   .     S
C150   C151    1.407   .     A
C150   C818    1.412   .     S
C150   C842    1.416   .     S
C151   C158    1.410   .     A
C151   C155    1.414   .     A
C152   C156    1.392   .     A
C152   C816    1.412   1_554 S
C152   C819    1.419   1_554 S
C153   C154    1.393   .     A
C153   C818    1.419   .     S
C153   C838    1.403   .     S
C154   H183    1.084   .     S
C154   C155    1.388   .     A
C155   H188    1.082   .     S
C156   C173    1.387   .     A
C156   H185    1.080   .     S
C157   C172    1.393   .     A
C157   H177    1.082   .     S
C157   C173    1.399   .     A
C158   C160    1.453   .     S
C158   C174    1.399   .     A
C159   H189    1.084   .     S
C159   C165    1.397   .     A
C159   C383    1.370   .     S
C160   O195    1.297   .     A
C160   O194    1.296   .     A
C161   C162    1.390   .     A
C161   H178    1.083   .     S
C161   C603    1.370   1_545 S
C162   C163    1.396   .     A
C162   C170    1.410   .     S
C163   H179    1.084   .     S
C163   C608    1.376   1_545 S
C164   O202    1.385   .     S
C164   C165    1.403   .     A
C164   C385    1.376   .     S
C166   N191    1.400   .     A
C166   S213    1.777   .     S
C166   C19     1.413   1_655 S
C167   N190    1.346   .     A
C167   H180    1.080   .     S
C168   H181    1.082   .     S
C168   N190    1.370   .     A
C169   H182    1.082   .     S
C169   N191    1.367   .     A
C169   C20     1.422   1_655 S
C170   O196    1.282   .     A
C170   O197    1.291   .     A
C171   O199    1.296   .     A
C171   C173    1.448   .     S
C171   O198    1.296   .     A
C172   C819    1.403   1_554 S
C172   H850    1.084   1_554 S
C174   H186    1.083   .     S
C174   C175    1.387   .     A
C175   C842    1.395   .     S
C175   S884    1.755   .     S
C176   H187    1.079   .     S
C176   C841    1.395   1_554 S
C176   C816    1.416   1_554 S
H184   C838    1.084   .     S
N190   Zn200   2.024   .     S
N191   Zn201   2.024   .     S
O192   Zn200   1.997   .     S
O193   Zn201   1.980   .     S
O194   Zn200   1.971   .     S
O195   Zn201   1.931   .     S
O196   Zn200   1.980   .     S
O197   Zn201   1.997   .     S
O198   Zn200   1.931   .     S
O199   Zn201   1.971   .     S
O202   C203    1.416   .     S
C203   H205    1.118   .     S
C203   H204    1.111   .     S
C203   C206    1.532   .     S
C206   C209    1.525   .     S
C206   H207    1.112   .     S
C206   H430    1.110   .     S
H208   C650    1.110   1_545 S
C209   H212    1.111   .     S
C209   H210    1.111   .     S
C209   H211    1.110   .     S
S213   O214    1.499   .     D
S213   O215    1.498   .     D
S213   O68     1.684   1_655 S
O216   H217    0.990   .     S
S218   O220    1.502   .     D
S218   C841    1.755   1_554 S
S218   O811    1.503   1_554 S
O219   S736    1.503   1_655 S
O221   S70     1.680   1_655 S
O221   H74     0.990   1_655 S
C223   O266    1.287   .     A
C223   O267    1.286   .     A
C223   C239    1.412   .     S
C224   C225    1.407   .     A
C224   C892    1.412   .     S
C224   C916    1.416   .     S
C225   C232    1.410   .     A
C225   C229    1.414   .     A
C226   C230    1.392   .     A
C226   C890    1.412   1_554 S
C226   C893    1.419   1_554 S
C227   C228    1.393   .     A
C227   C892    1.419   .     S
C227   C912    1.403   .     S
C228   H257    1.084   .     S
C228   C229    1.388   .     A
C229   H262    1.082   .     S
C230   C247    1.387   .     A
C230   H259    1.080   .     S
C231   C246    1.393   .     A
C231   H251    1.082   .     S
C231   C247    1.399   .     A
C232   C234    1.453   .     S
C232   C248    1.399   .     A
C233   H263    1.084   .     S
C233   C239    1.397   .     A
C233   C457    1.370   .     S
C234   O269    1.297   .     A
C234   O268    1.296   .     A
C235   C236    1.390   .     A
C235   H252    1.083   .     S
C236   C237    1.396   .     A
C236   C244    1.410   .     S
C237   H253    1.084   .     S
C238   O276    1.385   .     S
C238   C239    1.403   .     A
C238   C459    1.376   .     S
C240   N265    1.400   .     A
C240   S287    1.777   .     S
C240   C315    1.413   .     S
C241   N264    1.346   .     A
C241   H254    1.080   .     S
C241   C388    1.413   1_455 S
C242   H255    1.082   .     S
C242   N264    1.370   .     A
C242   C391    1.422   1_455 S
C243   H256    1.082   .     S
C243   N265    1.367   .     A
C243   C316    1.422   .     S
C244   O270    1.282   .     A
C244   O271    1.291   .     A
C245   O273    1.296   .     A
C245   C247    1.448   .     S
C245   O272    1.296   .     A
C246   C893    1.403   1_554 S
C246   H924    1.084   1_554 S
C248   H260    1.083   .     S
C248   C249    1.387   .     A
C249   C916    1.395   .     S
C249   S958    1.755   .     S
C250   H261    1.079   .     S
C250   C915    1.395   1_554 S
C250   C890    1.416   1_554 S
H258   C912    1.084   .     S
N264   Zn274   2.024   .     S
N265   Zn275   2.024   .     S
O266   Zn274   1.997   .     S
O267   Zn275   1.980   .     S
O268   Zn274   1.971   .     S
O269   Zn275   1.931   .     S
O270   Zn274   1.980   .     S
O271   Zn275   1.997   .     S
O272   Zn274   1.931   .     S
O273   Zn275   1.971   .     S
O276   C277    1.416   .     S
C277   H279    1.118   .     S
C277   H278    1.111   .     S
C277   C280    1.532   .     S
C280   C283    1.525   .     S
C280   H281    1.112   .     S
C280   H504    1.110   .     S
C283   H286    1.111   .     S
C283   H284    1.111   .     S
C283   H285    1.110   .     S
S287   O288    1.499   .     D
S287   O289    1.498   .     D
S287   O364    1.684   .     S
O290   H291    0.990   .     S
O290   S435    1.684   1_455 S
S292   O294    1.502   .     D
S292   C915    1.755   1_554 S
S292   O1107   1.503   1_454 S
S292   O443    1.680   1_455 S
O293   S1032   1.503   .     S
O295   S366    1.680   .     S
O295   H370    0.990   .     S
H296   O443    0.990   1_455 S
C297   O340    1.287   .     A
C297   O341    1.286   .     A
C297   C313    1.412   .     S
C298   C299    1.407   .     A
C298   C966    1.412   .     S
C298   C990    1.416   .     S
C299   C306    1.410   .     A
C299   C303    1.414   .     A
C300   C304    1.392   .     A
C300   C964    1.412   1_554 S
C300   C967    1.419   1_554 S
C301   C302    1.393   .     A
C301   C966    1.419   .     S
C301   C986    1.403   .     S
C302   H331    1.084   .     S
C302   C303    1.388   .     A
C303   H336    1.082   .     S
C304   C321    1.387   .     A
C304   H333    1.080   .     S
C305   C320    1.393   .     A
C305   H325    1.082   .     S
C305   C321    1.399   .     A
C306   C308    1.453   .     S
C306   C322    1.399   .     A
C307   H337    1.084   .     S
C307   C313    1.397   .     A
C307   C531    1.370   .     S
C308   O343    1.297   .     A
C308   O342    1.296   .     A
C309   C310    1.390   .     A
C309   H326    1.083   .     S
C310   C311    1.396   .     A
C310   C318    1.410   .     S
C311   H327    1.084   .     S
C312   O350    1.385   .     S
C312   C313    1.403   .     A
C312   C533    1.376   .     S
C314   N339    1.400   .     A
C314   S361    1.777   .     S
C314   C389    1.413   .     S
C315   N338    1.346   .     A
C315   H328    1.080   .     S
C316   H329    1.082   .     S
C316   N338    1.370   .     A
C317   H330    1.082   .     S
C317   N339    1.367   .     A
C317   C390    1.422   .     S
C318   O344    1.282   .     A
C318   O345    1.291   .     A
C319   O347    1.296   .     A
C319   C321    1.448   .     S
C319   O346    1.296   .     A
C320   C967    1.403   1_554 S
C320   H998    1.084   1_554 S
C322   H334    1.083   .     S
C322   C323    1.387   .     A
C323   C990    1.395   .     S
C323   S1032   1.755   .     S
C324   H335    1.079   .     S
C324   C989    1.395   1_554 S
C324   C964    1.416   1_554 S
H332   C986    1.084   .     S
N338   Zn348   2.024   .     S
N339   Zn349   2.024   .     S
O340   Zn348   1.997   .     S
O341   Zn349   1.980   .     S
O342   Zn348   1.971   .     S
O343   Zn349   1.931   .     S
O344   Zn348   1.980   .     S
O345   Zn349   1.997   .     S
O346   Zn348   1.931   .     S
O347   Zn349   1.971   .     S
O350   C351    1.416   .     S
C351   H353    1.118   .     S
C351   H352    1.111   .     S
C351   C354    1.532   .     S
C354   C357    1.525   .     S
C354   H355    1.112   .     S
C354   H578    1.110   .     S
C357   H360    1.111   .     S
C357   H358    1.111   .     S
C357   H359    1.110   .     S
S361   O362    1.499   .     D
S361   O363    1.498   .     D
S361   O438    1.684   .     S
O364   H365    0.990   .     S
S366   O368    1.502   .     D
S366   C989    1.755   1_554 S
S366   O959    1.503   1_554 S
O367   S1106   1.503   .     S
O369   S440    1.680   .     S
O369   H444    0.990   .     S
C371   O414    1.287   .     A
C371   O415    1.286   .     A
C371   C387    1.412   .     S
C372   C373    1.407   .     A
C372   C1040   1.412   .     S
C372   C1064   1.416   .     S
C373   C380    1.410   .     A
C373   C377    1.414   .     A
C374   C378    1.392   .     A
C374   C1038   1.412   1_554 S
C374   C1041   1.419   1_554 S
C375   C376    1.393   .     A
C375   C1040   1.419   .     S
C375   C1060   1.403   .     S
C376   H405    1.084   .     S
C376   C377    1.388   .     A
C377   H410    1.082   .     S
C378   C395    1.387   .     A
C378   H407    1.080   .     S
C379   C394    1.393   .     A
C379   H399    1.082   .     S
C379   C395    1.399   .     A
C380   C382    1.453   .     S
C380   C396    1.399   .     A
C381   H411    1.084   .     S
C381   C387    1.397   .     A
C381   C605    1.370   .     S
C382   O417    1.297   .     A
C382   O416    1.296   .     A
C383   C384    1.390   .     A
C383   H400    1.083   .     S
C384   C385    1.396   .     A
C384   C392    1.410   .     S
C385   H401    1.084   .     S
C386   O424    1.385   .     S
C386   C387    1.403   .     A
C386   C607    1.376   .     S
C388   N413    1.400   .     A
C388   S435    1.777   .     S
C388   C241    1.413   1_655 S
C389   N412    1.346   .     A
C389   H402    1.080   .     S
C390   H403    1.082   .     S
C390   N412    1.370   .     A
C391   H404    1.082   .     S
C391   N413    1.367   .     A
C391   C242    1.422   1_655 S
C392   O418    1.282   .     A
C392   O419    1.291   .     A
C393   O421    1.296   .     A
C393   C395    1.448   .     S
C393   O420    1.296   .     A
C394   C1041   1.403   1_554 S
C394   H1072   1.084   1_554 S
C396   H408    1.083   .     S
C396   C397    1.387   .     A
C397   C1064   1.395   .     S
C397   S1106   1.755   .     S
C398   H409    1.079   .     S
C398   C1063   1.395   1_554 S
C398   C1038   1.416   1_554 S
H406   C1060   1.084   .     S
N412   Zn422   2.024   .     S
N413   Zn423   2.024   .     S
O414   Zn422   1.997   .     S
O415   Zn423   1.980   .     S
O416   Zn422   1.971   .     S
O417   Zn423   1.931   .     S
O418   Zn422   1.980   .     S
O419   Zn423   1.997   .     S
O420   Zn422   1.931   .     S
O421   Zn423   1.971   .     S
O424   C425    1.416   .     S
C425   H427    1.118   .     S
C425   H426    1.111   .     S
C425   C428    1.532   .     S
C428   C431    1.525   .     S
C428   H429    1.112   .     S
C428   H652    1.110   .     S
C431   H434    1.111   .     S
C431   H432    1.111   .     S
C431   H433    1.110   .     S
S435   O436    1.499   .     D
S435   O437    1.498   .     D
S435   O290    1.684   1_655 S
O438   H439    0.990   .     S
S440   O442    1.502   .     D
S440   C1063   1.755   1_554 S
S440   O1033   1.503   1_554 S
O441   S958    1.503   1_655 S
O443   S292    1.680   1_655 S
O443   H296    0.990   1_655 S
C445   O488    1.287   .     A
C445   O489    1.286   .     A
C445   C461    1.412   .     S
C446   C447    1.407   .     A
C446   C1114   1.412   .     S
C446   C1138   1.416   .     S
C447   C454    1.410   .     A
C447   C451    1.414   .     A
C448   C452    1.392   .     A
C448   C1112   1.412   1_554 S
C448   C1115   1.419   1_554 S
C449   C450    1.393   .     A
C449   C1114   1.419   .     S
C449   C1134   1.403   .     S
C450   H479    1.084   .     S
C450   C451    1.388   .     A
C451   H484    1.082   .     S
C452   C469    1.387   .     A
C452   H481    1.080   .     S
C453   C468    1.393   .     A
C453   H473    1.082   .     S
C453   C469    1.399   .     A
C454   C456    1.453   .     S
C454   C470    1.399   .     A
C455   H485    1.084   .     S
C455   C461    1.397   .     A
C455   C13     1.370   1_565 S
C456   O491    1.297   .     A
C456   O490    1.296   .     A
C457   C458    1.390   .     A
C457   H474    1.083   .     S
C458   C459    1.396   .     A
C458   C466    1.410   .     S
C459   H475    1.084   .     S
C460   O498    1.385   .     S
C460   C461    1.403   .     A
C460   C15     1.376   1_565 S
C462   N487    1.400   .     A
C462   S509    1.777   .     S
C462   C537    1.413   .     S
C463   N486    1.346   .     A
C463   H476    1.080   .     S
C463   C610    1.413   1_455 S
C464   H477    1.082   .     S
C464   N486    1.370   .     A
C464   C613    1.422   1_455 S
C465   H478    1.082   .     S
C465   N487    1.367   .     A
C465   C538    1.422   .     S
C466   O492    1.282   .     A
C466   O493    1.291   .     A
C467   O495    1.296   .     A
C467   C469    1.448   .     S
C467   O494    1.296   .     A
C468   C1115   1.403   1_554 S
C468   H1146   1.084   1_554 S
C470   H482    1.083   .     S
C470   C471    1.387   .     A
C471   C1138   1.395   .     S
C471   S1180   1.755   .     S
C472   H483    1.079   .     S
C472   C1137   1.395   1_554 S
C472   C1112   1.416   1_554 S
H480   C1134   1.084   .     S
N486   Zn496   2.024   .     S
N487   Zn497   2.024   .     S
O488   Zn496   1.997   .     S
O489   Zn497   1.980   .     S
O490   Zn496   1.971   .     S
O491   Zn497   1.931   .     S
O492   Zn496   1.980   .     S
O493   Zn497   1.997   .     S
O494   Zn496   1.931   .     S
O495   Zn497   1.971   .     S
O498   C499    1.416   .     S
C499   H501    1.118   .     S
C499   H500    1.111   .     S
C499   C502    1.532   .     S
C502   C505    1.525   .     S
C502   H503    1.112   .     S
C502   H60     1.110   1_565 S
C505   H508    1.111   .     S
C505   H506    1.111   .     S
C505   H507    1.110   .     S
S509   O510    1.499   .     D
S509   O511    1.498   .     D
S509   O586    1.684   .     S
O512   H513    0.990   .     S
O512   S657    1.684   1_455 S
S514   O516    1.502   .     D
S514   C1137   1.755   1_554 S
S514   O1329   1.503   1_454 S
S514   O665    1.680   1_455 S
O515   S1254   1.503   .     S
O517   S588    1.680   .     S
O517   H592    0.990   .     S
H518   O665    0.990   1_455 S
C519   O562    1.287   .     A
C519   O563    1.286   .     A
C519   C535    1.412   .     S
C520   C521    1.407   .     A
C520   C1188   1.412   .     S
C520   C1212   1.416   .     S
C521   C528    1.410   .     A
C521   C525    1.414   .     A
C522   C526    1.392   .     A
C522   C1186   1.412   1_554 S
C522   C1189   1.419   1_554 S
C523   C524    1.393   .     A
C523   C1188   1.419   .     S
C523   C1208   1.403   .     S
C524   H553    1.084   .     S
C524   C525    1.388   .     A
C525   H558    1.082   .     S
C526   C543    1.387   .     A
C526   H555    1.080   .     S
C527   C542    1.393   .     A
C527   H547    1.082   .     S
C527   C543    1.399   .     A
C528   C530    1.453   .     S
C528   C544    1.399   .     A
C529   H559    1.084   .     S
C529   C535    1.397   .     A
C529   C87     1.370   1_565 S
C530   O565    1.297   .     A
C530   O564    1.296   .     A
C531   C532    1.390   .     A
C531   H548    1.083   .     S
C532   C533    1.396   .     A
C532   C540    1.410   .     S
C533   H549    1.084   .     S
C534   O572    1.385   .     S
C534   C535    1.403   .     A
C534   C89     1.376   1_565 S
C536   N561    1.400   .     A
C536   S583    1.777   .     S
C536   C611    1.413   .     S
C537   N560    1.346   .     A
C537   H550    1.080   .     S
C538   H551    1.082   .     S
C538   N560    1.370   .     A
C539   H552    1.082   .     S
C539   N561    1.367   .     A
C539   C612    1.422   .     S
C540   O566    1.282   .     A
C540   O567    1.291   .     A
C541   O569    1.296   .     A
C541   C543    1.448   .     S
C541   O568    1.296   .     A
C542   C1189   1.403   1_554 S
C542   H1220   1.084   1_554 S
C544   H556    1.083   .     S
C544   C545    1.387   .     A
C545   C1212   1.395   .     S
C545   S1254   1.755   .     S
C546   H557    1.079   .     S
C546   C1211   1.395   1_554 S
C546   C1186   1.416   1_554 S
H554   C1208   1.084   .     S
N560   Zn570   2.024   .     S
N561   Zn571   2.024   .     S
O562   Zn570   1.997   .     S
O563   Zn571   1.980   .     S
O564   Zn570   1.971   .     S
O565   Zn571   1.931   .     S
O566   Zn570   1.980   .     S
O567   Zn571   1.997   .     S
O568   Zn570   1.931   .     S
O569   Zn571   1.971   .     S
O572   C573    1.416   .     S
C573   H575    1.118   .     S
C573   H574    1.111   .     S
C573   C576    1.532   .     S
C576   C579    1.525   .     S
C576   H577    1.112   .     S
C576   H134    1.110   1_565 S
C579   H582    1.111   .     S
C579   H580    1.111   .     S
C579   H581    1.110   .     S
S583   O584    1.499   .     D
S583   O585    1.498   .     D
S583   O660    1.684   .     S
O586   H587    0.990   .     S
S588   O590    1.502   .     D
S588   C1211   1.755   1_554 S
S588   O1181   1.503   1_554 S
O589   S1328   1.503   .     S
O591   S662    1.680   .     S
O591   H666    0.990   .     S
C593   O636    1.287   .     A
C593   O637    1.286   .     A
C593   C609    1.412   .     S
C594   C595    1.407   .     A
C594   C1262   1.412   .     S
C594   C1286   1.416   .     S
C595   C602    1.410   .     A
C595   C599    1.414   .     A
C596   C600    1.392   .     A
C596   C1260   1.412   1_554 S
C596   C1263   1.419   1_554 S
C597   C598    1.393   .     A
C597   C1262   1.419   .     S
C597   C1282   1.403   .     S
C598   H627    1.084   .     S
C598   C599    1.388   .     A
C599   H632    1.082   .     S
C600   C617    1.387   .     A
C600   H629    1.080   .     S
C601   C616    1.393   .     A
C601   H621    1.082   .     S
C601   C617    1.399   .     A
C602   C604    1.453   .     S
C602   C618    1.399   .     A
C603   H633    1.084   .     S
C603   C609    1.397   .     A
C603   C161    1.370   1_565 S
C604   O639    1.297   .     A
C604   O638    1.296   .     A
C605   C606    1.390   .     A
C605   H622    1.083   .     S
C606   C607    1.396   .     A
C606   C614    1.410   .     S
C607   H623    1.084   .     S
C608   O646    1.385   .     S
C608   C609    1.403   .     A
C608   C163    1.376   1_565 S
C610   N635    1.400   .     A
C610   S657    1.777   .     S
C610   C463    1.413   1_655 S
C611   N634    1.346   .     A
C611   H624    1.080   .     S
C612   H625    1.082   .     S
C612   N634    1.370   .     A
C613   H626    1.082   .     S
C613   N635    1.367   .     A
C613   C464    1.422   1_655 S
C614   O640    1.282   .     A
C614   O641    1.291   .     A
C615   O643    1.296   .     A
C615   C617    1.448   .     S
C615   O642    1.296   .     A
C616   C1263   1.403   1_554 S
C616   H1294   1.084   1_554 S
C618   H630    1.083   .     S
C618   C619    1.387   .     A
C619   C1286   1.395   .     S
C619   S1328   1.755   .     S
C620   H631    1.079   .     S
C620   C1285   1.395   1_554 S
C620   C1260   1.416   1_554 S
H628   C1282   1.084   .     S
N634   Zn644   2.024   .     S
N635   Zn645   2.024   .     S
O636   Zn644   1.997   .     S
O637   Zn645   1.980   .     S
O638   Zn644   1.971   .     S
O639   Zn645   1.931   .     S
O640   Zn644   1.980   .     S
O641   Zn645   1.997   .     S
O642   Zn644   1.931   .     S
O643   Zn645   1.971   .     S
O646   C647    1.416   .     S
C647   H649    1.118   .     S
C647   H648    1.111   .     S
C647   C650    1.532   .     S
C650   C653    1.525   .     S
C650   H651    1.112   .     S
C650   H208    1.110   1_565 S
C653   H656    1.111   .     S
C653   H654    1.111   .     S
C653   H655    1.110   .     S
S657   O658    1.499   .     D
S657   O659    1.498   .     D
S657   O512    1.684   1_655 S
O660   H661    0.990   .     S
S662   O664    1.502   .     D
S662   C1285   1.755   1_554 S
S662   O1255   1.503   1_554 S
O663   S1180   1.503   1_655 S
O665   S514    1.680   1_655 S
O665   H518    0.990   1_655 S
C667   O710    1.287   .     A
C667   O711    1.286   .     A
C667   C683    1.412   .     S
C668   C669    1.407   .     A
C668   C4      1.412   1_556 S
C668   C28     1.416   1_556 S
C669   C676    1.410   .     A
C669   C673    1.414   .     A
C670   C674    1.392   .     A
C671   C672    1.393   .     A
C671   C4      1.419   1_556 S
C671   C24     1.403   1_556 S
C672   H701    1.084   .     S
C672   C673    1.388   .     A
C673   H706    1.082   .     S
C674   C691    1.387   .     A
C674   H703    1.080   .     S
C675   C690    1.393   .     A
C675   H695    1.082   .     S
C675   C691    1.399   .     A
C676   C678    1.453   .     S
C676   C692    1.399   .     A
C677   H707    1.084   .     S
C677   C683    1.397   .     A
C677   C901    1.370   .     S
C678   O713    1.297   .     A
C678   O712    1.296   .     A
C679   C680    1.390   .     A
C679   H696    1.083   .     S
C679   C1121   1.370   1_545 S
C680   C681    1.396   .     A
C680   C688    1.410   .     S
C681   H697    1.084   .     S
C681   C1126   1.376   1_545 S
C682   O720    1.385   .     S
C682   C683    1.403   .     A
C682   C903    1.376   .     S
C684   N709    1.400   .     A
C684   S731    1.777   .     S
C684   C759    1.413   .     S
C685   N708    1.346   .     A
C685   H698    1.080   .     S
C685   C832    1.413   1_455 S
C686   H699    1.082   .     S
C686   N708    1.370   .     A
C686   C835    1.422   1_455 S
C687   H700    1.082   .     S
C687   N709    1.367   .     A
C687   C760    1.422   .     S
C688   O714    1.282   .     A
C688   O715    1.291   .     A
C689   O717    1.296   .     A
C689   C691    1.448   .     S
C689   O716    1.296   .     A
C692   H704    1.083   .     S
C692   C693    1.387   .     A
C693   C28     1.395   1_556 S
C693   S70     1.755   1_556 S
C694   H705    1.079   .     S
H702   C24     1.084   1_556 S
N708   Zn718   2.024   .     S
N709   Zn719   2.024   .     S
O710   Zn718   1.997   .     S
O711   Zn719   1.980   .     S
O712   Zn718   1.971   .     S
O713   Zn719   1.931   .     S
O714   Zn718   1.980   .     S
O715   Zn719   1.997   .     S
O716   Zn718   1.931   .     S
O717   Zn719   1.971   .     S
O720   C721    1.416   .     S
C721   H723    1.118   .     S
C721   H722    1.111   .     S
C721   C724    1.532   .     S
C724   C727    1.525   .     S
C724   H725    1.112   .     S
C724   H948    1.110   .     S
H726   C1168   1.110   1_545 S
C727   H730    1.111   .     S
C727   H728    1.111   .     S
C727   H729    1.110   .     S
S731   O732    1.499   .     D
S731   O733    1.498   .     D
S731   O808    1.684   .     S
O734   H735    0.990   .     S
O734   S879    1.684   1_455 S
S736   O738    1.502   .     D
S736   O219    1.503   1_455 S
S736   O887    1.680   1_455 S
O737   S144    1.503   1_556 S
O739   S810    1.680   .     S
O739   H814    0.990   .     S
H740   O887    0.990   1_455 S
C741   O784    1.287   .     A
C741   O785    1.286   .     A
C741   C757    1.412   .     S
C742   C743    1.407   .     A
C742   C78     1.412   1_556 S
C742   C102    1.416   1_556 S
C743   C750    1.410   .     A
C743   C747    1.414   .     A
C744   C748    1.392   .     A
C745   C746    1.393   .     A
C745   C78     1.419   1_556 S
C745   C98     1.403   1_556 S
C746   H775    1.084   .     S
C746   C747    1.388   .     A
C747   H780    1.082   .     S
C748   C765    1.387   .     A
C748   H777    1.080   .     S
C749   C764    1.393   .     A
C749   H769    1.082   .     S
C749   C765    1.399   .     A
C750   C752    1.453   .     S
C750   C766    1.399   .     A
C751   H781    1.084   .     S
C751   C757    1.397   .     A
C751   C975    1.370   .     S
C752   O787    1.297   .     A
C752   O786    1.296   .     A
C753   C754    1.390   .     A
C753   H770    1.083   .     S
C753   C1195   1.370   1_545 S
C754   C755    1.396   .     A
C754   C762    1.410   .     S
C755   H771    1.084   .     S
C755   C1200   1.376   1_545 S
C756   O794    1.385   .     S
C756   C757    1.403   .     A
C756   C977    1.376   .     S
C758   N783    1.400   .     A
C758   S805    1.777   .     S
C758   C833    1.413   .     S
C759   N782    1.346   .     A
C759   H772    1.080   .     S
C760   H773    1.082   .     S
C760   N782    1.370   .     A
C761   H774    1.082   .     S
C761   N783    1.367   .     A
C761   C834    1.422   .     S
C762   O788    1.282   .     A
C762   O789    1.291   .     A
C763   O791    1.296   .     A
C763   C765    1.448   .     S
C763   O790    1.296   .     A
C766   H778    1.083   .     S
C766   C767    1.387   .     A
C767   C102    1.395   1_556 S
C767   S144    1.755   1_556 S
C768   H779    1.079   .     S
H776   C98     1.084   1_556 S
N782   Zn792   2.024   .     S
N783   Zn793   2.024   .     S
O784   Zn792   1.997   .     S
O785   Zn793   1.980   .     S
O786   Zn792   1.971   .     S
O787   Zn793   1.931   .     S
O788   Zn792   1.980   .     S
O789   Zn793   1.997   .     S
O790   Zn792   1.931   .     S
O791   Zn793   1.971   .     S
O794   C795    1.416   .     S
C795   H797    1.118   .     S
C795   H796    1.111   .     S
C795   C798    1.532   .     S
C798   C801    1.525   .     S
C798   H799    1.112   .     S
C798   H1022   1.110   .     S
H800   C1242   1.110   1_545 S
C801   H804    1.111   .     S
C801   H802    1.111   .     S
C801   H803    1.110   .     S
S805   O806    1.499   .     D
S805   O807    1.498   .     D
S805   O882    1.684   .     S
O808   H809    0.990   .     S
S810   O812    1.502   .     D
O811   S218    1.503   1_556 S
O813   S884    1.680   .     S
O813   H888    0.990   .     S
C815   O858    1.287   .     A
C815   O859    1.286   .     A
C815   C831    1.412   .     S
C816   C817    1.407   .     A
C816   C152    1.412   1_556 S
C816   C176    1.416   1_556 S
C817   C824    1.410   .     A
C817   C821    1.414   .     A
C818   C822    1.392   .     A
C819   C820    1.393   .     A
C819   C152    1.419   1_556 S
C819   C172    1.403   1_556 S
C820   H849    1.084   .     S
C820   C821    1.388   .     A
C821   H854    1.082   .     S
C822   C839    1.387   .     A
C822   H851    1.080   .     S
C823   C838    1.393   .     A
C823   H843    1.082   .     S
C823   C839    1.399   .     A
C824   C826    1.453   .     S
C824   C840    1.399   .     A
C825   H855    1.084   .     S
C825   C831    1.397   .     A
C825   C1049   1.370   .     S
C826   O861    1.297   .     A
C826   O860    1.296   .     A
C827   C828    1.390   .     A
C827   H844    1.083   .     S
C827   C1269   1.370   1_545 S
C828   C829    1.396   .     A
C828   C836    1.410   .     S
C829   H845    1.084   .     S
C829   C1274   1.376   1_545 S
C830   O868    1.385   .     S
C830   C831    1.403   .     A
C830   C1051   1.376   .     S
C832   N857    1.400   .     A
C832   S879    1.777   .     S
C832   C685    1.413   1_655 S
C833   N856    1.346   .     A
C833   H846    1.080   .     S
C834   H847    1.082   .     S
C834   N856    1.370   .     A
C835   H848    1.082   .     S
C835   N857    1.367   .     A
C835   C686    1.422   1_655 S
C836   O862    1.282   .     A
C836   O863    1.291   .     A
C837   O865    1.296   .     A
C837   C839    1.448   .     S
C837   O864    1.296   .     A
C840   H852    1.083   .     S
C840   C841    1.387   .     A
C841   C176    1.395   1_556 S
C841   S218    1.755   1_556 S
C842   H853    1.079   .     S
H850   C172    1.084   1_556 S
N856   Zn866   2.024   .     S
N857   Zn867   2.024   .     S
O858   Zn866   1.997   .     S
O859   Zn867   1.980   .     S
O860   Zn866   1.971   .     S
O861   Zn867   1.931   .     S
O862   Zn866   1.980   .     S
O863   Zn867   1.997   .     S
O864   Zn866   1.931   .     S
O865   Zn867   1.971   .     S
O868   C869    1.416   .     S
C869   H871    1.118   .     S
C869   H870    1.111   .     S
C869   C872    1.532   .     S
C872   C875    1.525   .     S
C872   H873    1.112   .     S
C872   H1096   1.110   .     S
H874   C1316   1.110   1_545 S
C875   H878    1.111   .     S
C875   H876    1.111   .     S
C875   H877    1.110   .     S
S879   O880    1.499   .     D
S879   O881    1.498   .     D
S879   O734    1.684   1_655 S
O882   H883    0.990   .     S
S884   O886    1.502   .     D
O885   S70     1.503   1_656 S
O887   S736    1.680   1_655 S
O887   H740    0.990   1_655 S
C889   O932    1.287   .     A
C889   O933    1.286   .     A
C889   C905    1.412   .     S
C890   C891    1.407   .     A
C890   C226    1.412   1_556 S
C890   C250    1.416   1_556 S
C891   C898    1.410   .     A
C891   C895    1.414   .     A
C892   C896    1.392   .     A
C893   C894    1.393   .     A
C893   C226    1.419   1_556 S
C893   C246    1.403   1_556 S
C894   H923    1.084   .     S
C894   C895    1.388   .     A
C895   H928    1.082   .     S
C896   C913    1.387   .     A
C896   H925    1.080   .     S
C897   C912    1.393   .     A
C897   H917    1.082   .     S
C897   C913    1.399   .     A
C898   C900    1.453   .     S
C898   C914    1.399   .     A
C899   H929    1.084   .     S
C899   C905    1.397   .     A
C899   C1123   1.370   .     S
C900   O935    1.297   .     A
C900   O934    1.296   .     A
C901   C902    1.390   .     A
C901   H918    1.083   .     S
C902   C903    1.396   .     A
C902   C910    1.410   .     S
C903   H919    1.084   .     S
C904   O942    1.385   .     S
C904   C905    1.403   .     A
C904   C1125   1.376   .     S
C906   N931    1.400   .     A
C906   S953    1.777   .     S
C906   C981    1.413   .     S
C907   N930    1.346   .     A
C907   H920    1.080   .     S
C907   C1054   1.413   1_455 S
C908   H921    1.082   .     S
C908   N930    1.370   .     A
C908   C1057   1.422   1_455 S
C909   H922    1.082   .     S
C909   N931    1.367   .     A
C909   C982    1.422   .     S
C910   O936    1.282   .     A
C910   O937    1.291   .     A
C911   O939    1.296   .     A
C911   C913    1.448   .     S
C911   O938    1.296   .     A
C914   H926    1.083   .     S
C914   C915    1.387   .     A
C915   C250    1.395   1_556 S
C915   S292    1.755   1_556 S
C916   H927    1.079   .     S
H924   C246    1.084   1_556 S
N930   Zn940   2.024   .     S
N931   Zn941   2.024   .     S
O932   Zn940   1.997   .     S
O933   Zn941   1.980   .     S
O934   Zn940   1.971   .     S
O935   Zn941   1.931   .     S
O936   Zn940   1.980   .     S
O937   Zn941   1.997   .     S
O938   Zn940   1.931   .     S
O939   Zn941   1.971   .     S
O942   C943    1.416   .     S
C943   H945    1.118   .     S
C943   H944    1.111   .     S
C943   C946    1.532   .     S
C946   C949    1.525   .     S
C946   H947    1.112   .     S
C946   H1170   1.110   .     S
C949   H952    1.111   .     S
C949   H950    1.111   .     S
C949   H951    1.110   .     S
S953   O954    1.499   .     D
S953   O955    1.498   .     D
S953   O1030   1.684   .     S
O956   H957    0.990   .     S
O956   S1101   1.684   1_455 S
S958   O960    1.502   .     D
S958   O441    1.503   1_455 S
S958   O1109   1.680   1_455 S
O959   S366    1.503   1_556 S
O961   S1032   1.680   .     S
O961   H1036   0.990   .     S
H962   O1109   0.990   1_455 S
C963   O1006   1.287   .     A
C963   O1007   1.286   .     A
C963   C979    1.412   .     S
C964   C965    1.407   .     A
C964   C300    1.412   1_556 S
C964   C324    1.416   1_556 S
C965   C972    1.410   .     A
C965   C969    1.414   .     A
C966   C970    1.392   .     A
C967   C968    1.393   .     A
C967   C300    1.419   1_556 S
C967   C320    1.403   1_556 S
C968   H997    1.084   .     S
C968   C969    1.388   .     A
C969   H1002   1.082   .     S
C970   C987    1.387   .     A
C970   H999    1.080   .     S
C971   C986    1.393   .     A
C971   H991    1.082   .     S
C971   C987    1.399   .     A
C972   C974    1.453   .     S
C972   C988    1.399   .     A
C973   H1003   1.084   .     S
C973   C979    1.397   .     A
C973   C1197   1.370   .     S
C974   O1009   1.297   .     A
C974   O1008   1.296   .     A
C975   C976    1.390   .     A
C975   H992    1.083   .     S
C976   C977    1.396   .     A
C976   C984    1.410   .     S
C977   H993    1.084   .     S
C978   O1016   1.385   .     S
C978   C979    1.403   .     A
C978   C1199   1.376   .     S
C980   N1005   1.400   .     A
C980   S1027   1.777   .     S
C980   C1055   1.413   .     S
C981   N1004   1.346   .     A
C981   H994    1.080   .     S
C982   H995    1.082   .     S
C982   N1004   1.370   .     A
C983   H996    1.082   .     S
C983   N1005   1.367   .     A
C983   C1056   1.422   .     S
C984   O1010   1.282   .     A
C984   O1011   1.291   .     A
C985   O1013   1.296   .     A
C985   C987    1.448   .     S
C985   O1012   1.296   .     A
C988   H1000   1.083   .     S
C988   C989    1.387   .     A
C989   C324    1.395   1_556 S
C989   S366    1.755   1_556 S
C990   H1001   1.079   .     S
H998   C320    1.084   1_556 S
N1004  Zn1014  2.024   .     S
N1005  Zn1015  2.024   .     S
O1006  Zn1014  1.997   .     S
O1007  Zn1015  1.980   .     S
O1008  Zn1014  1.971   .     S
O1009  Zn1015  1.931   .     S
O1010  Zn1014  1.980   .     S
O1011  Zn1015  1.997   .     S
O1012  Zn1014  1.931   .     S
O1013  Zn1015  1.971   .     S
O1016  C1017   1.416   .     S
C1017  H1019   1.118   .     S
C1017  H1018   1.111   .     S
C1017  C1020   1.532   .     S
C1020  C1023   1.525   .     S
C1020  H1021   1.112   .     S
C1020  H1244   1.110   .     S
C1023  H1026   1.111   .     S
C1023  H1024   1.111   .     S
C1023  H1025   1.110   .     S
S1027  O1028   1.499   .     D
S1027  O1029   1.498   .     D
S1027  O1104   1.684   .     S
O1030  H1031   0.990   .     S
S1032  O1034   1.502   .     D
O1033  S440    1.503   1_556 S
O1035  S1106   1.680   .     S
O1035  H1110   0.990   .     S
C1037  O1080   1.287   .     A
C1037  O1081   1.286   .     A
C1037  C1053   1.412   .     S
C1038  C1039   1.407   .     A
C1038  C374    1.412   1_556 S
C1038  C398    1.416   1_556 S
C1039  C1046   1.410   .     A
C1039  C1043   1.414   .     A
C1040  C1044   1.392   .     A
C1041  C1042   1.393   .     A
C1041  C374    1.419   1_556 S
C1041  C394    1.403   1_556 S
C1042  H1071   1.084   .     S
C1042  C1043   1.388   .     A
C1043  H1076   1.082   .     S
C1044  C1061   1.387   .     A
C1044  H1073   1.080   .     S
C1045  C1060   1.393   .     A
C1045  H1065   1.082   .     S
C1045  C1061   1.399   .     A
C1046  C1048   1.453   .     S
C1046  C1062   1.399   .     A
C1047  H1077   1.084   .     S
C1047  C1053   1.397   .     A
C1047  C1271   1.370   .     S
C1048  O1083   1.297   .     A
C1048  O1082   1.296   .     A
C1049  C1050   1.390   .     A
C1049  H1066   1.083   .     S
C1050  C1051   1.396   .     A
C1050  C1058   1.410   .     S
C1051  H1067   1.084   .     S
C1052  O1090   1.385   .     S
C1052  C1053   1.403   .     A
C1052  C1273   1.376   .     S
C1054  N1079   1.400   .     A
C1054  S1101   1.777   .     S
C1054  C907    1.413   1_655 S
C1055  N1078   1.346   .     A
C1055  H1068   1.080   .     S
C1056  H1069   1.082   .     S
C1056  N1078   1.370   .     A
C1057  H1070   1.082   .     S
C1057  N1079   1.367   .     A
C1057  C908    1.422   1_655 S
C1058  O1084   1.282   .     A
C1058  O1085   1.291   .     A
C1059  O1087   1.296   .     A
C1059  C1061   1.448   .     S
C1059  O1086   1.296   .     A
C1062  H1074   1.083   .     S
C1062  C1063   1.387   .     A
C1063  C398    1.395   1_556 S
C1063  S440    1.755   1_556 S
C1064  H1075   1.079   .     S
H1072  C394    1.084   1_556 S
N1078  Zn1088  2.024   .     S
N1079  Zn1089  2.024   .     S
O1080  Zn1088  1.997   .     S
O1081  Zn1089  1.980   .     S
O1082  Zn1088  1.971   .     S
O1083  Zn1089  1.931   .     S
O1084  Zn1088  1.980   .     S
O1085  Zn1089  1.997   .     S
O1086  Zn1088  1.931   .     S
O1087  Zn1089  1.971   .     S
O1090  C1091   1.416   .     S
C1091  H1093   1.118   .     S
C1091  H1092   1.111   .     S
C1091  C1094   1.532   .     S
C1094  C1097   1.525   .     S
C1094  H1095   1.112   .     S
C1094  H1318   1.110   .     S
C1097  H1100   1.111   .     S
C1097  H1098   1.111   .     S
C1097  H1099   1.110   .     S
S1101  O1102   1.499   .     D
S1101  O1103   1.498   .     D
S1101  O956    1.684   1_655 S
O1104  H1105   0.990   .     S
S1106  O1108   1.502   .     D
O1107  S292    1.503   1_656 S
O1109  S958    1.680   1_655 S
O1109  H962    0.990   1_655 S
C1111  O1154   1.287   .     A
C1111  O1155   1.286   .     A
C1111  C1127   1.412   .     S
C1112  C1113   1.407   .     A
C1112  C448    1.412   1_556 S
C1112  C472    1.416   1_556 S
C1113  C1120   1.410   .     A
C1113  C1117   1.414   .     A
C1114  C1118   1.392   .     A
C1115  C1116   1.393   .     A
C1115  C448    1.419   1_556 S
C1115  C468    1.403   1_556 S
C1116  H1145   1.084   .     S
C1116  C1117   1.388   .     A
C1117  H1150   1.082   .     S
C1118  C1135   1.387   .     A
C1118  H1147   1.080   .     S
C1119  C1134   1.393   .     A
C1119  H1139   1.082   .     S
C1119  C1135   1.399   .     A
C1120  C1122   1.453   .     S
C1120  C1136   1.399   .     A
C1121  H1151   1.084   .     S
C1121  C1127   1.397   .     A
C1121  C679    1.370   1_565 S
C1122  O1157   1.297   .     A
C1122  O1156   1.296   .     A
C1123  C1124   1.390   .     A
C1123  H1140   1.083   .     S
C1124  C1125   1.396   .     A
C1124  C1132   1.410   .     S
C1125  H1141   1.084   .     S
C1126  O1164   1.385   .     S
C1126  C1127   1.403   .     A
C1126  C681    1.376   1_565 S
C1128  N1153   1.400   .     A
C1128  S1175   1.777   .     S
C1128  C1203   1.413   .     S
C1129  N1152   1.346   .     A
C1129  H1142   1.080   .     S
C1129  C1276   1.413   1_455 S
C1130  H1143   1.082   .     S
C1130  N1152   1.370   .     A
C1130  C1279   1.422   1_455 S
C1131  H1144   1.082   .     S
C1131  N1153   1.367   .     A
C1131  C1204   1.422   .     S
C1132  O1158   1.282   .     A
C1132  O1159   1.291   .     A
C1133  O1161   1.296   .     A
C1133  C1135   1.448   .     S
C1133  O1160   1.296   .     A
C1136  H1148   1.083   .     S
C1136  C1137   1.387   .     A
C1137  C472    1.395   1_556 S
C1137  S514    1.755   1_556 S
C1138  H1149   1.079   .     S
H1146  C468    1.084   1_556 S
N1152  Zn1162  2.024   .     S
N1153  Zn1163  2.024   .     S
O1154  Zn1162  1.997   .     S
O1155  Zn1163  1.980   .     S
O1156  Zn1162  1.971   .     S
O1157  Zn1163  1.931   .     S
O1158  Zn1162  1.980   .     S
O1159  Zn1163  1.997   .     S
O1160  Zn1162  1.931   .     S
O1161  Zn1163  1.971   .     S
O1164  C1165   1.416   .     S
C1165  H1167   1.118   .     S
C1165  H1166   1.111   .     S
C1165  C1168   1.532   .     S
C1168  C1171   1.525   .     S
C1168  H1169   1.112   .     S
C1168  H726    1.110   1_565 S
C1171  H1174   1.111   .     S
C1171  H1172   1.111   .     S
C1171  H1173   1.110   .     S
S1175  O1176   1.499   .     D
S1175  O1177   1.498   .     D
S1175  O1252   1.684   .     S
O1178  H1179   0.990   .     S
O1178  S1323   1.684   1_455 S
S1180  O1182   1.502   .     D
S1180  O663    1.503   1_455 S
S1180  O1331   1.680   1_455 S
O1181  S588    1.503   1_556 S
O1183  S1254   1.680   .     S
O1183  H1258   0.990   .     S
H1184  O1331   0.990   1_455 S
C1185  O1228   1.287   .     A
C1185  O1229   1.286   .     A
C1185  C1201   1.412   .     S
C1186  C1187   1.407   .     A
C1186  C522    1.412   1_556 S
C1186  C546    1.416   1_556 S
C1187  C1194   1.410   .     A
C1187  C1191   1.414   .     A
C1188  C1192   1.392   .     A
C1189  C1190   1.393   .     A
C1189  C522    1.419   1_556 S
C1189  C542    1.403   1_556 S
C1190  H1219   1.084   .     S
C1190  C1191   1.388   .     A
C1191  H1224   1.082   .     S
C1192  C1209   1.387   .     A
C1192  H1221   1.080   .     S
C1193  C1208   1.393   .     A
C1193  H1213   1.082   .     S
C1193  C1209   1.399   .     A
C1194  C1196   1.453   .     S
C1194  C1210   1.399   .     A
C1195  H1225   1.084   .     S
C1195  C1201   1.397   .     A
C1195  C753    1.370   1_565 S
C1196  O1231   1.297   .     A
C1196  O1230   1.296   .     A
C1197  C1198   1.390   .     A
C1197  H1214   1.083   .     S
C1198  C1199   1.396   .     A
C1198  C1206   1.410   .     S
C1199  H1215   1.084   .     S
C1200  O1238   1.385   .     S
C1200  C1201   1.403   .     A
C1200  C755    1.376   1_565 S
C1202  N1227   1.400   .     A
C1202  S1249   1.777   .     S
C1202  C1277   1.413   .     S
C1203  N1226   1.346   .     A
C1203  H1216   1.080   .     S
C1204  H1217   1.082   .     S
C1204  N1226   1.370   .     A
C1205  H1218   1.082   .     S
C1205  N1227   1.367   .     A
C1205  C1278   1.422   .     S
C1206  O1232   1.282   .     A
C1206  O1233   1.291   .     A
C1207  O1235   1.296   .     A
C1207  C1209   1.448   .     S
C1207  O1234   1.296   .     A
C1210  H1222   1.083   .     S
C1210  C1211   1.387   .     A
C1211  C546    1.395   1_556 S
C1211  S588    1.755   1_556 S
C1212  H1223   1.079   .     S
H1220  C542    1.084   1_556 S
N1226  Zn1236  2.024   .     S
N1227  Zn1237  2.024   .     S
O1228  Zn1236  1.997   .     S
O1229  Zn1237  1.980   .     S
O1230  Zn1236  1.971   .     S
O1231  Zn1237  1.931   .     S
O1232  Zn1236  1.980   .     S
O1233  Zn1237  1.997   .     S
O1234  Zn1236  1.931   .     S
O1235  Zn1237  1.971   .     S
O1238  C1239   1.416   .     S
C1239  H1241   1.118   .     S
C1239  H1240   1.111   .     S
C1239  C1242   1.532   .     S
C1242  C1245   1.525   .     S
C1242  H1243   1.112   .     S
C1242  H800    1.110   1_565 S
C1245  H1248   1.111   .     S
C1245  H1246   1.111   .     S
C1245  H1247   1.110   .     S
S1249  O1250   1.499   .     D
S1249  O1251   1.498   .     D
S1249  O1326   1.684   .     S
O1252  H1253   0.990   .     S
S1254  O1256   1.502   .     D
O1255  S662    1.503   1_556 S
O1257  S1328   1.680   .     S
O1257  H1332   0.990   .     S
C1259  O1302   1.287   .     A
C1259  O1303   1.286   .     A
C1259  C1275   1.412   .     S
C1260  C1261   1.407   .     A
C1260  C596    1.412   1_556 S
C1260  C620    1.416   1_556 S
C1261  C1268   1.410   .     A
C1261  C1265   1.414   .     A
C1262  C1266   1.392   .     A
C1263  C1264   1.393   .     A
C1263  C596    1.419   1_556 S
C1263  C616    1.403   1_556 S
C1264  H1293   1.084   .     S
C1264  C1265   1.388   .     A
C1265  H1298   1.082   .     S
C1266  C1283   1.387   .     A
C1266  H1295   1.080   .     S
C1267  C1282   1.393   .     A
C1267  H1287   1.082   .     S
C1267  C1283   1.399   .     A
C1268  C1270   1.453   .     S
C1268  C1284   1.399   .     A
C1269  H1299   1.084   .     S
C1269  C1275   1.397   .     A
C1269  C827    1.370   1_565 S
C1270  O1305   1.297   .     A
C1270  O1304   1.296   .     A
C1271  C1272   1.390   .     A
C1271  H1288   1.083   .     S
C1272  C1273   1.396   .     A
C1272  C1280   1.410   .     S
C1273  H1289   1.084   .     S
C1274  O1312   1.385   .     S
C1274  C1275   1.403   .     A
C1274  C829    1.376   1_565 S
C1276  N1301   1.400   .     A
C1276  S1323   1.777   .     S
C1276  C1129   1.413   1_655 S
C1277  N1300   1.346   .     A
C1277  H1290   1.080   .     S
C1278  H1291   1.082   .     S
C1278  N1300   1.370   .     A
C1279  H1292   1.082   .     S
C1279  N1301   1.367   .     A
C1279  C1130   1.422   1_655 S
C1280  O1306   1.282   .     A
C1280  O1307   1.291   .     A
C1281  O1309   1.296   .     A
C1281  C1283   1.448   .     S
C1281  O1308   1.296   .     A
C1284  H1296   1.083   .     S
C1284  C1285   1.387   .     A
C1285  C620    1.395   1_556 S
C1285  S662    1.755   1_556 S
C1286  H1297   1.079   .     S
H1294  C616    1.084   1_556 S
N1300  Zn1310  2.024   .     S
N1301  Zn1311  2.024   .     S
O1302  Zn1310  1.997   .     S
O1303  Zn1311  1.980   .     S
O1304  Zn1310  1.971   .     S
O1305  Zn1311  1.931   .     S
O1306  Zn1310  1.980   .     S
O1307  Zn1311  1.997   .     S
O1308  Zn1310  1.931   .     S
O1309  Zn1311  1.971   .     S
O1312  C1313   1.416   .     S
C1313  H1315   1.118   .     S
C1313  H1314   1.111   .     S
C1313  C1316   1.532   .     S
C1316  C1319   1.525   .     S
C1316  H1317   1.112   .     S
C1316  H874    1.110   1_565 S
C1319  H1322   1.111   .     S
C1319  H1320   1.111   .     S
C1319  H1321   1.110   .     S
S1323  O1324   1.499   .     D
S1323  O1325   1.498   .     D
S1323  O1178   1.684   1_655 S
O1326  H1327   0.990   .     S
S1328  O1330   1.502   .     D
O1329  S514    1.503   1_656 S
O1331  S1180   1.680   1_655 S
O1331  H1184   0.990   1_655 S
