data_str_m2_o10_o18_pcu_sym.63
_audit_creation_date              2020-01-03
_audit_creation_method            'Materials Studio'
_symmetry_space_group_name_H-M    'P1'
_symmetry_Int_Tables_number       1
_symmetry_cell_setting            triclinic
loop_
_symmetry_equiv_pos_as_xyz
  x,y,z
_cell_length_a                    22.3637
_cell_length_b                    26.0662
_cell_length_c                    31.6948
_cell_angle_alpha                 94.4239
_cell_angle_beta                  76.3700
_cell_angle_gamma                 103.0350
loop_
_atom_site_label
_atom_site_type_symbol
_atom_site_fract_x
_atom_site_fract_y
_atom_site_fract_z
_atom_site_U_iso_or_equiv
_atom_site_adp_type
_atom_site_occupancy
C1     C     0.18166   0.26671   0.25134   0.00000  Uiso   1.00
C2     C     0.20463   0.17398   0.16730   0.00000  Uiso   1.00
C3     C     0.10781   0.14886   0.37959   0.00000  Uiso   1.00
C4     C     0.22553   0.18447   0.12041   0.00000  Uiso   1.00
C5     C     0.02461   0.12398   0.44343   0.00000  Uiso   1.00
C6     C     0.30872   0.20936   0.05657   0.00000  Uiso   1.00
C7     C     0.04360   0.13611   0.39950   0.00000  Uiso   1.00
C8     C     0.28973   0.19722   0.10050   0.00000  Uiso   1.00
C9     C     0.15255   0.14835   0.40464   0.00000  Uiso   1.00
C10    C     0.18078   0.18498   0.09536   0.00000  Uiso   1.00
C11    C     0.13363   0.15164   0.45022   0.00000  Uiso   1.00
C12    C     0.15167   0.06663   0.24866   0.00000  Uiso   1.00
C13    C     0.19970   0.18169   0.04978   0.00000  Uiso   1.00
C14    C     0.06922   0.13282   0.46919   0.00000  Uiso   1.00
C15    C     0.26412   0.20051   0.03081   0.00000  Uiso   1.00
C16    C     0.17684   0.17047   0.47734   0.00000  Uiso   1.00
C17    C     0.15649   0.16286   0.02266   0.00000  Uiso   1.00
C18    C     0.12171   0.20562   0.11537   0.00000  Uiso   1.00
C19    C     0.21162   0.12772   0.38464   0.00000  Uiso   1.00
C20    C     0.09463   0.13424   0.03919   0.00000  Uiso   1.00
C21    C     0.23871   0.19909   0.46081   0.00000  Uiso   1.00
C22    C     0.05090   0.12156   0.01321   0.00000  Uiso   1.00
C23    C     0.28243   0.21177   0.48679   0.00000  Uiso   1.00
C24    C     0.19012   0.32266   0.25199   0.00000  Uiso   1.00
C25    C     0.14321   0.01067   0.24801   0.00000  Uiso   1.00
C26    C     0.12871   0.15935   0.33270   0.00000  Uiso   1.00
Cu27   Cu    0.10737   0.16108   0.24517   0.00000  Uiso   1.00
Cu28   Cu    0.22596   0.17225   0.25484   0.00000  Uiso   1.00
H29    H     0.00265   0.10289   0.02762   0.00000  Uiso   1.00
H30    H     0.09800   0.32025   0.24425   0.00000  Uiso   1.00
H31    H     0.00158   0.20526   0.28446   0.00000  Uiso   1.00
H32    H     0.33175   0.12807   0.21554   0.00000  Uiso   1.00
H33    H     0.10521   0.22316   0.09055   0.00000  Uiso   1.00
H34    H     0.08314   0.17393   0.13176   0.00000  Uiso   1.00
H35    H     0.13190   0.23802   0.13927   0.00000  Uiso   1.00
H36    H     0.25019   0.15940   0.36824   0.00000  Uiso   1.00
H37    H     0.22812   0.11017   0.40945   0.00000  Uiso   1.00
H38    H     0.20144   0.09532   0.36073   0.00000  Uiso   1.00
H39    H     0.33068   0.23045   0.47238   0.00000  Uiso   1.00
H40    H     0.32481   0.20074   0.11945   0.00000  Uiso   1.00
H41    H     0.00853   0.13259   0.38055   0.00000  Uiso   1.00
H42    H     0.30835   0.10995   0.45764   0.00000  Uiso   1.00
H43    H     0.02498   0.22338   0.04236   0.00000  Uiso   1.00
H44    H     0.07910   0.12176   0.07239   0.00000  Uiso   1.00
H45    H     0.25423   0.21157   0.42761   0.00000  Uiso   1.00
H46    H     0.23534   0.01309   0.25575   0.00000  Uiso   1.00
N47    N     0.31506   0.18068   0.26212   0.00000  Uiso   1.00
N48    N     0.01827   0.15265   0.23788   0.00000  Uiso   1.00
O49    O     0.12815   0.23809   0.24686   0.00000  Uiso   1.00
O50    O     0.20518   0.09524   0.25314   0.00000  Uiso   1.00
O51    O     0.22829   0.24753   0.25503   0.00000  Uiso   1.00
O52    O     0.10504   0.08580   0.24498   0.00000  Uiso   1.00
O53    O     0.08851   0.15930   0.30855   0.00000  Uiso   1.00
O54    O     0.24482   0.17403   0.19146   0.00000  Uiso   1.00
O55    O     0.18866   0.16874   0.31671   0.00000  Uiso   1.00
O56    O     0.14468   0.16460   0.18329   0.00000  Uiso   1.00
C57    C     0.51500   0.26671   0.25134   0.00000  Uiso   1.00
C58    C     0.53796   0.17398   0.16730   0.00000  Uiso   1.00
C59    C     0.44114   0.14886   0.37959   0.00000  Uiso   1.00
C60    C     0.55886   0.18447   0.12041   0.00000  Uiso   1.00
C61    C     0.35795   0.12398   0.44343   0.00000  Uiso   1.00
C62    C     0.64205   0.20936   0.05657   0.00000  Uiso   1.00
C63    C     0.37694   0.13611   0.39950   0.00000  Uiso   1.00
C64    C     0.62306   0.19722   0.10050   0.00000  Uiso   1.00
C65    C     0.48589   0.14835   0.40464   0.00000  Uiso   1.00
C66    C     0.51411   0.18498   0.09536   0.00000  Uiso   1.00
C67    C     0.46696   0.15164   0.45022   0.00000  Uiso   1.00
C68    C     0.48500   0.06663   0.24866   0.00000  Uiso   1.00
C69    C     0.53304   0.18169   0.04978   0.00000  Uiso   1.00
C70    C     0.40255   0.13282   0.46919   0.00000  Uiso   1.00
C71    C     0.59745   0.20051   0.03081   0.00000  Uiso   1.00
C72    C     0.51018   0.17047   0.47734   0.00000  Uiso   1.00
C73    C     0.48982   0.16286   0.02266   0.00000  Uiso   1.00
C74    C     0.45504   0.20562   0.11537   0.00000  Uiso   1.00
C75    C     0.54496   0.12772   0.38464   0.00000  Uiso   1.00
C76    C     0.42796   0.13424   0.03919   0.00000  Uiso   1.00
C77    C     0.57204   0.19909   0.46081   0.00000  Uiso   1.00
C78    C     0.38423   0.12156   0.01321   0.00000  Uiso   1.00
C79    C     0.61577   0.21177   0.48679   0.00000  Uiso   1.00
C80    C     0.52345   0.32266   0.25199   0.00000  Uiso   1.00
C81    C     0.47655   0.01067   0.24801   0.00000  Uiso   1.00
C82    C     0.46204   0.15935   0.33270   0.00000  Uiso   1.00
Cu83   Cu    0.44071   0.16108   0.24517   0.00000  Uiso   1.00
Cu84   Cu    0.55929   0.17225   0.25484   0.00000  Uiso   1.00
H85    H     0.33598   0.10289   0.02762   0.00000  Uiso   1.00
H86    H     0.43133   0.32025   0.24425   0.00000  Uiso   1.00
H87    H     0.33492   0.20526   0.28446   0.00000  Uiso   1.00
H88    H     0.66508   0.12807   0.21554   0.00000  Uiso   1.00
H89    H     0.43854   0.22316   0.09055   0.00000  Uiso   1.00
H90    H     0.41647   0.17393   0.13176   0.00000  Uiso   1.00
H91    H     0.46523   0.23802   0.13927   0.00000  Uiso   1.00
H92    H     0.58353   0.15940   0.36824   0.00000  Uiso   1.00
H93    H     0.56146   0.11017   0.40945   0.00000  Uiso   1.00
H94    H     0.53477   0.09532   0.36073   0.00000  Uiso   1.00
H95    H     0.66402   0.23045   0.47238   0.00000  Uiso   1.00
H96    H     0.65814   0.20074   0.11945   0.00000  Uiso   1.00
H97    H     0.34186   0.13259   0.38055   0.00000  Uiso   1.00
H98    H     0.64169   0.10995   0.45764   0.00000  Uiso   1.00
H99    H     0.35831   0.22338   0.04236   0.00000  Uiso   1.00
H100   H     0.41244   0.12176   0.07239   0.00000  Uiso   1.00
H101   H     0.58756   0.21157   0.42761   0.00000  Uiso   1.00
H102   H     0.56867   0.01309   0.25575   0.00000  Uiso   1.00
N103   N     0.64839   0.18068   0.26212   0.00000  Uiso   1.00
N104   N     0.35161   0.15265   0.23788   0.00000  Uiso   1.00
O105   O     0.46148   0.23809   0.24686   0.00000  Uiso   1.00
O106   O     0.53852   0.09524   0.25314   0.00000  Uiso   1.00
O107   O     0.56163   0.24753   0.25503   0.00000  Uiso   1.00
O108   O     0.43837   0.08580   0.24498   0.00000  Uiso   1.00
O109   O     0.42185   0.15930   0.30855   0.00000  Uiso   1.00
O110   O     0.57815   0.17403   0.19146   0.00000  Uiso   1.00
O111   O     0.52199   0.16874   0.31671   0.00000  Uiso   1.00
O112   O     0.47801   0.16460   0.18329   0.00000  Uiso   1.00
C113   C     0.84833   0.26671   0.25134   0.00000  Uiso   1.00
C114   C     0.87129   0.17398   0.16730   0.00000  Uiso   1.00
C115   C     0.77447   0.14886   0.37959   0.00000  Uiso   1.00
C116   C     0.89219   0.18447   0.12041   0.00000  Uiso   1.00
C117   C     0.69128   0.12398   0.44343   0.00000  Uiso   1.00
C118   C     0.97539   0.20936   0.05657   0.00000  Uiso   1.00
C119   C     0.71027   0.13611   0.39950   0.00000  Uiso   1.00
C120   C     0.95640   0.19722   0.10050   0.00000  Uiso   1.00
C121   C     0.81922   0.14835   0.40464   0.00000  Uiso   1.00
C122   C     0.84745   0.18498   0.09536   0.00000  Uiso   1.00
C123   C     0.80030   0.15164   0.45022   0.00000  Uiso   1.00
C124   C     0.81834   0.06663   0.24866   0.00000  Uiso   1.00
C125   C     0.86637   0.18169   0.04978   0.00000  Uiso   1.00
C126   C     0.73588   0.13282   0.46919   0.00000  Uiso   1.00
C127   C     0.93078   0.20051   0.03081   0.00000  Uiso   1.00
C128   C     0.84351   0.17047   0.47734   0.00000  Uiso   1.00
C129   C     0.82316   0.16286   0.02266   0.00000  Uiso   1.00
C130   C     0.78838   0.20562   0.11537   0.00000  Uiso   1.00
C131   C     0.87829   0.12772   0.38464   0.00000  Uiso   1.00
C132   C     0.76129   0.13424   0.03919   0.00000  Uiso   1.00
C133   C     0.90537   0.19909   0.46081   0.00000  Uiso   1.00
C134   C     0.71757   0.12156   0.01321   0.00000  Uiso   1.00
C135   C     0.94910   0.21177   0.48679   0.00000  Uiso   1.00
C136   C     0.85679   0.32266   0.25199   0.00000  Uiso   1.00
C137   C     0.80988   0.01067   0.24801   0.00000  Uiso   1.00
C138   C     0.79537   0.15935   0.33270   0.00000  Uiso   1.00
Cu139  Cu    0.77404   0.16108   0.24517   0.00000  Uiso   1.00
Cu140  Cu    0.89263   0.17225   0.25484   0.00000  Uiso   1.00
H141   H     0.66932   0.10289   0.02762   0.00000  Uiso   1.00
H142   H     0.76466   0.32025   0.24425   0.00000  Uiso   1.00
H143   H     0.66825   0.20526   0.28446   0.00000  Uiso   1.00
H144   H     0.99842   0.12807   0.21554   0.00000  Uiso   1.00
H145   H     0.77188   0.22316   0.09055   0.00000  Uiso   1.00
H146   H     0.74981   0.17393   0.13176   0.00000  Uiso   1.00
H147   H     0.79856   0.23802   0.13927   0.00000  Uiso   1.00
H148   H     0.91686   0.15940   0.36824   0.00000  Uiso   1.00
H149   H     0.89479   0.11017   0.40945   0.00000  Uiso   1.00
H150   H     0.86811   0.09532   0.36073   0.00000  Uiso   1.00
H151   H     0.99735   0.23045   0.47238   0.00000  Uiso   1.00
H152   H     0.99147   0.20074   0.11945   0.00000  Uiso   1.00
H153   H     0.67520   0.13259   0.38055   0.00000  Uiso   1.00
H154   H     0.97502   0.10995   0.45764   0.00000  Uiso   1.00
H155   H     0.69165   0.22338   0.04236   0.00000  Uiso   1.00
H156   H     0.74577   0.12176   0.07239   0.00000  Uiso   1.00
H157   H     0.92090   0.21157   0.42761   0.00000  Uiso   1.00
H158   H     0.90200   0.01309   0.25575   0.00000  Uiso   1.00
N159   N     0.98173   0.18068   0.26212   0.00000  Uiso   1.00
N160   N     0.68494   0.15265   0.23788   0.00000  Uiso   1.00
O161   O     0.79482   0.23809   0.24686   0.00000  Uiso   1.00
O162   O     0.87185   0.09524   0.25314   0.00000  Uiso   1.00
O163   O     0.89496   0.24753   0.25503   0.00000  Uiso   1.00
O164   O     0.77171   0.08580   0.24498   0.00000  Uiso   1.00
O165   O     0.75518   0.15930   0.30855   0.00000  Uiso   1.00
O166   O     0.91149   0.17403   0.19146   0.00000  Uiso   1.00
O167   O     0.85532   0.16874   0.31671   0.00000  Uiso   1.00
O168   O     0.81134   0.16460   0.18329   0.00000  Uiso   1.00
C169   C     0.18166   0.60004   0.25134   0.00000  Uiso   1.00
C170   C     0.20463   0.50732   0.16730   0.00000  Uiso   1.00
C171   C     0.10781   0.48220   0.37959   0.00000  Uiso   1.00
C172   C     0.22553   0.51780   0.12041   0.00000  Uiso   1.00
C173   C     0.02461   0.45731   0.44343   0.00000  Uiso   1.00
C174   C     0.30872   0.54269   0.05657   0.00000  Uiso   1.00
C175   C     0.04360   0.46944   0.39950   0.00000  Uiso   1.00
C176   C     0.28973   0.53056   0.10050   0.00000  Uiso   1.00
C177   C     0.15255   0.48169   0.40464   0.00000  Uiso   1.00
C178   C     0.18078   0.51832   0.09536   0.00000  Uiso   1.00
C179   C     0.13363   0.48497   0.45022   0.00000  Uiso   1.00
C180   C     0.15167   0.39996   0.24866   0.00000  Uiso   1.00
C181   C     0.19970   0.51503   0.04978   0.00000  Uiso   1.00
C182   C     0.06922   0.46616   0.46919   0.00000  Uiso   1.00
C183   C     0.26412   0.53384   0.03081   0.00000  Uiso   1.00
C184   C     0.17684   0.50381   0.47734   0.00000  Uiso   1.00
C185   C     0.15649   0.49619   0.02266   0.00000  Uiso   1.00
C186   C     0.12171   0.53895   0.11537   0.00000  Uiso   1.00
C187   C     0.21162   0.46105   0.38464   0.00000  Uiso   1.00
C188   C     0.09463   0.46758   0.03919   0.00000  Uiso   1.00
C189   C     0.23871   0.53242   0.46081   0.00000  Uiso   1.00
C190   C     0.05090   0.45489   0.01321   0.00000  Uiso   1.00
C191   C     0.28243   0.54511   0.48679   0.00000  Uiso   1.00
C192   C     0.19012   0.65600   0.25199   0.00000  Uiso   1.00
C193   C     0.14321   0.34400   0.24801   0.00000  Uiso   1.00
C194   C     0.12871   0.49268   0.33270   0.00000  Uiso   1.00
Cu195  Cu    0.10737   0.49441   0.24517   0.00000  Uiso   1.00
Cu196  Cu    0.22596   0.50559   0.25484   0.00000  Uiso   1.00
H197   H     0.00265   0.43622   0.02762   0.00000  Uiso   1.00
H198   H     0.09800   0.65358   0.24425   0.00000  Uiso   1.00
H199   H     0.00158   0.53860   0.28446   0.00000  Uiso   1.00
H200   H     0.33175   0.46140   0.21554   0.00000  Uiso   1.00
H201   H     0.10521   0.55649   0.09055   0.00000  Uiso   1.00
H202   H     0.08314   0.50727   0.13176   0.00000  Uiso   1.00
H203   H     0.13190   0.57135   0.13927   0.00000  Uiso   1.00
H204   H     0.25019   0.49273   0.36824   0.00000  Uiso   1.00
H205   H     0.22812   0.44351   0.40945   0.00000  Uiso   1.00
H206   H     0.20144   0.42865   0.36073   0.00000  Uiso   1.00
H207   H     0.33068   0.56378   0.47238   0.00000  Uiso   1.00
H208   H     0.32481   0.53408   0.11945   0.00000  Uiso   1.00
H209   H     0.00853   0.46592   0.38055   0.00000  Uiso   1.00
H210   H     0.30835   0.44328   0.45764   0.00000  Uiso   1.00
H211   H     0.02498   0.55672   0.04236   0.00000  Uiso   1.00
H212   H     0.07910   0.45509   0.07239   0.00000  Uiso   1.00
H213   H     0.25423   0.54491   0.42761   0.00000  Uiso   1.00
H214   H     0.23534   0.34642   0.25575   0.00000  Uiso   1.00
N215   N     0.31506   0.51401   0.26212   0.00000  Uiso   1.00
N216   N     0.01827   0.48599   0.23788   0.00000  Uiso   1.00
O217   O     0.12815   0.57142   0.24686   0.00000  Uiso   1.00
O218   O     0.20518   0.42858   0.25314   0.00000  Uiso   1.00
O219   O     0.22829   0.58086   0.25503   0.00000  Uiso   1.00
O220   O     0.10504   0.41914   0.24498   0.00000  Uiso   1.00
O221   O     0.08851   0.49263   0.30855   0.00000  Uiso   1.00
O222   O     0.24482   0.50737   0.19146   0.00000  Uiso   1.00
O223   O     0.18866   0.50207   0.31671   0.00000  Uiso   1.00
O224   O     0.14468   0.49793   0.18329   0.00000  Uiso   1.00
C225   C     0.51500   0.60004   0.25134   0.00000  Uiso   1.00
C226   C     0.53796   0.50732   0.16730   0.00000  Uiso   1.00
C227   C     0.44114   0.48220   0.37959   0.00000  Uiso   1.00
C228   C     0.55886   0.51780   0.12041   0.00000  Uiso   1.00
C229   C     0.35795   0.45731   0.44343   0.00000  Uiso   1.00
C230   C     0.64205   0.54269   0.05657   0.00000  Uiso   1.00
C231   C     0.37694   0.46944   0.39950   0.00000  Uiso   1.00
C232   C     0.62306   0.53056   0.10050   0.00000  Uiso   1.00
C233   C     0.48589   0.48169   0.40464   0.00000  Uiso   1.00
C234   C     0.51411   0.51832   0.09536   0.00000  Uiso   1.00
C235   C     0.46696   0.48497   0.45022   0.00000  Uiso   1.00
C236   C     0.48500   0.39996   0.24866   0.00000  Uiso   1.00
C237   C     0.53304   0.51503   0.04978   0.00000  Uiso   1.00
C238   C     0.40255   0.46616   0.46919   0.00000  Uiso   1.00
C239   C     0.59745   0.53384   0.03081   0.00000  Uiso   1.00
C240   C     0.51018   0.50381   0.47734   0.00000  Uiso   1.00
C241   C     0.48982   0.49619   0.02266   0.00000  Uiso   1.00
C242   C     0.45504   0.53895   0.11537   0.00000  Uiso   1.00
C243   C     0.54496   0.46105   0.38464   0.00000  Uiso   1.00
C244   C     0.42796   0.46758   0.03919   0.00000  Uiso   1.00
C245   C     0.57204   0.53242   0.46081   0.00000  Uiso   1.00
C246   C     0.38423   0.45489   0.01321   0.00000  Uiso   1.00
C247   C     0.61577   0.54511   0.48679   0.00000  Uiso   1.00
C248   C     0.52345   0.65600   0.25199   0.00000  Uiso   1.00
C249   C     0.47655   0.34400   0.24801   0.00000  Uiso   1.00
C250   C     0.46204   0.49268   0.33270   0.00000  Uiso   1.00
Cu251  Cu    0.44071   0.49441   0.24517   0.00000  Uiso   1.00
Cu252  Cu    0.55929   0.50559   0.25484   0.00000  Uiso   1.00
H253   H     0.33598   0.43622   0.02762   0.00000  Uiso   1.00
H254   H     0.43133   0.65358   0.24425   0.00000  Uiso   1.00
H255   H     0.33492   0.53860   0.28446   0.00000  Uiso   1.00
H256   H     0.66508   0.46140   0.21554   0.00000  Uiso   1.00
H257   H     0.43854   0.55649   0.09055   0.00000  Uiso   1.00
H258   H     0.41647   0.50727   0.13176   0.00000  Uiso   1.00
H259   H     0.46523   0.57135   0.13927   0.00000  Uiso   1.00
H260   H     0.58353   0.49273   0.36824   0.00000  Uiso   1.00
H261   H     0.56146   0.44351   0.40945   0.00000  Uiso   1.00
H262   H     0.53477   0.42865   0.36073   0.00000  Uiso   1.00
H263   H     0.66402   0.56378   0.47238   0.00000  Uiso   1.00
H264   H     0.65814   0.53408   0.11945   0.00000  Uiso   1.00
H265   H     0.34186   0.46592   0.38055   0.00000  Uiso   1.00
H266   H     0.64169   0.44328   0.45764   0.00000  Uiso   1.00
H267   H     0.35831   0.55672   0.04236   0.00000  Uiso   1.00
H268   H     0.41244   0.45509   0.07239   0.00000  Uiso   1.00
H269   H     0.58756   0.54491   0.42761   0.00000  Uiso   1.00
H270   H     0.56867   0.34642   0.25575   0.00000  Uiso   1.00
N271   N     0.64839   0.51401   0.26212   0.00000  Uiso   1.00
N272   N     0.35161   0.48599   0.23788   0.00000  Uiso   1.00
O273   O     0.46148   0.57142   0.24686   0.00000  Uiso   1.00
O274   O     0.53852   0.42858   0.25314   0.00000  Uiso   1.00
O275   O     0.56163   0.58086   0.25503   0.00000  Uiso   1.00
O276   O     0.43837   0.41914   0.24498   0.00000  Uiso   1.00
O277   O     0.42185   0.49263   0.30855   0.00000  Uiso   1.00
O278   O     0.57815   0.50737   0.19146   0.00000  Uiso   1.00
O279   O     0.52199   0.50207   0.31671   0.00000  Uiso   1.00
O280   O     0.47801   0.49793   0.18329   0.00000  Uiso   1.00
C281   C     0.84833   0.60004   0.25134   0.00000  Uiso   1.00
C282   C     0.87129   0.50732   0.16730   0.00000  Uiso   1.00
C283   C     0.77447   0.48220   0.37959   0.00000  Uiso   1.00
C284   C     0.89219   0.51780   0.12041   0.00000  Uiso   1.00
C285   C     0.69128   0.45731   0.44343   0.00000  Uiso   1.00
C286   C     0.97539   0.54269   0.05657   0.00000  Uiso   1.00
C287   C     0.71027   0.46944   0.39950   0.00000  Uiso   1.00
C288   C     0.95640   0.53056   0.10050   0.00000  Uiso   1.00
C289   C     0.81922   0.48169   0.40464   0.00000  Uiso   1.00
C290   C     0.84745   0.51832   0.09536   0.00000  Uiso   1.00
C291   C     0.80030   0.48497   0.45022   0.00000  Uiso   1.00
C292   C     0.81834   0.39996   0.24866   0.00000  Uiso   1.00
C293   C     0.86637   0.51503   0.04978   0.00000  Uiso   1.00
C294   C     0.73588   0.46616   0.46919   0.00000  Uiso   1.00
C295   C     0.93078   0.53384   0.03081   0.00000  Uiso   1.00
C296   C     0.84351   0.50381   0.47734   0.00000  Uiso   1.00
C297   C     0.82316   0.49619   0.02266   0.00000  Uiso   1.00
C298   C     0.78838   0.53895   0.11537   0.00000  Uiso   1.00
C299   C     0.87829   0.46105   0.38464   0.00000  Uiso   1.00
C300   C     0.76129   0.46758   0.03919   0.00000  Uiso   1.00
C301   C     0.90537   0.53242   0.46081   0.00000  Uiso   1.00
C302   C     0.71757   0.45489   0.01321   0.00000  Uiso   1.00
C303   C     0.94910   0.54511   0.48679   0.00000  Uiso   1.00
C304   C     0.85679   0.65600   0.25199   0.00000  Uiso   1.00
C305   C     0.80988   0.34400   0.24801   0.00000  Uiso   1.00
C306   C     0.79537   0.49268   0.33270   0.00000  Uiso   1.00
Cu307  Cu    0.77404   0.49441   0.24517   0.00000  Uiso   1.00
Cu308  Cu    0.89263   0.50559   0.25484   0.00000  Uiso   1.00
H309   H     0.66932   0.43622   0.02762   0.00000  Uiso   1.00
H310   H     0.76466   0.65358   0.24425   0.00000  Uiso   1.00
H311   H     0.66825   0.53860   0.28446   0.00000  Uiso   1.00
H312   H     0.99842   0.46140   0.21554   0.00000  Uiso   1.00
H313   H     0.77188   0.55649   0.09055   0.00000  Uiso   1.00
H314   H     0.74981   0.50727   0.13176   0.00000  Uiso   1.00
H315   H     0.79856   0.57135   0.13927   0.00000  Uiso   1.00
H316   H     0.91686   0.49273   0.36824   0.00000  Uiso   1.00
H317   H     0.89479   0.44351   0.40945   0.00000  Uiso   1.00
H318   H     0.86811   0.42865   0.36073   0.00000  Uiso   1.00
H319   H     0.99735   0.56378   0.47238   0.00000  Uiso   1.00
H320   H     0.99147   0.53408   0.11945   0.00000  Uiso   1.00
H321   H     0.67520   0.46592   0.38055   0.00000  Uiso   1.00
H322   H     0.97502   0.44328   0.45764   0.00000  Uiso   1.00
H323   H     0.69165   0.55672   0.04236   0.00000  Uiso   1.00
H324   H     0.74577   0.45509   0.07239   0.00000  Uiso   1.00
H325   H     0.92090   0.54491   0.42761   0.00000  Uiso   1.00
H326   H     0.90200   0.34642   0.25575   0.00000  Uiso   1.00
N327   N     0.98173   0.51401   0.26212   0.00000  Uiso   1.00
N328   N     0.68494   0.48599   0.23788   0.00000  Uiso   1.00
O329   O     0.79482   0.57142   0.24686   0.00000  Uiso   1.00
O330   O     0.87185   0.42858   0.25314   0.00000  Uiso   1.00
O331   O     0.89496   0.58086   0.25503   0.00000  Uiso   1.00
O332   O     0.77171   0.41914   0.24498   0.00000  Uiso   1.00
O333   O     0.75518   0.49263   0.30855   0.00000  Uiso   1.00
O334   O     0.91149   0.50737   0.19146   0.00000  Uiso   1.00
O335   O     0.85532   0.50207   0.31671   0.00000  Uiso   1.00
O336   O     0.81134   0.49793   0.18329   0.00000  Uiso   1.00
C337   C     0.18166   0.93338   0.25134   0.00000  Uiso   1.00
C338   C     0.20463   0.84065   0.16730   0.00000  Uiso   1.00
C339   C     0.10781   0.81553   0.37959   0.00000  Uiso   1.00
C340   C     0.22553   0.85114   0.12041   0.00000  Uiso   1.00
C341   C     0.02461   0.79064   0.44343   0.00000  Uiso   1.00
C342   C     0.30872   0.87602   0.05657   0.00000  Uiso   1.00
C343   C     0.04360   0.80278   0.39950   0.00000  Uiso   1.00
C344   C     0.28973   0.86389   0.10050   0.00000  Uiso   1.00
C345   C     0.15255   0.81502   0.40464   0.00000  Uiso   1.00
C346   C     0.18078   0.85165   0.09536   0.00000  Uiso   1.00
C347   C     0.13363   0.81831   0.45022   0.00000  Uiso   1.00
C348   C     0.15167   0.73329   0.24866   0.00000  Uiso   1.00
C349   C     0.19970   0.84836   0.04978   0.00000  Uiso   1.00
C350   C     0.06922   0.79949   0.46919   0.00000  Uiso   1.00
C351   C     0.26412   0.86718   0.03081   0.00000  Uiso   1.00
C352   C     0.17684   0.83714   0.47734   0.00000  Uiso   1.00
C353   C     0.15649   0.82953   0.02266   0.00000  Uiso   1.00
C354   C     0.12171   0.87228   0.11537   0.00000  Uiso   1.00
C355   C     0.21162   0.79438   0.38464   0.00000  Uiso   1.00
C356   C     0.09463   0.80091   0.03919   0.00000  Uiso   1.00
C357   C     0.23871   0.86576   0.46081   0.00000  Uiso   1.00
C358   C     0.05090   0.78823   0.01321   0.00000  Uiso   1.00
C359   C     0.28243   0.87844   0.48679   0.00000  Uiso   1.00
C360   C     0.19012   0.98933   0.25199   0.00000  Uiso   1.00
C361   C     0.14321   0.67734   0.24801   0.00000  Uiso   1.00
C362   C     0.12871   0.82602   0.33270   0.00000  Uiso   1.00
Cu363  Cu    0.10737   0.82775   0.24517   0.00000  Uiso   1.00
Cu364  Cu    0.22596   0.83892   0.25484   0.00000  Uiso   1.00
H365   H     0.00265   0.76955   0.02762   0.00000  Uiso   1.00
H366   H     0.09800   0.98691   0.24425   0.00000  Uiso   1.00
H367   H     0.00158   0.87193   0.28446   0.00000  Uiso   1.00
H368   H     0.33175   0.79474   0.21554   0.00000  Uiso   1.00
H369   H     0.10521   0.88983   0.09055   0.00000  Uiso   1.00
H370   H     0.08314   0.84060   0.13176   0.00000  Uiso   1.00
H371   H     0.13190   0.90468   0.13927   0.00000  Uiso   1.00
H372   H     0.25019   0.82607   0.36824   0.00000  Uiso   1.00
H373   H     0.22812   0.77684   0.40945   0.00000  Uiso   1.00
H374   H     0.20144   0.76199   0.36073   0.00000  Uiso   1.00
H375   H     0.33068   0.89711   0.47238   0.00000  Uiso   1.00
H376   H     0.32481   0.86741   0.11945   0.00000  Uiso   1.00
H377   H     0.00853   0.79926   0.38055   0.00000  Uiso   1.00
H378   H     0.30835   0.77662   0.45764   0.00000  Uiso   1.00
H379   H     0.02498   0.89005   0.04236   0.00000  Uiso   1.00
H380   H     0.07910   0.78843   0.07239   0.00000  Uiso   1.00
H381   H     0.25423   0.87824   0.42761   0.00000  Uiso   1.00
H382   H     0.23534   0.67975   0.25575   0.00000  Uiso   1.00
N383   N     0.31506   0.84735   0.26212   0.00000  Uiso   1.00
N384   N     0.01827   0.81932   0.23788   0.00000  Uiso   1.00
O385   O     0.12815   0.90476   0.24686   0.00000  Uiso   1.00
O386   O     0.20518   0.76191   0.25314   0.00000  Uiso   1.00
O387   O     0.22829   0.91420   0.25503   0.00000  Uiso   1.00
O388   O     0.10504   0.75247   0.24498   0.00000  Uiso   1.00
O389   O     0.08851   0.82597   0.30855   0.00000  Uiso   1.00
O390   O     0.24482   0.84070   0.19146   0.00000  Uiso   1.00
O391   O     0.18866   0.83540   0.31671   0.00000  Uiso   1.00
O392   O     0.14468   0.83126   0.18329   0.00000  Uiso   1.00
C393   C     0.51500   0.93338   0.25134   0.00000  Uiso   1.00
C394   C     0.53796   0.84065   0.16730   0.00000  Uiso   1.00
C395   C     0.44114   0.81553   0.37959   0.00000  Uiso   1.00
C396   C     0.55886   0.85114   0.12041   0.00000  Uiso   1.00
C397   C     0.35795   0.79064   0.44343   0.00000  Uiso   1.00
C398   C     0.64205   0.87602   0.05657   0.00000  Uiso   1.00
C399   C     0.37694   0.80278   0.39950   0.00000  Uiso   1.00
C400   C     0.62306   0.86389   0.10050   0.00000  Uiso   1.00
C401   C     0.48589   0.81502   0.40464   0.00000  Uiso   1.00
C402   C     0.51411   0.85165   0.09536   0.00000  Uiso   1.00
C403   C     0.46696   0.81831   0.45022   0.00000  Uiso   1.00
C404   C     0.48500   0.73329   0.24866   0.00000  Uiso   1.00
C405   C     0.53304   0.84836   0.04978   0.00000  Uiso   1.00
C406   C     0.40255   0.79949   0.46919   0.00000  Uiso   1.00
C407   C     0.59745   0.86718   0.03081   0.00000  Uiso   1.00
C408   C     0.51018   0.83714   0.47734   0.00000  Uiso   1.00
C409   C     0.48982   0.82953   0.02266   0.00000  Uiso   1.00
C410   C     0.45504   0.87228   0.11537   0.00000  Uiso   1.00
C411   C     0.54496   0.79438   0.38464   0.00000  Uiso   1.00
C412   C     0.42796   0.80091   0.03919   0.00000  Uiso   1.00
C413   C     0.57204   0.86576   0.46081   0.00000  Uiso   1.00
C414   C     0.38423   0.78823   0.01321   0.00000  Uiso   1.00
C415   C     0.61577   0.87844   0.48679   0.00000  Uiso   1.00
C416   C     0.52345   0.98933   0.25199   0.00000  Uiso   1.00
C417   C     0.47655   0.67734   0.24801   0.00000  Uiso   1.00
C418   C     0.46204   0.82602   0.33270   0.00000  Uiso   1.00
Cu419  Cu    0.44071   0.82775   0.24517   0.00000  Uiso   1.00
Cu420  Cu    0.55929   0.83892   0.25484   0.00000  Uiso   1.00
H421   H     0.33598   0.76955   0.02762   0.00000  Uiso   1.00
H422   H     0.43133   0.98691   0.24425   0.00000  Uiso   1.00
H423   H     0.33492   0.87193   0.28446   0.00000  Uiso   1.00
H424   H     0.66508   0.79474   0.21554   0.00000  Uiso   1.00
H425   H     0.43854   0.88983   0.09055   0.00000  Uiso   1.00
H426   H     0.41647   0.84060   0.13176   0.00000  Uiso   1.00
H427   H     0.46523   0.90468   0.13927   0.00000  Uiso   1.00
H428   H     0.58353   0.82607   0.36824   0.00000  Uiso   1.00
H429   H     0.56146   0.77684   0.40945   0.00000  Uiso   1.00
H430   H     0.53477   0.76199   0.36073   0.00000  Uiso   1.00
H431   H     0.66402   0.89711   0.47238   0.00000  Uiso   1.00
H432   H     0.65814   0.86741   0.11945   0.00000  Uiso   1.00
H433   H     0.34186   0.79926   0.38055   0.00000  Uiso   1.00
H434   H     0.64169   0.77662   0.45764   0.00000  Uiso   1.00
H435   H     0.35831   0.89005   0.04236   0.00000  Uiso   1.00
H436   H     0.41244   0.78843   0.07239   0.00000  Uiso   1.00
H437   H     0.58756   0.87824   0.42761   0.00000  Uiso   1.00
H438   H     0.56867   0.67975   0.25575   0.00000  Uiso   1.00
N439   N     0.64839   0.84735   0.26212   0.00000  Uiso   1.00
N440   N     0.35161   0.81932   0.23788   0.00000  Uiso   1.00
O441   O     0.46148   0.90476   0.24686   0.00000  Uiso   1.00
O442   O     0.53852   0.76191   0.25314   0.00000  Uiso   1.00
O443   O     0.56163   0.91420   0.25503   0.00000  Uiso   1.00
O444   O     0.43837   0.75247   0.24498   0.00000  Uiso   1.00
O445   O     0.42185   0.82597   0.30855   0.00000  Uiso   1.00
O446   O     0.57815   0.84070   0.19146   0.00000  Uiso   1.00
O447   O     0.52199   0.83540   0.31671   0.00000  Uiso   1.00
O448   O     0.47801   0.83126   0.18329   0.00000  Uiso   1.00
C449   C     0.84833   0.93338   0.25134   0.00000  Uiso   1.00
C450   C     0.87129   0.84065   0.16730   0.00000  Uiso   1.00
C451   C     0.77447   0.81553   0.37959   0.00000  Uiso   1.00
C452   C     0.89219   0.85114   0.12041   0.00000  Uiso   1.00
C453   C     0.69128   0.79064   0.44343   0.00000  Uiso   1.00
C454   C     0.97539   0.87602   0.05657   0.00000  Uiso   1.00
C455   C     0.71027   0.80278   0.39950   0.00000  Uiso   1.00
C456   C     0.95640   0.86389   0.10050   0.00000  Uiso   1.00
C457   C     0.81922   0.81502   0.40464   0.00000  Uiso   1.00
C458   C     0.84745   0.85165   0.09536   0.00000  Uiso   1.00
C459   C     0.80030   0.81831   0.45022   0.00000  Uiso   1.00
C460   C     0.81834   0.73329   0.24866   0.00000  Uiso   1.00
C461   C     0.86637   0.84836   0.04978   0.00000  Uiso   1.00
C462   C     0.73588   0.79949   0.46919   0.00000  Uiso   1.00
C463   C     0.93078   0.86718   0.03081   0.00000  Uiso   1.00
C464   C     0.84351   0.83714   0.47734   0.00000  Uiso   1.00
C465   C     0.82316   0.82953   0.02266   0.00000  Uiso   1.00
C466   C     0.78838   0.87228   0.11537   0.00000  Uiso   1.00
C467   C     0.87829   0.79438   0.38464   0.00000  Uiso   1.00
C468   C     0.76129   0.80091   0.03919   0.00000  Uiso   1.00
C469   C     0.90537   0.86576   0.46081   0.00000  Uiso   1.00
C470   C     0.71757   0.78823   0.01321   0.00000  Uiso   1.00
C471   C     0.94910   0.87844   0.48679   0.00000  Uiso   1.00
C472   C     0.85679   0.98933   0.25199   0.00000  Uiso   1.00
C473   C     0.80988   0.67734   0.24801   0.00000  Uiso   1.00
C474   C     0.79537   0.82602   0.33270   0.00000  Uiso   1.00
Cu475  Cu    0.77404   0.82775   0.24517   0.00000  Uiso   1.00
Cu476  Cu    0.89263   0.83892   0.25484   0.00000  Uiso   1.00
H477   H     0.66932   0.76955   0.02762   0.00000  Uiso   1.00
H478   H     0.76466   0.98691   0.24425   0.00000  Uiso   1.00
H479   H     0.66825   0.87193   0.28446   0.00000  Uiso   1.00
H480   H     0.99842   0.79474   0.21554   0.00000  Uiso   1.00
H481   H     0.77188   0.88983   0.09055   0.00000  Uiso   1.00
H482   H     0.74981   0.84060   0.13176   0.00000  Uiso   1.00
H483   H     0.79856   0.90468   0.13927   0.00000  Uiso   1.00
H484   H     0.91686   0.82607   0.36824   0.00000  Uiso   1.00
H485   H     0.89479   0.77684   0.40945   0.00000  Uiso   1.00
H486   H     0.86811   0.76199   0.36073   0.00000  Uiso   1.00
H487   H     0.99735   0.89711   0.47238   0.00000  Uiso   1.00
H488   H     0.99147   0.86741   0.11945   0.00000  Uiso   1.00
H489   H     0.67520   0.79926   0.38055   0.00000  Uiso   1.00
H490   H     0.97502   0.77662   0.45764   0.00000  Uiso   1.00
H491   H     0.69165   0.89005   0.04236   0.00000  Uiso   1.00
H492   H     0.74577   0.78843   0.07239   0.00000  Uiso   1.00
H493   H     0.92090   0.87824   0.42761   0.00000  Uiso   1.00
H494   H     0.90200   0.67975   0.25575   0.00000  Uiso   1.00
N495   N     0.98173   0.84735   0.26212   0.00000  Uiso   1.00
N496   N     0.68494   0.81932   0.23788   0.00000  Uiso   1.00
O497   O     0.79482   0.90476   0.24686   0.00000  Uiso   1.00
O498   O     0.87185   0.76191   0.25314   0.00000  Uiso   1.00
O499   O     0.89496   0.91420   0.25503   0.00000  Uiso   1.00
O500   O     0.77171   0.75247   0.24498   0.00000  Uiso   1.00
O501   O     0.75518   0.82597   0.30855   0.00000  Uiso   1.00
O502   O     0.91149   0.84070   0.19146   0.00000  Uiso   1.00
O503   O     0.85532   0.83540   0.31671   0.00000  Uiso   1.00
O504   O     0.81134   0.83126   0.18329   0.00000  Uiso   1.00
C505   C     0.18166   0.26671   0.75134   0.00000  Uiso   1.00
C506   C     0.20463   0.17398   0.66730   0.00000  Uiso   1.00
C507   C     0.10781   0.14886   0.87959   0.00000  Uiso   1.00
C508   C     0.22553   0.18447   0.62041   0.00000  Uiso   1.00
C509   C     0.02461   0.12398   0.94343   0.00000  Uiso   1.00
C510   C     0.30872   0.20936   0.55657   0.00000  Uiso   1.00
C511   C     0.04360   0.13611   0.89950   0.00000  Uiso   1.00
C512   C     0.28973   0.19722   0.60050   0.00000  Uiso   1.00
C513   C     0.15255   0.14835   0.90464   0.00000  Uiso   1.00
C514   C     0.18078   0.18498   0.59536   0.00000  Uiso   1.00
C515   C     0.13363   0.15164   0.95022   0.00000  Uiso   1.00
C516   C     0.15167   0.06663   0.74866   0.00000  Uiso   1.00
C517   C     0.19970   0.18169   0.54978   0.00000  Uiso   1.00
C518   C     0.06922   0.13282   0.96919   0.00000  Uiso   1.00
C519   C     0.26412   0.20051   0.53081   0.00000  Uiso   1.00
C520   C     0.17684   0.17047   0.97734   0.00000  Uiso   1.00
C521   C     0.15649   0.16286   0.52266   0.00000  Uiso   1.00
C522   C     0.12171   0.20562   0.61537   0.00000  Uiso   1.00
C523   C     0.21162   0.12772   0.88464   0.00000  Uiso   1.00
C524   C     0.09463   0.13424   0.53919   0.00000  Uiso   1.00
C525   C     0.23871   0.19909   0.96081   0.00000  Uiso   1.00
C526   C     0.05090   0.12156   0.51321   0.00000  Uiso   1.00
C527   C     0.28243   0.21177   0.98679   0.00000  Uiso   1.00
C528   C     0.19012   0.32266   0.75199   0.00000  Uiso   1.00
C529   C     0.14321   0.01067   0.74801   0.00000  Uiso   1.00
C530   C     0.12871   0.15935   0.83270   0.00000  Uiso   1.00
Cu531  Cu    0.10737   0.16108   0.74517   0.00000  Uiso   1.00
Cu532  Cu    0.22596   0.17225   0.75484   0.00000  Uiso   1.00
H533   H     0.00265   0.10289   0.52762   0.00000  Uiso   1.00
H534   H     0.09800   0.32025   0.74425   0.00000  Uiso   1.00
H535   H     0.00158   0.20526   0.78446   0.00000  Uiso   1.00
H536   H     0.33175   0.12807   0.71554   0.00000  Uiso   1.00
H537   H     0.10521   0.22316   0.59055   0.00000  Uiso   1.00
H538   H     0.08314   0.17393   0.63176   0.00000  Uiso   1.00
H539   H     0.13190   0.23802   0.63927   0.00000  Uiso   1.00
H540   H     0.25019   0.15940   0.86824   0.00000  Uiso   1.00
H541   H     0.22812   0.11017   0.90945   0.00000  Uiso   1.00
H542   H     0.20144   0.09532   0.86073   0.00000  Uiso   1.00
H543   H     0.33068   0.23045   0.97238   0.00000  Uiso   1.00
H544   H     0.32481   0.20074   0.61945   0.00000  Uiso   1.00
H545   H     0.00853   0.13259   0.88055   0.00000  Uiso   1.00
H546   H     0.30835   0.10995   0.95764   0.00000  Uiso   1.00
H547   H     0.02498   0.22338   0.54236   0.00000  Uiso   1.00
H548   H     0.07910   0.12176   0.57239   0.00000  Uiso   1.00
H549   H     0.25423   0.21157   0.92761   0.00000  Uiso   1.00
H550   H     0.23534   0.01309   0.75575   0.00000  Uiso   1.00
N551   N     0.31506   0.18068   0.76212   0.00000  Uiso   1.00
N552   N     0.01827   0.15265   0.73788   0.00000  Uiso   1.00
O553   O     0.12815   0.23809   0.74686   0.00000  Uiso   1.00
O554   O     0.20518   0.09524   0.75314   0.00000  Uiso   1.00
O555   O     0.22829   0.24753   0.75503   0.00000  Uiso   1.00
O556   O     0.10504   0.08580   0.74498   0.00000  Uiso   1.00
O557   O     0.08851   0.15930   0.80855   0.00000  Uiso   1.00
O558   O     0.24482   0.17403   0.69146   0.00000  Uiso   1.00
O559   O     0.18866   0.16874   0.81671   0.00000  Uiso   1.00
O560   O     0.14468   0.16460   0.68329   0.00000  Uiso   1.00
C561   C     0.51500   0.26671   0.75134   0.00000  Uiso   1.00
C562   C     0.53796   0.17398   0.66730   0.00000  Uiso   1.00
C563   C     0.44114   0.14886   0.87959   0.00000  Uiso   1.00
C564   C     0.55886   0.18447   0.62041   0.00000  Uiso   1.00
C565   C     0.35795   0.12398   0.94343   0.00000  Uiso   1.00
C566   C     0.64205   0.20936   0.55657   0.00000  Uiso   1.00
C567   C     0.37694   0.13611   0.89950   0.00000  Uiso   1.00
C568   C     0.62306   0.19722   0.60050   0.00000  Uiso   1.00
C569   C     0.48589   0.14835   0.90464   0.00000  Uiso   1.00
C570   C     0.51411   0.18498   0.59536   0.00000  Uiso   1.00
C571   C     0.46696   0.15164   0.95022   0.00000  Uiso   1.00
C572   C     0.48500   0.06663   0.74866   0.00000  Uiso   1.00
C573   C     0.53304   0.18169   0.54978   0.00000  Uiso   1.00
C574   C     0.40255   0.13282   0.96919   0.00000  Uiso   1.00
C575   C     0.59745   0.20051   0.53081   0.00000  Uiso   1.00
C576   C     0.51018   0.17047   0.97734   0.00000  Uiso   1.00
C577   C     0.48982   0.16286   0.52266   0.00000  Uiso   1.00
C578   C     0.45504   0.20562   0.61537   0.00000  Uiso   1.00
C579   C     0.54496   0.12772   0.88464   0.00000  Uiso   1.00
C580   C     0.42796   0.13424   0.53919   0.00000  Uiso   1.00
C581   C     0.57204   0.19909   0.96081   0.00000  Uiso   1.00
C582   C     0.38423   0.12156   0.51321   0.00000  Uiso   1.00
C583   C     0.61577   0.21177   0.98679   0.00000  Uiso   1.00
C584   C     0.52345   0.32266   0.75199   0.00000  Uiso   1.00
C585   C     0.47655   0.01067   0.74801   0.00000  Uiso   1.00
C586   C     0.46204   0.15935   0.83270   0.00000  Uiso   1.00
Cu587  Cu    0.44071   0.16108   0.74517   0.00000  Uiso   1.00
Cu588  Cu    0.55929   0.17225   0.75484   0.00000  Uiso   1.00
H589   H     0.33598   0.10289   0.52762   0.00000  Uiso   1.00
H590   H     0.43133   0.32025   0.74425   0.00000  Uiso   1.00
H591   H     0.33492   0.20526   0.78446   0.00000  Uiso   1.00
H592   H     0.66508   0.12807   0.71554   0.00000  Uiso   1.00
H593   H     0.43854   0.22316   0.59055   0.00000  Uiso   1.00
H594   H     0.41647   0.17393   0.63176   0.00000  Uiso   1.00
H595   H     0.46523   0.23802   0.63927   0.00000  Uiso   1.00
H596   H     0.58353   0.15940   0.86824   0.00000  Uiso   1.00
H597   H     0.56146   0.11017   0.90945   0.00000  Uiso   1.00
H598   H     0.53477   0.09532   0.86073   0.00000  Uiso   1.00
H599   H     0.66402   0.23045   0.97238   0.00000  Uiso   1.00
H600   H     0.65814   0.20074   0.61945   0.00000  Uiso   1.00
H601   H     0.34186   0.13259   0.88055   0.00000  Uiso   1.00
H602   H     0.64169   0.10995   0.95764   0.00000  Uiso   1.00
H603   H     0.35831   0.22338   0.54236   0.00000  Uiso   1.00
H604   H     0.41244   0.12176   0.57239   0.00000  Uiso   1.00
H605   H     0.58756   0.21157   0.92761   0.00000  Uiso   1.00
H606   H     0.56867   0.01309   0.75575   0.00000  Uiso   1.00
N607   N     0.64839   0.18068   0.76212   0.00000  Uiso   1.00
N608   N     0.35161   0.15265   0.73788   0.00000  Uiso   1.00
O609   O     0.46148   0.23809   0.74686   0.00000  Uiso   1.00
O610   O     0.53852   0.09524   0.75314   0.00000  Uiso   1.00
O611   O     0.56163   0.24753   0.75503   0.00000  Uiso   1.00
O612   O     0.43837   0.08580   0.74498   0.00000  Uiso   1.00
O613   O     0.42185   0.15930   0.80855   0.00000  Uiso   1.00
O614   O     0.57815   0.17403   0.69146   0.00000  Uiso   1.00
O615   O     0.52199   0.16874   0.81671   0.00000  Uiso   1.00
O616   O     0.47801   0.16460   0.68329   0.00000  Uiso   1.00
C617   C     0.84833   0.26671   0.75134   0.00000  Uiso   1.00
C618   C     0.87129   0.17398   0.66730   0.00000  Uiso   1.00
C619   C     0.77447   0.14886   0.87959   0.00000  Uiso   1.00
C620   C     0.89219   0.18447   0.62041   0.00000  Uiso   1.00
C621   C     0.69128   0.12398   0.94343   0.00000  Uiso   1.00
C622   C     0.97539   0.20936   0.55657   0.00000  Uiso   1.00
C623   C     0.71027   0.13611   0.89950   0.00000  Uiso   1.00
C624   C     0.95640   0.19722   0.60050   0.00000  Uiso   1.00
C625   C     0.81922   0.14835   0.90464   0.00000  Uiso   1.00
C626   C     0.84745   0.18498   0.59536   0.00000  Uiso   1.00
C627   C     0.80030   0.15164   0.95022   0.00000  Uiso   1.00
C628   C     0.81834   0.06663   0.74866   0.00000  Uiso   1.00
C629   C     0.86637   0.18169   0.54978   0.00000  Uiso   1.00
C630   C     0.73588   0.13282   0.96919   0.00000  Uiso   1.00
C631   C     0.93078   0.20051   0.53081   0.00000  Uiso   1.00
C632   C     0.84351   0.17047   0.97734   0.00000  Uiso   1.00
C633   C     0.82316   0.16286   0.52266   0.00000  Uiso   1.00
C634   C     0.78838   0.20562   0.61537   0.00000  Uiso   1.00
C635   C     0.87829   0.12772   0.88464   0.00000  Uiso   1.00
C636   C     0.76129   0.13424   0.53919   0.00000  Uiso   1.00
C637   C     0.90537   0.19909   0.96081   0.00000  Uiso   1.00
C638   C     0.71757   0.12156   0.51321   0.00000  Uiso   1.00
C639   C     0.94910   0.21177   0.98679   0.00000  Uiso   1.00
C640   C     0.85679   0.32266   0.75199   0.00000  Uiso   1.00
C641   C     0.80988   0.01067   0.74801   0.00000  Uiso   1.00
C642   C     0.79537   0.15935   0.83270   0.00000  Uiso   1.00
Cu643  Cu    0.77404   0.16108   0.74517   0.00000  Uiso   1.00
Cu644  Cu    0.89263   0.17225   0.75484   0.00000  Uiso   1.00
H645   H     0.66932   0.10289   0.52762   0.00000  Uiso   1.00
H646   H     0.76466   0.32025   0.74425   0.00000  Uiso   1.00
H647   H     0.66825   0.20526   0.78446   0.00000  Uiso   1.00
H648   H     0.99842   0.12807   0.71554   0.00000  Uiso   1.00
H649   H     0.77188   0.22316   0.59055   0.00000  Uiso   1.00
H650   H     0.74981   0.17393   0.63176   0.00000  Uiso   1.00
H651   H     0.79856   0.23802   0.63927   0.00000  Uiso   1.00
H652   H     0.91686   0.15940   0.86824   0.00000  Uiso   1.00
H653   H     0.89479   0.11017   0.90945   0.00000  Uiso   1.00
H654   H     0.86811   0.09532   0.86073   0.00000  Uiso   1.00
H655   H     0.99735   0.23045   0.97238   0.00000  Uiso   1.00
H656   H     0.99147   0.20074   0.61945   0.00000  Uiso   1.00
H657   H     0.67520   0.13259   0.88055   0.00000  Uiso   1.00
H658   H     0.97502   0.10995   0.95764   0.00000  Uiso   1.00
H659   H     0.69165   0.22338   0.54236   0.00000  Uiso   1.00
H660   H     0.74577   0.12176   0.57239   0.00000  Uiso   1.00
H661   H     0.92090   0.21157   0.92761   0.00000  Uiso   1.00
H662   H     0.90200   0.01309   0.75575   0.00000  Uiso   1.00
N663   N     0.98173   0.18068   0.76212   0.00000  Uiso   1.00
N664   N     0.68494   0.15265   0.73788   0.00000  Uiso   1.00
O665   O     0.79482   0.23809   0.74686   0.00000  Uiso   1.00
O666   O     0.87185   0.09524   0.75314   0.00000  Uiso   1.00
O667   O     0.89496   0.24753   0.75503   0.00000  Uiso   1.00
O668   O     0.77171   0.08580   0.74498   0.00000  Uiso   1.00
O669   O     0.75518   0.15930   0.80855   0.00000  Uiso   1.00
O670   O     0.91149   0.17403   0.69146   0.00000  Uiso   1.00
O671   O     0.85532   0.16874   0.81671   0.00000  Uiso   1.00
O672   O     0.81134   0.16460   0.68329   0.00000  Uiso   1.00
C673   C     0.18166   0.60004   0.75134   0.00000  Uiso   1.00
C674   C     0.20463   0.50732   0.66730   0.00000  Uiso   1.00
C675   C     0.10781   0.48220   0.87959   0.00000  Uiso   1.00
C676   C     0.22553   0.51780   0.62041   0.00000  Uiso   1.00
C677   C     0.02461   0.45731   0.94343   0.00000  Uiso   1.00
C678   C     0.30872   0.54269   0.55657   0.00000  Uiso   1.00
C679   C     0.04360   0.46944   0.89950   0.00000  Uiso   1.00
C680   C     0.28973   0.53056   0.60050   0.00000  Uiso   1.00
C681   C     0.15255   0.48169   0.90464   0.00000  Uiso   1.00
C682   C     0.18078   0.51832   0.59536   0.00000  Uiso   1.00
C683   C     0.13363   0.48497   0.95022   0.00000  Uiso   1.00
C684   C     0.15167   0.39996   0.74866   0.00000  Uiso   1.00
C685   C     0.19970   0.51503   0.54978   0.00000  Uiso   1.00
C686   C     0.06922   0.46616   0.96919   0.00000  Uiso   1.00
C687   C     0.26412   0.53384   0.53081   0.00000  Uiso   1.00
C688   C     0.17684   0.50381   0.97734   0.00000  Uiso   1.00
C689   C     0.15649   0.49619   0.52266   0.00000  Uiso   1.00
C690   C     0.12171   0.53895   0.61537   0.00000  Uiso   1.00
C691   C     0.21162   0.46105   0.88464   0.00000  Uiso   1.00
C692   C     0.09463   0.46758   0.53919   0.00000  Uiso   1.00
C693   C     0.23871   0.53242   0.96081   0.00000  Uiso   1.00
C694   C     0.05090   0.45489   0.51321   0.00000  Uiso   1.00
C695   C     0.28243   0.54511   0.98679   0.00000  Uiso   1.00
C696   C     0.19012   0.65600   0.75199   0.00000  Uiso   1.00
C697   C     0.14321   0.34400   0.74801   0.00000  Uiso   1.00
C698   C     0.12871   0.49268   0.83270   0.00000  Uiso   1.00
Cu699  Cu    0.10737   0.49441   0.74517   0.00000  Uiso   1.00
Cu700  Cu    0.22596   0.50559   0.75484   0.00000  Uiso   1.00
H701   H     0.00265   0.43622   0.52762   0.00000  Uiso   1.00
H702   H     0.09800   0.65358   0.74425   0.00000  Uiso   1.00
H703   H     0.00158   0.53860   0.78446   0.00000  Uiso   1.00
H704   H     0.33175   0.46140   0.71554   0.00000  Uiso   1.00
H705   H     0.10521   0.55649   0.59055   0.00000  Uiso   1.00
H706   H     0.08314   0.50727   0.63176   0.00000  Uiso   1.00
H707   H     0.13190   0.57135   0.63927   0.00000  Uiso   1.00
H708   H     0.25019   0.49273   0.86824   0.00000  Uiso   1.00
H709   H     0.22812   0.44351   0.90945   0.00000  Uiso   1.00
H710   H     0.20144   0.42865   0.86073   0.00000  Uiso   1.00
H711   H     0.33068   0.56378   0.97238   0.00000  Uiso   1.00
H712   H     0.32481   0.53408   0.61945   0.00000  Uiso   1.00
H713   H     0.00853   0.46592   0.88055   0.00000  Uiso   1.00
H714   H     0.30835   0.44328   0.95764   0.00000  Uiso   1.00
H715   H     0.02498   0.55672   0.54236   0.00000  Uiso   1.00
H716   H     0.07910   0.45509   0.57239   0.00000  Uiso   1.00
H717   H     0.25423   0.54491   0.92761   0.00000  Uiso   1.00
H718   H     0.23534   0.34642   0.75575   0.00000  Uiso   1.00
N719   N     0.31506   0.51401   0.76212   0.00000  Uiso   1.00
N720   N     0.01827   0.48599   0.73788   0.00000  Uiso   1.00
O721   O     0.12815   0.57142   0.74686   0.00000  Uiso   1.00
O722   O     0.20518   0.42858   0.75314   0.00000  Uiso   1.00
O723   O     0.22829   0.58086   0.75503   0.00000  Uiso   1.00
O724   O     0.10504   0.41914   0.74498   0.00000  Uiso   1.00
O725   O     0.08851   0.49263   0.80855   0.00000  Uiso   1.00
O726   O     0.24482   0.50737   0.69146   0.00000  Uiso   1.00
O727   O     0.18866   0.50207   0.81671   0.00000  Uiso   1.00
O728   O     0.14468   0.49793   0.68329   0.00000  Uiso   1.00
C729   C     0.51500   0.60004   0.75134   0.00000  Uiso   1.00
C730   C     0.53796   0.50732   0.66730   0.00000  Uiso   1.00
C731   C     0.44114   0.48220   0.87959   0.00000  Uiso   1.00
C732   C     0.55886   0.51780   0.62041   0.00000  Uiso   1.00
C733   C     0.35795   0.45731   0.94343   0.00000  Uiso   1.00
C734   C     0.64205   0.54269   0.55657   0.00000  Uiso   1.00
C735   C     0.37694   0.46944   0.89950   0.00000  Uiso   1.00
C736   C     0.62306   0.53056   0.60050   0.00000  Uiso   1.00
C737   C     0.48589   0.48169   0.90464   0.00000  Uiso   1.00
C738   C     0.51411   0.51832   0.59536   0.00000  Uiso   1.00
C739   C     0.46696   0.48497   0.95022   0.00000  Uiso   1.00
C740   C     0.48500   0.39996   0.74866   0.00000  Uiso   1.00
C741   C     0.53304   0.51503   0.54978   0.00000  Uiso   1.00
C742   C     0.40255   0.46616   0.96919   0.00000  Uiso   1.00
C743   C     0.59745   0.53384   0.53081   0.00000  Uiso   1.00
C744   C     0.51018   0.50381   0.97734   0.00000  Uiso   1.00
C745   C     0.48982   0.49619   0.52266   0.00000  Uiso   1.00
C746   C     0.45504   0.53895   0.61537   0.00000  Uiso   1.00
C747   C     0.54496   0.46105   0.88464   0.00000  Uiso   1.00
C748   C     0.42796   0.46758   0.53919   0.00000  Uiso   1.00
C749   C     0.57204   0.53242   0.96081   0.00000  Uiso   1.00
C750   C     0.38423   0.45489   0.51321   0.00000  Uiso   1.00
C751   C     0.61577   0.54511   0.98679   0.00000  Uiso   1.00
C752   C     0.52345   0.65600   0.75199   0.00000  Uiso   1.00
C753   C     0.47655   0.34400   0.74801   0.00000  Uiso   1.00
C754   C     0.46204   0.49268   0.83270   0.00000  Uiso   1.00
Cu755  Cu    0.44071   0.49441   0.74517   0.00000  Uiso   1.00
Cu756  Cu    0.55929   0.50559   0.75484   0.00000  Uiso   1.00
H757   H     0.33598   0.43622   0.52762   0.00000  Uiso   1.00
H758   H     0.43133   0.65358   0.74425   0.00000  Uiso   1.00
H759   H     0.33492   0.53860   0.78446   0.00000  Uiso   1.00
H760   H     0.66508   0.46140   0.71554   0.00000  Uiso   1.00
H761   H     0.43854   0.55649   0.59055   0.00000  Uiso   1.00
H762   H     0.41647   0.50727   0.63176   0.00000  Uiso   1.00
H763   H     0.46523   0.57135   0.63927   0.00000  Uiso   1.00
H764   H     0.58353   0.49273   0.86824   0.00000  Uiso   1.00
H765   H     0.56146   0.44351   0.90945   0.00000  Uiso   1.00
H766   H     0.53477   0.42865   0.86073   0.00000  Uiso   1.00
H767   H     0.66402   0.56378   0.97238   0.00000  Uiso   1.00
H768   H     0.65814   0.53408   0.61945   0.00000  Uiso   1.00
H769   H     0.34186   0.46592   0.88055   0.00000  Uiso   1.00
H770   H     0.64169   0.44328   0.95764   0.00000  Uiso   1.00
H771   H     0.35831   0.55672   0.54236   0.00000  Uiso   1.00
H772   H     0.41244   0.45509   0.57239   0.00000  Uiso   1.00
H773   H     0.58756   0.54491   0.92761   0.00000  Uiso   1.00
H774   H     0.56867   0.34642   0.75575   0.00000  Uiso   1.00
N775   N     0.64839   0.51401   0.76212   0.00000  Uiso   1.00
N776   N     0.35161   0.48599   0.73788   0.00000  Uiso   1.00
O777   O     0.46148   0.57142   0.74686   0.00000  Uiso   1.00
O778   O     0.53852   0.42858   0.75314   0.00000  Uiso   1.00
O779   O     0.56163   0.58086   0.75503   0.00000  Uiso   1.00
O780   O     0.43837   0.41914   0.74498   0.00000  Uiso   1.00
O781   O     0.42185   0.49263   0.80855   0.00000  Uiso   1.00
O782   O     0.57815   0.50737   0.69146   0.00000  Uiso   1.00
O783   O     0.52199   0.50207   0.81671   0.00000  Uiso   1.00
O784   O     0.47801   0.49793   0.68329   0.00000  Uiso   1.00
C785   C     0.84833   0.60004   0.75134   0.00000  Uiso   1.00
C786   C     0.87129   0.50732   0.66730   0.00000  Uiso   1.00
C787   C     0.77447   0.48220   0.87959   0.00000  Uiso   1.00
C788   C     0.89219   0.51780   0.62041   0.00000  Uiso   1.00
C789   C     0.69128   0.45731   0.94343   0.00000  Uiso   1.00
C790   C     0.97539   0.54269   0.55657   0.00000  Uiso   1.00
C791   C     0.71027   0.46944   0.89950   0.00000  Uiso   1.00
C792   C     0.95640   0.53056   0.60050   0.00000  Uiso   1.00
C793   C     0.81922   0.48169   0.90464   0.00000  Uiso   1.00
C794   C     0.84745   0.51832   0.59536   0.00000  Uiso   1.00
C795   C     0.80030   0.48497   0.95022   0.00000  Uiso   1.00
C796   C     0.81834   0.39996   0.74866   0.00000  Uiso   1.00
C797   C     0.86637   0.51503   0.54978   0.00000  Uiso   1.00
C798   C     0.73588   0.46616   0.96919   0.00000  Uiso   1.00
C799   C     0.93078   0.53384   0.53081   0.00000  Uiso   1.00
C800   C     0.84351   0.50381   0.97734   0.00000  Uiso   1.00
C801   C     0.82316   0.49619   0.52266   0.00000  Uiso   1.00
C802   C     0.78838   0.53895   0.61537   0.00000  Uiso   1.00
C803   C     0.87829   0.46105   0.88464   0.00000  Uiso   1.00
C804   C     0.76129   0.46758   0.53919   0.00000  Uiso   1.00
C805   C     0.90537   0.53242   0.96081   0.00000  Uiso   1.00
C806   C     0.71757   0.45489   0.51321   0.00000  Uiso   1.00
C807   C     0.94910   0.54511   0.98679   0.00000  Uiso   1.00
C808   C     0.85679   0.65600   0.75199   0.00000  Uiso   1.00
C809   C     0.80988   0.34400   0.74801   0.00000  Uiso   1.00
C810   C     0.79537   0.49268   0.83270   0.00000  Uiso   1.00
Cu811  Cu    0.77404   0.49441   0.74517   0.00000  Uiso   1.00
Cu812  Cu    0.89263   0.50559   0.75484   0.00000  Uiso   1.00
H813   H     0.66932   0.43622   0.52762   0.00000  Uiso   1.00
H814   H     0.76466   0.65358   0.74425   0.00000  Uiso   1.00
H815   H     0.66825   0.53860   0.78446   0.00000  Uiso   1.00
H816   H     0.99842   0.46140   0.71554   0.00000  Uiso   1.00
H817   H     0.77188   0.55649   0.59055   0.00000  Uiso   1.00
H818   H     0.74981   0.50727   0.63176   0.00000  Uiso   1.00
H819   H     0.79856   0.57135   0.63927   0.00000  Uiso   1.00
H820   H     0.91686   0.49273   0.86824   0.00000  Uiso   1.00
H821   H     0.89479   0.44351   0.90945   0.00000  Uiso   1.00
H822   H     0.86811   0.42865   0.86073   0.00000  Uiso   1.00
H823   H     0.99735   0.56378   0.97238   0.00000  Uiso   1.00
H824   H     0.99147   0.53408   0.61945   0.00000  Uiso   1.00
H825   H     0.67520   0.46592   0.88055   0.00000  Uiso   1.00
H826   H     0.97502   0.44328   0.95764   0.00000  Uiso   1.00
H827   H     0.69165   0.55672   0.54236   0.00000  Uiso   1.00
H828   H     0.74577   0.45509   0.57239   0.00000  Uiso   1.00
H829   H     0.92090   0.54491   0.92761   0.00000  Uiso   1.00
H830   H     0.90200   0.34642   0.75575   0.00000  Uiso   1.00
N831   N     0.98173   0.51401   0.76212   0.00000  Uiso   1.00
N832   N     0.68494   0.48599   0.73788   0.00000  Uiso   1.00
O833   O     0.79482   0.57142   0.74686   0.00000  Uiso   1.00
O834   O     0.87185   0.42858   0.75314   0.00000  Uiso   1.00
O835   O     0.89496   0.58086   0.75503   0.00000  Uiso   1.00
O836   O     0.77171   0.41914   0.74498   0.00000  Uiso   1.00
O837   O     0.75518   0.49263   0.80855   0.00000  Uiso   1.00
O838   O     0.91149   0.50737   0.69146   0.00000  Uiso   1.00
O839   O     0.85532   0.50207   0.81671   0.00000  Uiso   1.00
O840   O     0.81134   0.49793   0.68329   0.00000  Uiso   1.00
C841   C     0.18166   0.93338   0.75134   0.00000  Uiso   1.00
C842   C     0.20463   0.84065   0.66730   0.00000  Uiso   1.00
C843   C     0.10781   0.81553   0.87959   0.00000  Uiso   1.00
C844   C     0.22553   0.85114   0.62041   0.00000  Uiso   1.00
C845   C     0.02461   0.79064   0.94343   0.00000  Uiso   1.00
C846   C     0.30872   0.87602   0.55657   0.00000  Uiso   1.00
C847   C     0.04360   0.80278   0.89950   0.00000  Uiso   1.00
C848   C     0.28973   0.86389   0.60050   0.00000  Uiso   1.00
C849   C     0.15255   0.81502   0.90464   0.00000  Uiso   1.00
C850   C     0.18078   0.85165   0.59536   0.00000  Uiso   1.00
C851   C     0.13363   0.81831   0.95022   0.00000  Uiso   1.00
C852   C     0.15167   0.73329   0.74866   0.00000  Uiso   1.00
C853   C     0.19970   0.84836   0.54978   0.00000  Uiso   1.00
C854   C     0.06922   0.79949   0.96919   0.00000  Uiso   1.00
C855   C     0.26412   0.86718   0.53081   0.00000  Uiso   1.00
C856   C     0.17684   0.83714   0.97734   0.00000  Uiso   1.00
C857   C     0.15649   0.82953   0.52266   0.00000  Uiso   1.00
C858   C     0.12171   0.87228   0.61537   0.00000  Uiso   1.00
C859   C     0.21162   0.79438   0.88464   0.00000  Uiso   1.00
C860   C     0.09463   0.80091   0.53919   0.00000  Uiso   1.00
C861   C     0.23871   0.86576   0.96081   0.00000  Uiso   1.00
C862   C     0.05090   0.78823   0.51321   0.00000  Uiso   1.00
C863   C     0.28243   0.87844   0.98679   0.00000  Uiso   1.00
C864   C     0.19012   0.98933   0.75199   0.00000  Uiso   1.00
C865   C     0.14321   0.67734   0.74801   0.00000  Uiso   1.00
C866   C     0.12871   0.82602   0.83270   0.00000  Uiso   1.00
Cu867  Cu    0.10737   0.82775   0.74517   0.00000  Uiso   1.00
Cu868  Cu    0.22596   0.83892   0.75484   0.00000  Uiso   1.00
H869   H     0.00265   0.76955   0.52762   0.00000  Uiso   1.00
H870   H     0.09800   0.98691   0.74425   0.00000  Uiso   1.00
H871   H     0.00158   0.87193   0.78446   0.00000  Uiso   1.00
H872   H     0.33175   0.79474   0.71554   0.00000  Uiso   1.00
H873   H     0.10521   0.88983   0.59055   0.00000  Uiso   1.00
H874   H     0.08314   0.84060   0.63176   0.00000  Uiso   1.00
H875   H     0.13190   0.90468   0.63927   0.00000  Uiso   1.00
H876   H     0.25019   0.82607   0.86824   0.00000  Uiso   1.00
H877   H     0.22812   0.77684   0.90945   0.00000  Uiso   1.00
H878   H     0.20144   0.76199   0.86073   0.00000  Uiso   1.00
H879   H     0.33068   0.89711   0.97238   0.00000  Uiso   1.00
H880   H     0.32481   0.86741   0.61945   0.00000  Uiso   1.00
H881   H     0.00853   0.79926   0.88055   0.00000  Uiso   1.00
H882   H     0.30835   0.77662   0.95764   0.00000  Uiso   1.00
H883   H     0.02498   0.89005   0.54236   0.00000  Uiso   1.00
H884   H     0.07910   0.78843   0.57239   0.00000  Uiso   1.00
H885   H     0.25423   0.87824   0.92761   0.00000  Uiso   1.00
H886   H     0.23534   0.67975   0.75575   0.00000  Uiso   1.00
N887   N     0.31506   0.84735   0.76212   0.00000  Uiso   1.00
N888   N     0.01827   0.81932   0.73788   0.00000  Uiso   1.00
O889   O     0.12815   0.90476   0.74686   0.00000  Uiso   1.00
O890   O     0.20518   0.76191   0.75314   0.00000  Uiso   1.00
O891   O     0.22829   0.91420   0.75503   0.00000  Uiso   1.00
O892   O     0.10504   0.75247   0.74498   0.00000  Uiso   1.00
O893   O     0.08851   0.82597   0.80855   0.00000  Uiso   1.00
O894   O     0.24482   0.84070   0.69146   0.00000  Uiso   1.00
O895   O     0.18866   0.83540   0.81671   0.00000  Uiso   1.00
O896   O     0.14468   0.83126   0.68329   0.00000  Uiso   1.00
C897   C     0.51500   0.93338   0.75134   0.00000  Uiso   1.00
C898   C     0.53796   0.84065   0.66730   0.00000  Uiso   1.00
C899   C     0.44114   0.81553   0.87959   0.00000  Uiso   1.00
C900   C     0.55886   0.85114   0.62041   0.00000  Uiso   1.00
C901   C     0.35795   0.79064   0.94343   0.00000  Uiso   1.00
C902   C     0.64205   0.87602   0.55657   0.00000  Uiso   1.00
C903   C     0.37694   0.80278   0.89950   0.00000  Uiso   1.00
C904   C     0.62306   0.86389   0.60050   0.00000  Uiso   1.00
C905   C     0.48589   0.81502   0.90464   0.00000  Uiso   1.00
C906   C     0.51411   0.85165   0.59536   0.00000  Uiso   1.00
C907   C     0.46696   0.81831   0.95022   0.00000  Uiso   1.00
C908   C     0.48500   0.73329   0.74866   0.00000  Uiso   1.00
C909   C     0.53304   0.84836   0.54978   0.00000  Uiso   1.00
C910   C     0.40255   0.79949   0.96919   0.00000  Uiso   1.00
C911   C     0.59745   0.86718   0.53081   0.00000  Uiso   1.00
C912   C     0.51018   0.83714   0.97734   0.00000  Uiso   1.00
C913   C     0.48982   0.82953   0.52266   0.00000  Uiso   1.00
C914   C     0.45504   0.87228   0.61537   0.00000  Uiso   1.00
C915   C     0.54496   0.79438   0.88464   0.00000  Uiso   1.00
C916   C     0.42796   0.80091   0.53919   0.00000  Uiso   1.00
C917   C     0.57204   0.86576   0.96081   0.00000  Uiso   1.00
C918   C     0.38423   0.78823   0.51321   0.00000  Uiso   1.00
C919   C     0.61577   0.87844   0.98679   0.00000  Uiso   1.00
C920   C     0.52345   0.98933   0.75199   0.00000  Uiso   1.00
C921   C     0.47655   0.67734   0.74801   0.00000  Uiso   1.00
C922   C     0.46204   0.82602   0.83270   0.00000  Uiso   1.00
Cu923  Cu    0.44071   0.82775   0.74517   0.00000  Uiso   1.00
Cu924  Cu    0.55929   0.83892   0.75484   0.00000  Uiso   1.00
H925   H     0.33598   0.76955   0.52762   0.00000  Uiso   1.00
H926   H     0.43133   0.98691   0.74425   0.00000  Uiso   1.00
H927   H     0.33492   0.87193   0.78446   0.00000  Uiso   1.00
H928   H     0.66508   0.79474   0.71554   0.00000  Uiso   1.00
H929   H     0.43854   0.88983   0.59055   0.00000  Uiso   1.00
H930   H     0.41647   0.84060   0.63176   0.00000  Uiso   1.00
H931   H     0.46523   0.90468   0.63927   0.00000  Uiso   1.00
H932   H     0.58353   0.82607   0.86824   0.00000  Uiso   1.00
H933   H     0.56146   0.77684   0.90945   0.00000  Uiso   1.00
H934   H     0.53477   0.76199   0.86073   0.00000  Uiso   1.00
H935   H     0.66402   0.89711   0.97238   0.00000  Uiso   1.00
H936   H     0.65814   0.86741   0.61945   0.00000  Uiso   1.00
H937   H     0.34186   0.79926   0.88055   0.00000  Uiso   1.00
H938   H     0.64169   0.77662   0.95764   0.00000  Uiso   1.00
H939   H     0.35831   0.89005   0.54236   0.00000  Uiso   1.00
H940   H     0.41244   0.78843   0.57239   0.00000  Uiso   1.00
H941   H     0.58756   0.87824   0.92761   0.00000  Uiso   1.00
H942   H     0.56867   0.67975   0.75575   0.00000  Uiso   1.00
N943   N     0.64839   0.84735   0.76212   0.00000  Uiso   1.00
N944   N     0.35161   0.81932   0.73788   0.00000  Uiso   1.00
O945   O     0.46148   0.90476   0.74686   0.00000  Uiso   1.00
O946   O     0.53852   0.76191   0.75314   0.00000  Uiso   1.00
O947   O     0.56163   0.91420   0.75503   0.00000  Uiso   1.00
O948   O     0.43837   0.75247   0.74498   0.00000  Uiso   1.00
O949   O     0.42185   0.82597   0.80855   0.00000  Uiso   1.00
O950   O     0.57815   0.84070   0.69146   0.00000  Uiso   1.00
O951   O     0.52199   0.83540   0.81671   0.00000  Uiso   1.00
O952   O     0.47801   0.83126   0.68329   0.00000  Uiso   1.00
C953   C     0.84833   0.93338   0.75134   0.00000  Uiso   1.00
C954   C     0.87129   0.84065   0.66730   0.00000  Uiso   1.00
C955   C     0.77447   0.81553   0.87959   0.00000  Uiso   1.00
C956   C     0.89219   0.85114   0.62041   0.00000  Uiso   1.00
C957   C     0.69128   0.79064   0.94343   0.00000  Uiso   1.00
C958   C     0.97539   0.87602   0.55657   0.00000  Uiso   1.00
C959   C     0.71027   0.80278   0.89950   0.00000  Uiso   1.00
C960   C     0.95640   0.86389   0.60050   0.00000  Uiso   1.00
C961   C     0.81922   0.81502   0.90464   0.00000  Uiso   1.00
C962   C     0.84745   0.85165   0.59536   0.00000  Uiso   1.00
C963   C     0.80030   0.81831   0.95022   0.00000  Uiso   1.00
C964   C     0.81834   0.73329   0.74866   0.00000  Uiso   1.00
C965   C     0.86637   0.84836   0.54978   0.00000  Uiso   1.00
C966   C     0.73588   0.79949   0.96919   0.00000  Uiso   1.00
C967   C     0.93078   0.86718   0.53081   0.00000  Uiso   1.00
C968   C     0.84351   0.83714   0.97734   0.00000  Uiso   1.00
C969   C     0.82316   0.82953   0.52266   0.00000  Uiso   1.00
C970   C     0.78838   0.87228   0.61537   0.00000  Uiso   1.00
C971   C     0.87829   0.79438   0.88464   0.00000  Uiso   1.00
C972   C     0.76129   0.80091   0.53919   0.00000  Uiso   1.00
C973   C     0.90537   0.86576   0.96081   0.00000  Uiso   1.00
C974   C     0.71757   0.78823   0.51321   0.00000  Uiso   1.00
C975   C     0.94910   0.87844   0.98679   0.00000  Uiso   1.00
C976   C     0.85679   0.98933   0.75199   0.00000  Uiso   1.00
C977   C     0.80988   0.67734   0.74801   0.00000  Uiso   1.00
C978   C     0.79537   0.82602   0.83270   0.00000  Uiso   1.00
Cu979  Cu    0.77404   0.82775   0.74517   0.00000  Uiso   1.00
Cu980  Cu    0.89263   0.83892   0.75484   0.00000  Uiso   1.00
H981   H     0.66932   0.76955   0.52762   0.00000  Uiso   1.00
H982   H     0.76466   0.98691   0.74425   0.00000  Uiso   1.00
H983   H     0.66825   0.87193   0.78446   0.00000  Uiso   1.00
H984   H     0.99842   0.79474   0.71554   0.00000  Uiso   1.00
H985   H     0.77188   0.88983   0.59055   0.00000  Uiso   1.00
H986   H     0.74981   0.84060   0.63176   0.00000  Uiso   1.00
H987   H     0.79856   0.90468   0.63927   0.00000  Uiso   1.00
H988   H     0.91686   0.82607   0.86824   0.00000  Uiso   1.00
H989   H     0.89479   0.77684   0.90945   0.00000  Uiso   1.00
H990   H     0.86811   0.76199   0.86073   0.00000  Uiso   1.00
H991   H     0.99735   0.89711   0.97238   0.00000  Uiso   1.00
H992   H     0.99147   0.86741   0.61945   0.00000  Uiso   1.00
H993   H     0.67520   0.79926   0.88055   0.00000  Uiso   1.00
H994   H     0.97502   0.77662   0.95764   0.00000  Uiso   1.00
H995   H     0.69165   0.89005   0.54236   0.00000  Uiso   1.00
H996   H     0.74577   0.78843   0.57239   0.00000  Uiso   1.00
H997   H     0.92090   0.87824   0.92761   0.00000  Uiso   1.00
H998   H     0.90200   0.67975   0.75575   0.00000  Uiso   1.00
N999   N     0.98173   0.84735   0.76212   0.00000  Uiso   1.00
N1000  N     0.68494   0.81932   0.73788   0.00000  Uiso   1.00
O1001  O     0.79482   0.90476   0.74686   0.00000  Uiso   1.00
O1002  O     0.87185   0.76191   0.75314   0.00000  Uiso   1.00
O1003  O     0.89496   0.91420   0.75503   0.00000  Uiso   1.00
O1004  O     0.77171   0.75247   0.74498   0.00000  Uiso   1.00
O1005  O     0.75518   0.82597   0.80855   0.00000  Uiso   1.00
O1006  O     0.91149   0.84070   0.69146   0.00000  Uiso   1.00
O1007  O     0.85532   0.83540   0.81671   0.00000  Uiso   1.00
O1008  O     0.81134   0.83126   0.68329   0.00000  Uiso   1.00
loop_
_geom_bond_atom_site_label_1
_geom_bond_atom_site_label_2
_geom_bond_distance
_geom_bond_site_symmetry_2
_ccdc_geom_bond_type
C1     O51     1.286   .     A
C1     O49     1.292   .     A
C1     C24     1.427   .     S
C2     C4      1.476   .     S
C2     O54     1.311   .     A
C2     O56     1.290   .     A
C3     C9      1.419   .     A
C3     C26     1.476   .     S
C3     C7      1.400   .     A
C4     C8      1.400   .     A
C4     C10     1.419   .     A
C5     C14     1.402   .     A
C5     C7      1.395   .     A
C5     H154    1.083   1_455 S
C6     C15     1.402   .     A
C6     C8      1.395   .     A
C6     H99     1.083   .     S
C7     H41     1.080   .     S
C8     H40     1.080   .     S
C9     C11     1.408   .     A
C9     C19     1.520   .     S
C10    C18     1.520   .     S
C10    C13     1.408   .     A
C11    C16     1.423   .     A
C11    C14     1.413   .     A
C12    O52     1.286   .     A
C12    O50     1.292   .     A
C12    C25     1.427   .     S
C13    C17     1.423   .     A
C13    C15     1.413   .     A
C14    C526    1.393   .     S
C15    C527    1.393   1_554 S
C16    C21     1.414   .     A
C16    C521    1.416   .     S
C17    C20     1.414   .     A
C17    C520    1.416   1_554 S
C18    H34     1.109   .     S
C18    H33     1.110   .     S
C18    H35     1.111   .     S
C19    H38     1.111   .     S
C19    H36     1.109   .     S
C19    H37     1.110   .     S
C20    H44     1.079   .     S
C20    C22     1.391   .     A
C21    H45     1.079   .     S
C21    C23     1.391   .     A
C22    H29     1.084   .     S
C22    C518    1.393   1_554 S
C23    H39     1.084   .     S
C23    C519    1.393   .     S
C24    C193    1.327   .     S
C24    H214    1.088   .     S
C25    C360    1.327   1_545 S
C25    H366    1.088   1_545 S
C26    O55     1.290   .     A
C26    O53     1.311   .     A
Cu27   N48     2.021   .     S
Cu27   O53     1.955   .     S
Cu27   Cu28    2.689   .     S
Cu27   O52     1.951   .     S
Cu27   O56     1.942   .     S
Cu27   O49     1.955   .     S
Cu28   N47     2.021   .     S
Cu28   O55     1.942   .     S
Cu28   O54     1.955   .     S
Cu28   O51     1.951   .     S
Cu28   O50     1.955   .     S
H30    C193    1.088   .     S
H31    N159    1.029   1_455 S
H32    N104    1.029   .     S
H42    C61     1.083   .     S
H43    C118    1.083   1_455 S
H46    C360    1.088   1_545 S
N47    H87     1.029   .     S
N47    N104    1.296   .     S
N48    H144    1.029   1_455 S
N48    N159    1.296   1_455 S
C57    O107    1.286   .     A
C57    O105    1.292   .     A
C57    C80     1.427   .     S
C58    C60     1.476   .     S
C58    O110    1.311   .     A
C58    O112    1.290   .     A
C59    C65     1.419   .     A
C59    C82     1.476   .     S
C59    C63     1.400   .     A
C60    C64     1.400   .     A
C60    C66     1.419   .     A
C61    C70     1.402   .     A
C61    C63     1.395   .     A
C62    C71     1.402   .     A
C62    C64     1.395   .     A
C62    H155    1.083   .     S
C63    H97     1.080   .     S
C64    H96     1.080   .     S
C65    C67     1.408   .     A
C65    C75     1.520   .     S
C66    C74     1.520   .     S
C66    C69     1.408   .     A
C67    C72     1.423   .     A
C67    C70     1.413   .     A
C68    O108    1.286   .     A
C68    O106    1.292   .     A
C68    C81     1.427   .     S
C69    C73     1.423   .     A
C69    C71     1.413   .     A
C70    C582    1.393   .     S
C71    C583    1.393   1_554 S
C72    C77     1.414   .     A
C72    C577    1.416   .     S
C73    C76     1.414   .     A
C73    C576    1.416   1_554 S
C74    H90     1.109   .     S
C74    H89     1.110   .     S
C74    H91     1.111   .     S
C75    H94     1.111   .     S
C75    H92     1.109   .     S
C75    H93     1.110   .     S
C76    H100    1.079   .     S
C76    C78     1.391   .     A
C77    H101    1.079   .     S
C77    C79     1.391   .     A
C78    H85     1.084   .     S
C78    C574    1.393   1_554 S
C79    H95     1.084   .     S
C79    C575    1.393   .     S
C80    C249    1.327   .     S
C80    H270    1.088   .     S
C81    C416    1.327   1_545 S
C81    H422    1.088   1_545 S
C82    O111    1.290   .     A
C82    O109    1.311   .     A
Cu83   N104    2.021   .     S
Cu83   O109    1.955   .     S
Cu83   Cu84    2.689   .     S
Cu83   O108    1.951   .     S
Cu83   O112    1.942   .     S
Cu83   O105    1.955   .     S
Cu84   N103    2.021   .     S
Cu84   O111    1.942   .     S
Cu84   O110    1.955   .     S
Cu84   O107    1.951   .     S
Cu84   O106    1.955   .     S
H86    C249    1.088   .     S
H88    N160    1.029   .     S
H98    C117    1.083   .     S
H102   C416    1.088   1_545 S
N103   H143    1.029   .     S
N103   N160    1.296   .     S
C113   O163    1.286   .     A
C113   O161    1.292   .     A
C113   C136    1.427   .     S
C114   C116    1.476   .     S
C114   O166    1.311   .     A
C114   O168    1.290   .     A
C115   C121    1.419   .     A
C115   C138    1.476   .     S
C115   C119    1.400   .     A
C116   C120    1.400   .     A
C116   C122    1.419   .     A
C117   C126    1.402   .     A
C117   C119    1.395   .     A
C118   C127    1.402   .     A
C118   C120    1.395   .     A
C118   H43     1.083   1_655 S
C119   H153    1.080   .     S
C120   H152    1.080   .     S
C121   C123    1.408   .     A
C121   C131    1.520   .     S
C122   C130    1.520   .     S
C122   C125    1.408   .     A
C123   C128    1.423   .     A
C123   C126    1.413   .     A
C124   O164    1.286   .     A
C124   O162    1.292   .     A
C124   C137    1.427   .     S
C125   C129    1.423   .     A
C125   C127    1.413   .     A
C126   C638    1.393   .     S
C127   C639    1.393   1_554 S
C128   C133    1.414   .     A
C128   C633    1.416   .     S
C129   C132    1.414   .     A
C129   C632    1.416   1_554 S
C130   H146    1.109   .     S
C130   H145    1.110   .     S
C130   H147    1.111   .     S
C131   H150    1.111   .     S
C131   H148    1.109   .     S
C131   H149    1.110   .     S
C132   H156    1.079   .     S
C132   C134    1.391   .     A
C133   H157    1.079   .     S
C133   C135    1.391   .     A
C134   H141    1.084   .     S
C134   C630    1.393   1_554 S
C135   H151    1.084   .     S
C135   C631    1.393   .     S
C136   C305    1.327   .     S
C136   H326    1.088   .     S
C137   C472    1.327   1_545 S
C137   H478    1.088   1_545 S
C138   O167    1.290   .     A
C138   O165    1.311   .     A
Cu139  N160    2.021   .     S
Cu139  O165    1.955   .     S
Cu139  Cu140   2.689   .     S
Cu139  O164    1.951   .     S
Cu139  O168    1.942   .     S
Cu139  O161    1.955   .     S
Cu140  N159    2.021   .     S
Cu140  O167    1.942   .     S
Cu140  O166    1.955   .     S
Cu140  O163    1.951   .     S
Cu140  O162    1.955   .     S
H142   C305    1.088   .     S
H144   N48     1.029   1_655 S
H154   C5      1.083   1_655 S
H158   C472    1.088   1_545 S
N159   H31     1.029   1_655 S
N159   N48     1.296   1_655 S
C169   O219    1.286   .     A
C169   O217    1.292   .     A
C169   C192    1.427   .     S
C170   C172    1.476   .     S
C170   O222    1.311   .     A
C170   O224    1.290   .     A
C171   C177    1.419   .     A
C171   C194    1.476   .     S
C171   C175    1.400   .     A
C172   C176    1.400   .     A
C172   C178    1.419   .     A
C173   C182    1.402   .     A
C173   C175    1.395   .     A
C173   H322    1.083   1_455 S
C174   C183    1.402   .     A
C174   C176    1.395   .     A
C174   H267    1.083   .     S
C175   H209    1.080   .     S
C176   H208    1.080   .     S
C177   C179    1.408   .     A
C177   C187    1.520   .     S
C178   C186    1.520   .     S
C178   C181    1.408   .     A
C179   C184    1.423   .     A
C179   C182    1.413   .     A
C180   O220    1.286   .     A
C180   O218    1.292   .     A
C180   C193    1.427   .     S
C181   C185    1.423   .     A
C181   C183    1.413   .     A
C182   C694    1.393   .     S
C183   C695    1.393   1_554 S
C184   C189    1.414   .     A
C184   C689    1.416   .     S
C185   C188    1.414   .     A
C185   C688    1.416   1_554 S
C186   H202    1.109   .     S
C186   H201    1.110   .     S
C186   H203    1.111   .     S
C187   H206    1.111   .     S
C187   H204    1.109   .     S
C187   H205    1.110   .     S
C188   H212    1.079   .     S
C188   C190    1.391   .     A
C189   H213    1.079   .     S
C189   C191    1.391   .     A
C190   H197    1.084   .     S
C190   C686    1.393   1_554 S
C191   H207    1.084   .     S
C191   C687    1.393   .     S
C192   C361    1.327   .     S
C192   H382    1.088   .     S
C194   O223    1.290   .     A
C194   O221    1.311   .     A
Cu195  N216    2.021   .     S
Cu195  O221    1.955   .     S
Cu195  Cu196   2.689   .     S
Cu195  O220    1.951   .     S
Cu195  O224    1.942   .     S
Cu195  O217    1.955   .     S
Cu196  N215    2.021   .     S
Cu196  O223    1.942   .     S
Cu196  O222    1.955   .     S
Cu196  O219    1.951   .     S
Cu196  O218    1.955   .     S
H198   C361    1.088   .     S
H199   N327    1.029   1_455 S
H200   N272    1.029   .     S
H210   C229    1.083   .     S
H211   C286    1.083   1_455 S
N215   H255    1.029   .     S
N215   N272    1.296   .     S
N216   H312    1.029   1_455 S
N216   N327    1.296   1_455 S
C225   O275    1.286   .     A
C225   O273    1.292   .     A
C225   C248    1.427   .     S
C226   C228    1.476   .     S
C226   O278    1.311   .     A
C226   O280    1.290   .     A
C227   C233    1.419   .     A
C227   C250    1.476   .     S
C227   C231    1.400   .     A
C228   C232    1.400   .     A
C228   C234    1.419   .     A
C229   C238    1.402   .     A
C229   C231    1.395   .     A
C230   C239    1.402   .     A
C230   C232    1.395   .     A
C230   H323    1.083   .     S
C231   H265    1.080   .     S
C232   H264    1.080   .     S
C233   C235    1.408   .     A
C233   C243    1.520   .     S
C234   C242    1.520   .     S
C234   C237    1.408   .     A
C235   C240    1.423   .     A
C235   C238    1.413   .     A
C236   O276    1.286   .     A
C236   O274    1.292   .     A
C236   C249    1.427   .     S
C237   C241    1.423   .     A
C237   C239    1.413   .     A
C238   C750    1.393   .     S
C239   C751    1.393   1_554 S
C240   C245    1.414   .     A
C240   C745    1.416   .     S
C241   C244    1.414   .     A
C241   C744    1.416   1_554 S
C242   H258    1.109   .     S
C242   H257    1.110   .     S
C242   H259    1.111   .     S
C243   H262    1.111   .     S
C243   H260    1.109   .     S
C243   H261    1.110   .     S
C244   H268    1.079   .     S
C244   C246    1.391   .     A
C245   H269    1.079   .     S
C245   C247    1.391   .     A
C246   H253    1.084   .     S
C246   C742    1.393   1_554 S
C247   H263    1.084   .     S
C247   C743    1.393   .     S
C248   C417    1.327   .     S
C248   H438    1.088   .     S
C250   O279    1.290   .     A
C250   O277    1.311   .     A
Cu251  N272    2.021   .     S
Cu251  O277    1.955   .     S
Cu251  Cu252   2.689   .     S
Cu251  O276    1.951   .     S
Cu251  O280    1.942   .     S
Cu251  O273    1.955   .     S
Cu252  N271    2.021   .     S
Cu252  O279    1.942   .     S
Cu252  O278    1.955   .     S
Cu252  O275    1.951   .     S
Cu252  O274    1.955   .     S
H254   C417    1.088   .     S
H256   N328    1.029   .     S
H266   C285    1.083   .     S
N271   H311    1.029   .     S
N271   N328    1.296   .     S
C281   O331    1.286   .     A
C281   O329    1.292   .     A
C281   C304    1.427   .     S
C282   C284    1.476   .     S
C282   O334    1.311   .     A
C282   O336    1.290   .     A
C283   C289    1.419   .     A
C283   C306    1.476   .     S
C283   C287    1.400   .     A
C284   C288    1.400   .     A
C284   C290    1.419   .     A
C285   C294    1.402   .     A
C285   C287    1.395   .     A
C286   C295    1.402   .     A
C286   C288    1.395   .     A
C286   H211    1.083   1_655 S
C287   H321    1.080   .     S
C288   H320    1.080   .     S
C289   C291    1.408   .     A
C289   C299    1.520   .     S
C290   C298    1.520   .     S
C290   C293    1.408   .     A
C291   C296    1.423   .     A
C291   C294    1.413   .     A
C292   O332    1.286   .     A
C292   O330    1.292   .     A
C292   C305    1.427   .     S
C293   C297    1.423   .     A
C293   C295    1.413   .     A
C294   C806    1.393   .     S
C295   C807    1.393   1_554 S
C296   C301    1.414   .     A
C296   C801    1.416   .     S
C297   C300    1.414   .     A
C297   C800    1.416   1_554 S
C298   H314    1.109   .     S
C298   H313    1.110   .     S
C298   H315    1.111   .     S
C299   H318    1.111   .     S
C299   H316    1.109   .     S
C299   H317    1.110   .     S
C300   H324    1.079   .     S
C300   C302    1.391   .     A
C301   H325    1.079   .     S
C301   C303    1.391   .     A
C302   H309    1.084   .     S
C302   C798    1.393   1_554 S
C303   H319    1.084   .     S
C303   C799    1.393   .     S
C304   C473    1.327   .     S
C304   H494    1.088   .     S
C306   O335    1.290   .     A
C306   O333    1.311   .     A
Cu307  N328    2.021   .     S
Cu307  O333    1.955   .     S
Cu307  Cu308   2.689   .     S
Cu307  O332    1.951   .     S
Cu307  O336    1.942   .     S
Cu307  O329    1.955   .     S
Cu308  N327    2.021   .     S
Cu308  O335    1.942   .     S
Cu308  O334    1.955   .     S
Cu308  O331    1.951   .     S
Cu308  O330    1.955   .     S
H310   C473    1.088   .     S
H312   N216    1.029   1_655 S
H322   C173    1.083   1_655 S
N327   H199    1.029   1_655 S
N327   N216    1.296   1_655 S
C337   O387    1.286   .     A
C337   O385    1.292   .     A
C337   C360    1.427   .     S
C338   C340    1.476   .     S
C338   O390    1.311   .     A
C338   O392    1.290   .     A
C339   C345    1.419   .     A
C339   C362    1.476   .     S
C339   C343    1.400   .     A
C340   C344    1.400   .     A
C340   C346    1.419   .     A
C341   C350    1.402   .     A
C341   C343    1.395   .     A
C341   H490    1.083   1_455 S
C342   C351    1.402   .     A
C342   C344    1.395   .     A
C342   H435    1.083   .     S
C343   H377    1.080   .     S
C344   H376    1.080   .     S
C345   C347    1.408   .     A
C345   C355    1.520   .     S
C346   C354    1.520   .     S
C346   C349    1.408   .     A
C347   C352    1.423   .     A
C347   C350    1.413   .     A
C348   O388    1.286   .     A
C348   O386    1.292   .     A
C348   C361    1.427   .     S
C349   C353    1.423   .     A
C349   C351    1.413   .     A
C350   C862    1.393   .     S
C351   C863    1.393   1_554 S
C352   C357    1.414   .     A
C352   C857    1.416   .     S
C353   C356    1.414   .     A
C353   C856    1.416   1_554 S
C354   H370    1.109   .     S
C354   H369    1.110   .     S
C354   H371    1.111   .     S
C355   H374    1.111   .     S
C355   H372    1.109   .     S
C355   H373    1.110   .     S
C356   H380    1.079   .     S
C356   C358    1.391   .     A
C357   H381    1.079   .     S
C357   C359    1.391   .     A
C358   H365    1.084   .     S
C358   C854    1.393   1_554 S
C359   H375    1.084   .     S
C359   C855    1.393   .     S
C360   C25     1.327   1_565 S
C360   H46     1.088   1_565 S
C362   O391    1.290   .     A
C362   O389    1.311   .     A
Cu363  N384    2.021   .     S
Cu363  O389    1.955   .     S
Cu363  Cu364   2.689   .     S
Cu363  O388    1.951   .     S
Cu363  O392    1.942   .     S
Cu363  O385    1.955   .     S
Cu364  N383    2.021   .     S
Cu364  O391    1.942   .     S
Cu364  O390    1.955   .     S
Cu364  O387    1.951   .     S
Cu364  O386    1.955   .     S
H366   C25     1.088   1_565 S
H367   N495    1.029   1_455 S
H368   N440    1.029   .     S
H378   C397    1.083   .     S
H379   C454    1.083   1_455 S
N383   H423    1.029   .     S
N383   N440    1.296   .     S
N384   H480    1.029   1_455 S
N384   N495    1.296   1_455 S
C393   O443    1.286   .     A
C393   O441    1.292   .     A
C393   C416    1.427   .     S
C394   C396    1.476   .     S
C394   O446    1.311   .     A
C394   O448    1.290   .     A
C395   C401    1.419   .     A
C395   C418    1.476   .     S
C395   C399    1.400   .     A
C396   C400    1.400   .     A
C396   C402    1.419   .     A
C397   C406    1.402   .     A
C397   C399    1.395   .     A
C398   C407    1.402   .     A
C398   C400    1.395   .     A
C398   H491    1.083   .     S
C399   H433    1.080   .     S
C400   H432    1.080   .     S
C401   C403    1.408   .     A
C401   C411    1.520   .     S
C402   C410    1.520   .     S
C402   C405    1.408   .     A
C403   C408    1.423   .     A
C403   C406    1.413   .     A
C404   O444    1.286   .     A
C404   O442    1.292   .     A
C404   C417    1.427   .     S
C405   C409    1.423   .     A
C405   C407    1.413   .     A
C406   C918    1.393   .     S
C407   C919    1.393   1_554 S
C408   C413    1.414   .     A
C408   C913    1.416   .     S
C409   C412    1.414   .     A
C409   C912    1.416   1_554 S
C410   H426    1.109   .     S
C410   H425    1.110   .     S
C410   H427    1.111   .     S
C411   H430    1.111   .     S
C411   H428    1.109   .     S
C411   H429    1.110   .     S
C412   H436    1.079   .     S
C412   C414    1.391   .     A
C413   H437    1.079   .     S
C413   C415    1.391   .     A
C414   H421    1.084   .     S
C414   C910    1.393   1_554 S
C415   H431    1.084   .     S
C415   C911    1.393   .     S
C416   C81     1.327   1_565 S
C416   H102    1.088   1_565 S
C418   O447    1.290   .     A
C418   O445    1.311   .     A
Cu419  N440    2.021   .     S
Cu419  O445    1.955   .     S
Cu419  Cu420   2.689   .     S
Cu419  O444    1.951   .     S
Cu419  O448    1.942   .     S
Cu419  O441    1.955   .     S
Cu420  N439    2.021   .     S
Cu420  O447    1.942   .     S
Cu420  O446    1.955   .     S
Cu420  O443    1.951   .     S
Cu420  O442    1.955   .     S
H422   C81     1.088   1_565 S
H424   N496    1.029   .     S
H434   C453    1.083   .     S
N439   H479    1.029   .     S
N439   N496    1.296   .     S
C449   O499    1.286   .     A
C449   O497    1.292   .     A
C449   C472    1.427   .     S
C450   C452    1.476   .     S
C450   O502    1.311   .     A
C450   O504    1.290   .     A
C451   C457    1.419   .     A
C451   C474    1.476   .     S
C451   C455    1.400   .     A
C452   C456    1.400   .     A
C452   C458    1.419   .     A
C453   C462    1.402   .     A
C453   C455    1.395   .     A
C454   C463    1.402   .     A
C454   C456    1.395   .     A
C454   H379    1.083   1_655 S
C455   H489    1.080   .     S
C456   H488    1.080   .     S
C457   C459    1.408   .     A
C457   C467    1.520   .     S
C458   C466    1.520   .     S
C458   C461    1.408   .     A
C459   C464    1.423   .     A
C459   C462    1.413   .     A
C460   O500    1.286   .     A
C460   O498    1.292   .     A
C460   C473    1.427   .     S
C461   C465    1.423   .     A
C461   C463    1.413   .     A
C462   C974    1.393   .     S
C463   C975    1.393   1_554 S
C464   C469    1.414   .     A
C464   C969    1.416   .     S
C465   C468    1.414   .     A
C465   C968    1.416   1_554 S
C466   H482    1.109   .     S
C466   H481    1.110   .     S
C466   H483    1.111   .     S
C467   H486    1.111   .     S
C467   H484    1.109   .     S
C467   H485    1.110   .     S
C468   H492    1.079   .     S
C468   C470    1.391   .     A
C469   H493    1.079   .     S
C469   C471    1.391   .     A
C470   H477    1.084   .     S
C470   C966    1.393   1_554 S
C471   H487    1.084   .     S
C471   C967    1.393   .     S
C472   C137    1.327   1_565 S
C472   H158    1.088   1_565 S
C474   O503    1.290   .     A
C474   O501    1.311   .     A
Cu475  N496    2.021   .     S
Cu475  O501    1.955   .     S
Cu475  Cu476   2.689   .     S
Cu475  O500    1.951   .     S
Cu475  O504    1.942   .     S
Cu475  O497    1.955   .     S
Cu476  N495    2.021   .     S
Cu476  O503    1.942   .     S
Cu476  O502    1.955   .     S
Cu476  O499    1.951   .     S
Cu476  O498    1.955   .     S
H478   C137    1.088   1_565 S
H480   N384    1.029   1_655 S
H490   C341    1.083   1_655 S
N495   H367    1.029   1_655 S
N495   N384    1.296   1_655 S
C505   O555    1.286   .     A
C505   O553    1.292   .     A
C505   C528    1.427   .     S
C506   C508    1.476   .     S
C506   O558    1.311   .     A
C506   O560    1.290   .     A
C507   C513    1.419   .     A
C507   C530    1.476   .     S
C507   C511    1.400   .     A
C508   C512    1.400   .     A
C508   C514    1.419   .     A
C509   C518    1.402   .     A
C509   C511    1.395   .     A
C509   H658    1.083   1_455 S
C510   C519    1.402   .     A
C510   C512    1.395   .     A
C510   H603    1.083   .     S
C511   H545    1.080   .     S
C512   H544    1.080   .     S
C513   C515    1.408   .     A
C513   C523    1.520   .     S
C514   C522    1.520   .     S
C514   C517    1.408   .     A
C515   C520    1.423   .     A
C515   C518    1.413   .     A
C516   O556    1.286   .     A
C516   O554    1.292   .     A
C516   C529    1.427   .     S
C517   C521    1.423   .     A
C517   C519    1.413   .     A
C518   C22     1.393   1_556 S
C520   C525    1.414   .     A
C520   C17     1.416   1_556 S
C521   C524    1.414   .     A
C522   H538    1.109   .     S
C522   H537    1.110   .     S
C522   H539    1.111   .     S
C523   H542    1.111   .     S
C523   H540    1.109   .     S
C523   H541    1.110   .     S
C524   H548    1.079   .     S
C524   C526    1.391   .     A
C525   H549    1.079   .     S
C525   C527    1.391   .     A
C526   H533    1.084   .     S
C527   H543    1.084   .     S
C527   C15     1.393   1_556 S
C528   C697    1.327   .     S
C528   H718    1.088   .     S
C529   C864    1.327   1_545 S
C529   H870    1.088   1_545 S
C530   O559    1.290   .     A
C530   O557    1.311   .     A
Cu531  N552    2.021   .     S
Cu531  O557    1.955   .     S
Cu531  Cu532   2.689   .     S
Cu531  O556    1.951   .     S
Cu531  O560    1.942   .     S
Cu531  O553    1.955   .     S
Cu532  N551    2.021   .     S
Cu532  O559    1.942   .     S
Cu532  O558    1.955   .     S
Cu532  O555    1.951   .     S
Cu532  O554    1.955   .     S
H534   C697    1.088   .     S
H535   N663    1.029   1_455 S
H536   N608    1.029   .     S
H546   C565    1.083   .     S
H547   C622    1.083   1_455 S
H550   C864    1.088   1_545 S
N551   H591    1.029   .     S
N551   N608    1.296   .     S
N552   H648    1.029   1_455 S
N552   N663    1.296   1_455 S
C561   O611    1.286   .     A
C561   O609    1.292   .     A
C561   C584    1.427   .     S
C562   C564    1.476   .     S
C562   O614    1.311   .     A
C562   O616    1.290   .     A
C563   C569    1.419   .     A
C563   C586    1.476   .     S
C563   C567    1.400   .     A
C564   C568    1.400   .     A
C564   C570    1.419   .     A
C565   C574    1.402   .     A
C565   C567    1.395   .     A
C566   C575    1.402   .     A
C566   C568    1.395   .     A
C566   H659    1.083   .     S
C567   H601    1.080   .     S
C568   H600    1.080   .     S
C569   C571    1.408   .     A
C569   C579    1.520   .     S
C570   C578    1.520   .     S
C570   C573    1.408   .     A
C571   C576    1.423   .     A
C571   C574    1.413   .     A
C572   O612    1.286   .     A
C572   O610    1.292   .     A
C572   C585    1.427   .     S
C573   C577    1.423   .     A
C573   C575    1.413   .     A
C574   C78     1.393   1_556 S
C576   C581    1.414   .     A
C576   C73     1.416   1_556 S
C577   C580    1.414   .     A
C578   H594    1.109   .     S
C578   H593    1.110   .     S
C578   H595    1.111   .     S
C579   H598    1.111   .     S
C579   H596    1.109   .     S
C579   H597    1.110   .     S
C580   H604    1.079   .     S
C580   C582    1.391   .     A
C581   H605    1.079   .     S
C581   C583    1.391   .     A
C582   H589    1.084   .     S
C583   H599    1.084   .     S
C583   C71     1.393   1_556 S
C584   C753    1.327   .     S
C584   H774    1.088   .     S
C585   C920    1.327   1_545 S
C585   H926    1.088   1_545 S
C586   O615    1.290   .     A
C586   O613    1.311   .     A
Cu587  N608    2.021   .     S
Cu587  O613    1.955   .     S
Cu587  Cu588   2.689   .     S
Cu587  O612    1.951   .     S
Cu587  O616    1.942   .     S
Cu587  O609    1.955   .     S
Cu588  N607    2.021   .     S
Cu588  O615    1.942   .     S
Cu588  O614    1.955   .     S
Cu588  O611    1.951   .     S
Cu588  O610    1.955   .     S
H590   C753    1.088   .     S
H592   N664    1.029   .     S
H602   C621    1.083   .     S
H606   C920    1.088   1_545 S
N607   H647    1.029   .     S
N607   N664    1.296   .     S
C617   O667    1.286   .     A
C617   O665    1.292   .     A
C617   C640    1.427   .     S
C618   C620    1.476   .     S
C618   O670    1.311   .     A
C618   O672    1.290   .     A
C619   C625    1.419   .     A
C619   C642    1.476   .     S
C619   C623    1.400   .     A
C620   C624    1.400   .     A
C620   C626    1.419   .     A
C621   C630    1.402   .     A
C621   C623    1.395   .     A
C622   C631    1.402   .     A
C622   C624    1.395   .     A
C622   H547    1.083   1_655 S
C623   H657    1.080   .     S
C624   H656    1.080   .     S
C625   C627    1.408   .     A
C625   C635    1.520   .     S
C626   C634    1.520   .     S
C626   C629    1.408   .     A
C627   C632    1.423   .     A
C627   C630    1.413   .     A
C628   O668    1.286   .     A
C628   O666    1.292   .     A
C628   C641    1.427   .     S
C629   C633    1.423   .     A
C629   C631    1.413   .     A
C630   C134    1.393   1_556 S
C632   C637    1.414   .     A
C632   C129    1.416   1_556 S
C633   C636    1.414   .     A
C634   H650    1.109   .     S
C634   H649    1.110   .     S
C634   H651    1.111   .     S
C635   H654    1.111   .     S
C635   H652    1.109   .     S
C635   H653    1.110   .     S
C636   H660    1.079   .     S
C636   C638    1.391   .     A
C637   H661    1.079   .     S
C637   C639    1.391   .     A
C638   H645    1.084   .     S
C639   H655    1.084   .     S
C639   C127    1.393   1_556 S
C640   C809    1.327   .     S
C640   H830    1.088   .     S
C641   C976    1.327   1_545 S
C641   H982    1.088   1_545 S
C642   O671    1.290   .     A
C642   O669    1.311   .     A
Cu643  N664    2.021   .     S
Cu643  O669    1.955   .     S
Cu643  Cu644   2.689   .     S
Cu643  O668    1.951   .     S
Cu643  O672    1.942   .     S
Cu643  O665    1.955   .     S
Cu644  N663    2.021   .     S
Cu644  O671    1.942   .     S
Cu644  O670    1.955   .     S
Cu644  O667    1.951   .     S
Cu644  O666    1.955   .     S
H646   C809    1.088   .     S
H648   N552    1.029   1_655 S
H658   C509    1.083   1_655 S
H662   C976    1.088   1_545 S
N663   H535    1.029   1_655 S
N663   N552    1.296   1_655 S
C673   O723    1.286   .     A
C673   O721    1.292   .     A
C673   C696    1.427   .     S
C674   C676    1.476   .     S
C674   O726    1.311   .     A
C674   O728    1.290   .     A
C675   C681    1.419   .     A
C675   C698    1.476   .     S
C675   C679    1.400   .     A
C676   C680    1.400   .     A
C676   C682    1.419   .     A
C677   C686    1.402   .     A
C677   C679    1.395   .     A
C677   H826    1.083   1_455 S
C678   C687    1.402   .     A
C678   C680    1.395   .     A
C678   H771    1.083   .     S
C679   H713    1.080   .     S
C680   H712    1.080   .     S
C681   C683    1.408   .     A
C681   C691    1.520   .     S
C682   C690    1.520   .     S
C682   C685    1.408   .     A
C683   C688    1.423   .     A
C683   C686    1.413   .     A
C684   O724    1.286   .     A
C684   O722    1.292   .     A
C684   C697    1.427   .     S
C685   C689    1.423   .     A
C685   C687    1.413   .     A
C686   C190    1.393   1_556 S
C688   C693    1.414   .     A
C688   C185    1.416   1_556 S
C689   C692    1.414   .     A
C690   H706    1.109   .     S
C690   H705    1.110   .     S
C690   H707    1.111   .     S
C691   H710    1.111   .     S
C691   H708    1.109   .     S
C691   H709    1.110   .     S
C692   H716    1.079   .     S
C692   C694    1.391   .     A
C693   H717    1.079   .     S
C693   C695    1.391   .     A
C694   H701    1.084   .     S
C695   H711    1.084   .     S
C695   C183    1.393   1_556 S
C696   C865    1.327   .     S
C696   H886    1.088   .     S
C698   O727    1.290   .     A
C698   O725    1.311   .     A
Cu699  N720    2.021   .     S
Cu699  O725    1.955   .     S
Cu699  Cu700   2.689   .     S
Cu699  O724    1.951   .     S
Cu699  O728    1.942   .     S
Cu699  O721    1.955   .     S
Cu700  N719    2.021   .     S
Cu700  O727    1.942   .     S
Cu700  O726    1.955   .     S
Cu700  O723    1.951   .     S
Cu700  O722    1.955   .     S
H702   C865    1.088   .     S
H703   N831    1.029   1_455 S
H704   N776    1.029   .     S
H714   C733    1.083   .     S
H715   C790    1.083   1_455 S
N719   H759    1.029   .     S
N719   N776    1.296   .     S
N720   H816    1.029   1_455 S
N720   N831    1.296   1_455 S
C729   O779    1.286   .     A
C729   O777    1.292   .     A
C729   C752    1.427   .     S
C730   C732    1.476   .     S
C730   O782    1.311   .     A
C730   O784    1.290   .     A
C731   C737    1.419   .     A
C731   C754    1.476   .     S
C731   C735    1.400   .     A
C732   C736    1.400   .     A
C732   C738    1.419   .     A
C733   C742    1.402   .     A
C733   C735    1.395   .     A
C734   C743    1.402   .     A
C734   C736    1.395   .     A
C734   H827    1.083   .     S
C735   H769    1.080   .     S
C736   H768    1.080   .     S
C737   C739    1.408   .     A
C737   C747    1.520   .     S
C738   C746    1.520   .     S
C738   C741    1.408   .     A
C739   C744    1.423   .     A
C739   C742    1.413   .     A
C740   O780    1.286   .     A
C740   O778    1.292   .     A
C740   C753    1.427   .     S
C741   C745    1.423   .     A
C741   C743    1.413   .     A
C742   C246    1.393   1_556 S
C744   C749    1.414   .     A
C744   C241    1.416   1_556 S
C745   C748    1.414   .     A
C746   H762    1.109   .     S
C746   H761    1.110   .     S
C746   H763    1.111   .     S
C747   H766    1.111   .     S
C747   H764    1.109   .     S
C747   H765    1.110   .     S
C748   H772    1.079   .     S
C748   C750    1.391   .     A
C749   H773    1.079   .     S
C749   C751    1.391   .     A
C750   H757    1.084   .     S
C751   H767    1.084   .     S
C751   C239    1.393   1_556 S
C752   C921    1.327   .     S
C752   H942    1.088   .     S
C754   O783    1.290   .     A
C754   O781    1.311   .     A
Cu755  N776    2.021   .     S
Cu755  O781    1.955   .     S
Cu755  Cu756   2.689   .     S
Cu755  O780    1.951   .     S
Cu755  O784    1.942   .     S
Cu755  O777    1.955   .     S
Cu756  N775    2.021   .     S
Cu756  O783    1.942   .     S
Cu756  O782    1.955   .     S
Cu756  O779    1.951   .     S
Cu756  O778    1.955   .     S
H758   C921    1.088   .     S
H760   N832    1.029   .     S
H770   C789    1.083   .     S
N775   H815    1.029   .     S
N775   N832    1.296   .     S
C785   O835    1.286   .     A
C785   O833    1.292   .     A
C785   C808    1.427   .     S
C786   C788    1.476   .     S
C786   O838    1.311   .     A
C786   O840    1.290   .     A
C787   C793    1.419   .     A
C787   C810    1.476   .     S
C787   C791    1.400   .     A
C788   C792    1.400   .     A
C788   C794    1.419   .     A
C789   C798    1.402   .     A
C789   C791    1.395   .     A
C790   C799    1.402   .     A
C790   C792    1.395   .     A
C790   H715    1.083   1_655 S
C791   H825    1.080   .     S
C792   H824    1.080   .     S
C793   C795    1.408   .     A
C793   C803    1.520   .     S
C794   C802    1.520   .     S
C794   C797    1.408   .     A
C795   C800    1.423   .     A
C795   C798    1.413   .     A
C796   O836    1.286   .     A
C796   O834    1.292   .     A
C796   C809    1.427   .     S
C797   C801    1.423   .     A
C797   C799    1.413   .     A
C798   C302    1.393   1_556 S
C800   C805    1.414   .     A
C800   C297    1.416   1_556 S
C801   C804    1.414   .     A
C802   H818    1.109   .     S
C802   H817    1.110   .     S
C802   H819    1.111   .     S
C803   H822    1.111   .     S
C803   H820    1.109   .     S
C803   H821    1.110   .     S
C804   H828    1.079   .     S
C804   C806    1.391   .     A
C805   H829    1.079   .     S
C805   C807    1.391   .     A
C806   H813    1.084   .     S
C807   H823    1.084   .     S
C807   C295    1.393   1_556 S
C808   C977    1.327   .     S
C808   H998    1.088   .     S
C810   O839    1.290   .     A
C810   O837    1.311   .     A
Cu811  N832    2.021   .     S
Cu811  O837    1.955   .     S
Cu811  Cu812   2.689   .     S
Cu811  O836    1.951   .     S
Cu811  O840    1.942   .     S
Cu811  O833    1.955   .     S
Cu812  N831    2.021   .     S
Cu812  O839    1.942   .     S
Cu812  O838    1.955   .     S
Cu812  O835    1.951   .     S
Cu812  O834    1.955   .     S
H814   C977    1.088   .     S
H816   N720    1.029   1_655 S
H826   C677    1.083   1_655 S
N831   H703    1.029   1_655 S
N831   N720    1.296   1_655 S
C841   O891    1.286   .     A
C841   O889    1.292   .     A
C841   C864    1.427   .     S
C842   C844    1.476   .     S
C842   O894    1.311   .     A
C842   O896    1.290   .     A
C843   C849    1.419   .     A
C843   C866    1.476   .     S
C843   C847    1.400   .     A
C844   C848    1.400   .     A
C844   C850    1.419   .     A
C845   C854    1.402   .     A
C845   C847    1.395   .     A
C845   H994    1.083   1_455 S
C846   C855    1.402   .     A
C846   C848    1.395   .     A
C846   H939    1.083   .     S
C847   H881    1.080   .     S
C848   H880    1.080   .     S
C849   C851    1.408   .     A
C849   C859    1.520   .     S
C850   C858    1.520   .     S
C850   C853    1.408   .     A
C851   C856    1.423   .     A
C851   C854    1.413   .     A
C852   O892    1.286   .     A
C852   O890    1.292   .     A
C852   C865    1.427   .     S
C853   C857    1.423   .     A
C853   C855    1.413   .     A
C854   C358    1.393   1_556 S
C856   C861    1.414   .     A
C856   C353    1.416   1_556 S
C857   C860    1.414   .     A
C858   H874    1.109   .     S
C858   H873    1.110   .     S
C858   H875    1.111   .     S
C859   H878    1.111   .     S
C859   H876    1.109   .     S
C859   H877    1.110   .     S
C860   H884    1.079   .     S
C860   C862    1.391   .     A
C861   H885    1.079   .     S
C861   C863    1.391   .     A
C862   H869    1.084   .     S
C863   H879    1.084   .     S
C863   C351    1.393   1_556 S
C864   C529    1.327   1_565 S
C864   H550    1.088   1_565 S
C866   O895    1.290   .     A
C866   O893    1.311   .     A
Cu867  N888    2.021   .     S
Cu867  O893    1.955   .     S
Cu867  Cu868   2.689   .     S
Cu867  O892    1.951   .     S
Cu867  O896    1.942   .     S
Cu867  O889    1.955   .     S
Cu868  N887    2.021   .     S
Cu868  O895    1.942   .     S
Cu868  O894    1.955   .     S
Cu868  O891    1.951   .     S
Cu868  O890    1.955   .     S
H870   C529    1.088   1_565 S
H871   N999    1.029   1_455 S
H872   N944    1.029   .     S
H882   C901    1.083   .     S
H883   C958    1.083   1_455 S
N887   H927    1.029   .     S
N887   N944    1.296   .     S
N888   H984    1.029   1_455 S
N888   N999    1.296   1_455 S
C897   O947    1.286   .     A
C897   O945    1.292   .     A
C897   C920    1.427   .     S
C898   C900    1.476   .     S
C898   O950    1.311   .     A
C898   O952    1.290   .     A
C899   C905    1.419   .     A
C899   C922    1.476   .     S
C899   C903    1.400   .     A
C900   C904    1.400   .     A
C900   C906    1.419   .     A
C901   C910    1.402   .     A
C901   C903    1.395   .     A
C902   C911    1.402   .     A
C902   C904    1.395   .     A
C902   H995    1.083   .     S
C903   H937    1.080   .     S
C904   H936    1.080   .     S
C905   C907    1.408   .     A
C905   C915    1.520   .     S
C906   C914    1.520   .     S
C906   C909    1.408   .     A
C907   C912    1.423   .     A
C907   C910    1.413   .     A
C908   O948    1.286   .     A
C908   O946    1.292   .     A
C908   C921    1.427   .     S
C909   C913    1.423   .     A
C909   C911    1.413   .     A
C910   C414    1.393   1_556 S
C912   C917    1.414   .     A
C912   C409    1.416   1_556 S
C913   C916    1.414   .     A
C914   H930    1.109   .     S
C914   H929    1.110   .     S
C914   H931    1.111   .     S
C915   H934    1.111   .     S
C915   H932    1.109   .     S
C915   H933    1.110   .     S
C916   H940    1.079   .     S
C916   C918    1.391   .     A
C917   H941    1.079   .     S
C917   C919    1.391   .     A
C918   H925    1.084   .     S
C919   H935    1.084   .     S
C919   C407    1.393   1_556 S
C920   C585    1.327   1_565 S
C920   H606    1.088   1_565 S
C922   O951    1.290   .     A
C922   O949    1.311   .     A
Cu923  N944    2.021   .     S
Cu923  O949    1.955   .     S
Cu923  Cu924   2.689   .     S
Cu923  O948    1.951   .     S
Cu923  O952    1.942   .     S
Cu923  O945    1.955   .     S
Cu924  N943    2.021   .     S
Cu924  O951    1.942   .     S
Cu924  O950    1.955   .     S
Cu924  O947    1.951   .     S
Cu924  O946    1.955   .     S
H926   C585    1.088   1_565 S
H928   N1000   1.029   .     S
H938   C957    1.083   .     S
N943   H983    1.029   .     S
N943   N1000   1.296   .     S
C953   O1003   1.286   .     A
C953   O1001   1.292   .     A
C953   C976    1.427   .     S
C954   C956    1.476   .     S
C954   O1006   1.311   .     A
C954   O1008   1.290   .     A
C955   C961    1.419   .     A
C955   C978    1.476   .     S
C955   C959    1.400   .     A
C956   C960    1.400   .     A
C956   C962    1.419   .     A
C957   C966    1.402   .     A
C957   C959    1.395   .     A
C958   C967    1.402   .     A
C958   C960    1.395   .     A
C958   H883    1.083   1_655 S
C959   H993    1.080   .     S
C960   H992    1.080   .     S
C961   C963    1.408   .     A
C961   C971    1.520   .     S
C962   C970    1.520   .     S
C962   C965    1.408   .     A
C963   C968    1.423   .     A
C963   C966    1.413   .     A
C964   O1004   1.286   .     A
C964   O1002   1.292   .     A
C964   C977    1.427   .     S
C965   C969    1.423   .     A
C965   C967    1.413   .     A
C966   C470    1.393   1_556 S
C968   C973    1.414   .     A
C968   C465    1.416   1_556 S
C969   C972    1.414   .     A
C970   H986    1.109   .     S
C970   H985    1.110   .     S
C970   H987    1.111   .     S
C971   H990    1.111   .     S
C971   H988    1.109   .     S
C971   H989    1.110   .     S
C972   H996    1.079   .     S
C972   C974    1.391   .     A
C973   H997    1.079   .     S
C973   C975    1.391   .     A
C974   H981    1.084   .     S
C975   H991    1.084   .     S
C975   C463    1.393   1_556 S
C976   C641    1.327   1_565 S
C976   H662    1.088   1_565 S
C978   O1007   1.290   .     A
C978   O1005   1.311   .     A
Cu979  N1000   2.021   .     S
Cu979  O1005   1.955   .     S
Cu979  Cu980   2.689   .     S
Cu979  O1004   1.951   .     S
Cu979  O1008   1.942   .     S
Cu979  O1001   1.955   .     S
Cu980  N999    2.021   .     S
Cu980  O1007   1.942   .     S
Cu980  O1006   1.955   .     S
Cu980  O1003   1.951   .     S
Cu980  O1002   1.955   .     S
H982   C641    1.088   1_565 S
H984   N888    1.029   1_655 S
H994   C845    1.083   1_655 S
N999   H871    1.029   1_655 S
N999   N888    1.296   1_655 S
