data_str_m1_o10_o18_pcu_sym.194
_audit_creation_date              2020-01-03
_audit_creation_method            'Materials Studio'
_symmetry_space_group_name_H-M    'P1'
_symmetry_Int_Tables_number       1
_symmetry_cell_setting            triclinic
loop_
_symmetry_equiv_pos_as_xyz
  x,y,z
_cell_length_a                    32.5367
_cell_length_b                    32.5252
_cell_length_c                    35.7477
_cell_angle_alpha                 98.2385
_cell_angle_beta                  73.2181
_cell_angle_gamma                 98.5664
loop_
_atom_site_label
_atom_site_type_symbol
_atom_site_fract_x
_atom_site_fract_y
_atom_site_fract_z
_atom_site_U_iso_or_equiv
_atom_site_adp_type
_atom_site_occupancy
C1     C     0.05249   0.15988   0.25874   0.00000  Uiso   1.00
C2     C     0.19047   0.12634   0.46243   0.00000  Uiso   1.00
C3     C     0.20834   0.10375   0.48251   0.00000  Uiso   1.00
C4     C     0.28103   0.17350   0.24120   0.00000  Uiso   1.00
C5     C     0.20085   0.11220   0.02295   0.00000  Uiso   1.00
C6     C     0.17463   0.14393   0.04371   0.00000  Uiso   1.00
C7     C     0.22158   0.09102   0.04253   0.00000  Uiso   1.00
C8     C     0.21781   0.10199   0.08232   0.00000  Uiso   1.00
C9     C     0.17621   0.15781   0.08239   0.00000  Uiso   1.00
C10    C     0.32701   0.17596   0.23751   0.00000  Uiso   1.00
C11    C     0.00711   0.15748   0.26215   0.00000  Uiso   1.00
C12    C     0.12115   0.23273   0.41844   0.00000  Uiso   1.00
C13    C     0.18080   0.32213   0.23816   0.00000  Uiso   1.00
C14    C     0.15151   0.01208   0.26212   0.00000  Uiso   1.00
C15    C     0.15588   0.05610   0.25892   0.00000  Uiso   1.00
C16    C     0.17683   0.27765   0.24137   0.00000  Uiso   1.00
C17    C     0.18809   0.14516   0.14413   0.00000  Uiso   1.00
C18    C     0.14505   0.18716   0.35618   0.00000  Uiso   1.00
C19    C     0.13561   0.19470   0.39923   0.00000  Uiso   1.00
C20    C     0.19584   0.13593   0.10195   0.00000  Uiso   1.00
C21    C     0.11181   0.24036   0.45914   0.00000  Uiso   1.00
C22    C     0.14099   0.16414   0.42139   0.00000  Uiso   1.00
C23    C     0.14116   0.17624   0.46117   0.00000  Uiso   1.00
C24    C     0.12169   0.21233   0.48065   0.00000  Uiso   1.00
C25    C     0.16003   0.15417   0.48234   0.00000  Uiso   1.00
C26    C     0.15092   0.16276   0.02403   0.00000  Uiso   1.00
C27    C     0.11955   0.19080   0.04341   0.00000  Uiso   1.00
C28    C     0.10972   0.21843   0.02158   0.00000  Uiso   1.00
H29    H     0.08935   0.24263   0.03660   0.00000  Uiso   1.00
H30    H     0.31809   0.14063   0.28534   0.00000  Uiso   1.00
H31    H     0.20783   0.00273   0.21611   0.00000  Uiso   1.00
H32    H     0.09786   0.26865   0.47370   0.00000  Uiso   1.00
H33    H     0.19663   0.11225   0.36940   0.00000  Uiso   1.00
H34    H     0.06825   0.14298   0.13503   0.00000  Uiso   1.00
H35    H     0.01671   0.19287   0.21467   0.00000  Uiso   1.00
H36    H     0.12411   0.33227   0.28427   0.00000  Uiso   1.00
H37    H     0.16250   0.18558   0.09789   0.00000  Uiso   1.00
H38    H     0.23255   0.08454   0.09763   0.00000  Uiso   1.00
H39    H     0.23036   0.08146   0.46599   0.00000  Uiso   1.00
H40    H     0.11563   0.25598   0.40209   0.00000  Uiso   1.00
H41    H     0.20199   0.12269   0.43097   0.00000  Uiso   1.00
H42    H     0.24067   0.06605   0.02704   0.00000  Uiso   1.00
O43    O     0.16667   0.16667   0.25000   0.00000  Uiso   1.00
O44    O     0.15693   0.12393   0.16625   0.00000  Uiso   1.00
O45    O     0.12687   0.20646   0.33749   0.00000  Uiso   1.00
O46    O     0.21088   0.17493   0.15877   0.00000  Uiso   1.00
O47    O     0.17198   0.16135   0.33749   0.00000  Uiso   1.00
O48    O     0.11136   0.08531   0.43976   0.00000  Uiso   1.00
O49    O     0.09612   0.10575   0.38259   0.00000  Uiso   1.00
O50    O     0.17338   0.08886   0.37529   0.00000  Uiso   1.00
O51    O     0.09717   0.22144   0.11946   0.00000  Uiso   1.00
O52    O     0.03888   0.19078   0.09034   0.00000  Uiso   1.00
O53    O     0.08385   0.14007   0.10672   0.00000  Uiso   1.00
O54    O     0.17849   0.08101   0.27821   0.00000  Uiso   1.00
O55    O     0.14581   0.26136   0.26767   0.00000  Uiso   1.00
O56    O     0.07452   0.13251   0.23607   0.00000  Uiso   1.00
O57    O     0.26785   0.19179   0.21806   0.00000  Uiso   1.00
O58    O     0.06990   0.18960   0.27820   0.00000  Uiso   1.00
O59    O     0.25440   0.15277   0.26768   0.00000  Uiso   1.00
O60    O     0.13800   0.06903   0.23607   0.00000  Uiso   1.00
O61    O     0.20437   0.25527   0.21806   0.00000  Uiso   1.00
S62    S     0.12947   0.10994   0.40494   0.00000  Uiso   1.00
S63    S     0.08396   0.18660   0.09129   0.00000  Uiso   1.00
Zn64   Zn    0.19244   0.14090   0.28278   0.00000  Uiso   1.00
Zn65   Zn    0.13459   0.12378   0.22258   0.00000  Uiso   1.00
Zn66   Zn    0.21166   0.19664   0.21188   0.00000  Uiso   1.00
Zn67   Zn    0.12798   0.20535   0.28277   0.00000  Uiso   1.00
C68    C     0.38582   0.15988   0.25874   0.00000  Uiso   1.00
C69    C     0.52380   0.12634   0.46243   0.00000  Uiso   1.00
C70    C     0.54167   0.10375   0.48251   0.00000  Uiso   1.00
C71    C     0.61436   0.17350   0.24120   0.00000  Uiso   1.00
C72    C     0.53418   0.11220   0.02295   0.00000  Uiso   1.00
C73    C     0.50796   0.14393   0.04371   0.00000  Uiso   1.00
C74    C     0.55491   0.09102   0.04253   0.00000  Uiso   1.00
C75    C     0.55114   0.10199   0.08232   0.00000  Uiso   1.00
C76    C     0.50954   0.15781   0.08239   0.00000  Uiso   1.00
C77    C     0.66035   0.17596   0.23751   0.00000  Uiso   1.00
C78    C     0.34045   0.15748   0.26215   0.00000  Uiso   1.00
C79    C     0.45448   0.23273   0.41844   0.00000  Uiso   1.00
C80    C     0.51413   0.32213   0.23816   0.00000  Uiso   1.00
C81    C     0.48484   0.01208   0.26212   0.00000  Uiso   1.00
C82    C     0.48921   0.05610   0.25892   0.00000  Uiso   1.00
C83    C     0.51016   0.27765   0.24137   0.00000  Uiso   1.00
C84    C     0.52142   0.14516   0.14413   0.00000  Uiso   1.00
C85    C     0.47838   0.18716   0.35618   0.00000  Uiso   1.00
C86    C     0.46894   0.19470   0.39923   0.00000  Uiso   1.00
C87    C     0.52917   0.13593   0.10195   0.00000  Uiso   1.00
C88    C     0.44514   0.24036   0.45914   0.00000  Uiso   1.00
C89    C     0.47433   0.16414   0.42139   0.00000  Uiso   1.00
C90    C     0.47450   0.17624   0.46117   0.00000  Uiso   1.00
C91    C     0.45502   0.21233   0.48065   0.00000  Uiso   1.00
C92    C     0.49337   0.15417   0.48234   0.00000  Uiso   1.00
C93    C     0.48425   0.16276   0.02403   0.00000  Uiso   1.00
C94    C     0.45289   0.19080   0.04341   0.00000  Uiso   1.00
C95    C     0.44305   0.21843   0.02158   0.00000  Uiso   1.00
H96    H     0.42269   0.24263   0.03660   0.00000  Uiso   1.00
H97    H     0.65142   0.14063   0.28534   0.00000  Uiso   1.00
H98    H     0.54117   0.00273   0.21611   0.00000  Uiso   1.00
H99    H     0.43120   0.26865   0.47370   0.00000  Uiso   1.00
H100   H     0.52996   0.11225   0.36940   0.00000  Uiso   1.00
H101   H     0.40158   0.14298   0.13503   0.00000  Uiso   1.00
H102   H     0.35004   0.19287   0.21467   0.00000  Uiso   1.00
H103   H     0.45744   0.33227   0.28427   0.00000  Uiso   1.00
H104   H     0.49583   0.18558   0.09789   0.00000  Uiso   1.00
H105   H     0.56589   0.08454   0.09763   0.00000  Uiso   1.00
H106   H     0.56369   0.08146   0.46599   0.00000  Uiso   1.00
H107   H     0.44896   0.25598   0.40209   0.00000  Uiso   1.00
H108   H     0.53533   0.12269   0.43097   0.00000  Uiso   1.00
H109   H     0.57401   0.06605   0.02704   0.00000  Uiso   1.00
O110   O     0.50000   0.16667   0.25000   0.00000  Uiso   1.00
O111   O     0.49027   0.12393   0.16625   0.00000  Uiso   1.00
O112   O     0.46020   0.20646   0.33749   0.00000  Uiso   1.00
O113   O     0.54421   0.17493   0.15877   0.00000  Uiso   1.00
O114   O     0.50532   0.16135   0.33749   0.00000  Uiso   1.00
O115   O     0.44470   0.08531   0.43976   0.00000  Uiso   1.00
O116   O     0.42945   0.10575   0.38259   0.00000  Uiso   1.00
O117   O     0.50671   0.08886   0.37529   0.00000  Uiso   1.00
O118   O     0.43051   0.22144   0.11946   0.00000  Uiso   1.00
O119   O     0.37221   0.19078   0.09034   0.00000  Uiso   1.00
O120   O     0.41718   0.14007   0.10672   0.00000  Uiso   1.00
O121   O     0.51182   0.08101   0.27821   0.00000  Uiso   1.00
O122   O     0.47914   0.26136   0.26767   0.00000  Uiso   1.00
O123   O     0.40785   0.13251   0.23607   0.00000  Uiso   1.00
O124   O     0.60119   0.19179   0.21806   0.00000  Uiso   1.00
O125   O     0.40323   0.18960   0.27820   0.00000  Uiso   1.00
O126   O     0.58773   0.15277   0.26768   0.00000  Uiso   1.00
O127   O     0.47133   0.06903   0.23607   0.00000  Uiso   1.00
O128   O     0.53771   0.25527   0.21806   0.00000  Uiso   1.00
S129   S     0.46280   0.10994   0.40494   0.00000  Uiso   1.00
S130   S     0.41729   0.18660   0.09129   0.00000  Uiso   1.00
Zn131  Zn    0.52577   0.14090   0.28278   0.00000  Uiso   1.00
Zn132  Zn    0.46792   0.12378   0.22258   0.00000  Uiso   1.00
Zn133  Zn    0.54500   0.19664   0.21188   0.00000  Uiso   1.00
Zn134  Zn    0.46131   0.20535   0.28277   0.00000  Uiso   1.00
C135   C     0.71915   0.15988   0.25874   0.00000  Uiso   1.00
C136   C     0.85714   0.12634   0.46243   0.00000  Uiso   1.00
C137   C     0.87501   0.10375   0.48251   0.00000  Uiso   1.00
C138   C     0.94770   0.17350   0.24120   0.00000  Uiso   1.00
C139   C     0.86751   0.11220   0.02295   0.00000  Uiso   1.00
C140   C     0.84130   0.14393   0.04371   0.00000  Uiso   1.00
C141   C     0.88824   0.09102   0.04253   0.00000  Uiso   1.00
C142   C     0.88448   0.10199   0.08232   0.00000  Uiso   1.00
C143   C     0.84287   0.15781   0.08239   0.00000  Uiso   1.00
C144   C     0.99368   0.17596   0.23751   0.00000  Uiso   1.00
C145   C     0.67378   0.15748   0.26215   0.00000  Uiso   1.00
C146   C     0.78781   0.23273   0.41844   0.00000  Uiso   1.00
C147   C     0.84747   0.32213   0.23816   0.00000  Uiso   1.00
C148   C     0.81818   0.01208   0.26212   0.00000  Uiso   1.00
C149   C     0.82255   0.05610   0.25892   0.00000  Uiso   1.00
C150   C     0.84349   0.27765   0.24137   0.00000  Uiso   1.00
C151   C     0.85476   0.14516   0.14413   0.00000  Uiso   1.00
C152   C     0.81172   0.18716   0.35618   0.00000  Uiso   1.00
C153   C     0.80228   0.19470   0.39923   0.00000  Uiso   1.00
C154   C     0.86251   0.13593   0.10195   0.00000  Uiso   1.00
C155   C     0.77847   0.24036   0.45914   0.00000  Uiso   1.00
C156   C     0.80766   0.16414   0.42139   0.00000  Uiso   1.00
C157   C     0.80783   0.17624   0.46117   0.00000  Uiso   1.00
C158   C     0.78835   0.21233   0.48065   0.00000  Uiso   1.00
C159   C     0.82670   0.15417   0.48234   0.00000  Uiso   1.00
C160   C     0.81759   0.16276   0.02403   0.00000  Uiso   1.00
C161   C     0.78622   0.19080   0.04341   0.00000  Uiso   1.00
C162   C     0.77639   0.21843   0.02158   0.00000  Uiso   1.00
H163   H     0.75602   0.24263   0.03660   0.00000  Uiso   1.00
H164   H     0.98476   0.14063   0.28534   0.00000  Uiso   1.00
H165   H     0.87450   0.00273   0.21611   0.00000  Uiso   1.00
H166   H     0.76453   0.26865   0.47370   0.00000  Uiso   1.00
H167   H     0.86329   0.11225   0.36940   0.00000  Uiso   1.00
H168   H     0.73492   0.14298   0.13503   0.00000  Uiso   1.00
H169   H     0.68337   0.19287   0.21467   0.00000  Uiso   1.00
H170   H     0.79078   0.33227   0.28427   0.00000  Uiso   1.00
H171   H     0.82917   0.18558   0.09789   0.00000  Uiso   1.00
H172   H     0.89922   0.08454   0.09763   0.00000  Uiso   1.00
H173   H     0.89703   0.08146   0.46599   0.00000  Uiso   1.00
H174   H     0.78230   0.25598   0.40209   0.00000  Uiso   1.00
H175   H     0.86866   0.12269   0.43097   0.00000  Uiso   1.00
H176   H     0.90734   0.06605   0.02704   0.00000  Uiso   1.00
O177   O     0.83333   0.16667   0.25000   0.00000  Uiso   1.00
O178   O     0.82360   0.12393   0.16625   0.00000  Uiso   1.00
O179   O     0.79354   0.20646   0.33749   0.00000  Uiso   1.00
O180   O     0.87755   0.17493   0.15877   0.00000  Uiso   1.00
O181   O     0.83865   0.16135   0.33749   0.00000  Uiso   1.00
O182   O     0.77803   0.08531   0.43976   0.00000  Uiso   1.00
O183   O     0.76278   0.10575   0.38259   0.00000  Uiso   1.00
O184   O     0.84005   0.08886   0.37529   0.00000  Uiso   1.00
O185   O     0.76384   0.22144   0.11946   0.00000  Uiso   1.00
O186   O     0.70555   0.19078   0.09034   0.00000  Uiso   1.00
O187   O     0.75052   0.14007   0.10672   0.00000  Uiso   1.00
O188   O     0.84515   0.08101   0.27821   0.00000  Uiso   1.00
O189   O     0.81247   0.26136   0.26767   0.00000  Uiso   1.00
O190   O     0.74119   0.13251   0.23607   0.00000  Uiso   1.00
O191   O     0.93452   0.19179   0.21806   0.00000  Uiso   1.00
O192   O     0.73656   0.18960   0.27820   0.00000  Uiso   1.00
O193   O     0.92106   0.15277   0.26768   0.00000  Uiso   1.00
O194   O     0.80467   0.06903   0.23607   0.00000  Uiso   1.00
O195   O     0.87104   0.25527   0.21806   0.00000  Uiso   1.00
S196   S     0.79613   0.10994   0.40494   0.00000  Uiso   1.00
S197   S     0.75063   0.18660   0.09129   0.00000  Uiso   1.00
Zn198  Zn    0.85910   0.14090   0.28278   0.00000  Uiso   1.00
Zn199  Zn    0.80125   0.12378   0.22258   0.00000  Uiso   1.00
Zn200  Zn    0.87833   0.19664   0.21188   0.00000  Uiso   1.00
Zn201  Zn    0.79465   0.20535   0.28277   0.00000  Uiso   1.00
C202   C     0.05249   0.49322   0.25874   0.00000  Uiso   1.00
C203   C     0.19047   0.45967   0.46243   0.00000  Uiso   1.00
C204   C     0.20834   0.43708   0.48251   0.00000  Uiso   1.00
C205   C     0.28103   0.50684   0.24120   0.00000  Uiso   1.00
C206   C     0.20085   0.44554   0.02295   0.00000  Uiso   1.00
C207   C     0.17463   0.47727   0.04371   0.00000  Uiso   1.00
C208   C     0.22158   0.42436   0.04253   0.00000  Uiso   1.00
C209   C     0.21781   0.43532   0.08232   0.00000  Uiso   1.00
C210   C     0.17621   0.49114   0.08239   0.00000  Uiso   1.00
C211   C     0.32701   0.50929   0.23751   0.00000  Uiso   1.00
C212   C     0.00711   0.49081   0.26215   0.00000  Uiso   1.00
C213   C     0.12115   0.56606   0.41844   0.00000  Uiso   1.00
C214   C     0.18080   0.65546   0.23816   0.00000  Uiso   1.00
C215   C     0.15151   0.34541   0.26212   0.00000  Uiso   1.00
C216   C     0.15588   0.38944   0.25892   0.00000  Uiso   1.00
C217   C     0.17683   0.61098   0.24137   0.00000  Uiso   1.00
C218   C     0.18809   0.47849   0.14413   0.00000  Uiso   1.00
C219   C     0.14505   0.52049   0.35618   0.00000  Uiso   1.00
C220   C     0.13561   0.52804   0.39923   0.00000  Uiso   1.00
C221   C     0.19584   0.46926   0.10195   0.00000  Uiso   1.00
C222   C     0.11181   0.57369   0.45914   0.00000  Uiso   1.00
C223   C     0.14099   0.49747   0.42139   0.00000  Uiso   1.00
C224   C     0.14116   0.50957   0.46117   0.00000  Uiso   1.00
C225   C     0.12169   0.54566   0.48065   0.00000  Uiso   1.00
C226   C     0.16003   0.48750   0.48234   0.00000  Uiso   1.00
C227   C     0.15092   0.49610   0.02403   0.00000  Uiso   1.00
C228   C     0.11955   0.52413   0.04341   0.00000  Uiso   1.00
C229   C     0.10972   0.55176   0.02158   0.00000  Uiso   1.00
H230   H     0.08935   0.57597   0.03660   0.00000  Uiso   1.00
H231   H     0.31809   0.47396   0.28534   0.00000  Uiso   1.00
H232   H     0.20783   0.33606   0.21611   0.00000  Uiso   1.00
H233   H     0.09786   0.60199   0.47370   0.00000  Uiso   1.00
H234   H     0.19663   0.44558   0.36940   0.00000  Uiso   1.00
H235   H     0.06825   0.47631   0.13503   0.00000  Uiso   1.00
H236   H     0.01671   0.52620   0.21467   0.00000  Uiso   1.00
H237   H     0.12411   0.66560   0.28427   0.00000  Uiso   1.00
H238   H     0.16250   0.51891   0.09789   0.00000  Uiso   1.00
H239   H     0.23255   0.41787   0.09763   0.00000  Uiso   1.00
H240   H     0.23036   0.41479   0.46599   0.00000  Uiso   1.00
H241   H     0.11563   0.58931   0.40209   0.00000  Uiso   1.00
H242   H     0.20199   0.45602   0.43097   0.00000  Uiso   1.00
H243   H     0.24067   0.39939   0.02704   0.00000  Uiso   1.00
O244   O     0.16667   0.50000   0.25000   0.00000  Uiso   1.00
O245   O     0.15693   0.45726   0.16625   0.00000  Uiso   1.00
O246   O     0.12687   0.53979   0.33749   0.00000  Uiso   1.00
O247   O     0.21088   0.50826   0.15877   0.00000  Uiso   1.00
O248   O     0.17198   0.49468   0.33749   0.00000  Uiso   1.00
O249   O     0.11136   0.41864   0.43976   0.00000  Uiso   1.00
O250   O     0.09612   0.43908   0.38259   0.00000  Uiso   1.00
O251   O     0.17338   0.42219   0.37529   0.00000  Uiso   1.00
O252   O     0.09717   0.55478   0.11946   0.00000  Uiso   1.00
O253   O     0.03888   0.52411   0.09034   0.00000  Uiso   1.00
O254   O     0.08385   0.47340   0.10672   0.00000  Uiso   1.00
O255   O     0.17849   0.41434   0.27821   0.00000  Uiso   1.00
O256   O     0.14581   0.59469   0.26767   0.00000  Uiso   1.00
O257   O     0.07452   0.46584   0.23607   0.00000  Uiso   1.00
O258   O     0.26785   0.52512   0.21806   0.00000  Uiso   1.00
O259   O     0.06990   0.52293   0.27820   0.00000  Uiso   1.00
O260   O     0.25440   0.48610   0.26768   0.00000  Uiso   1.00
O261   O     0.13800   0.40236   0.23607   0.00000  Uiso   1.00
O262   O     0.20437   0.58860   0.21806   0.00000  Uiso   1.00
S263   S     0.12947   0.44328   0.40494   0.00000  Uiso   1.00
S264   S     0.08396   0.51993   0.09129   0.00000  Uiso   1.00
Zn265  Zn    0.19244   0.47423   0.28278   0.00000  Uiso   1.00
Zn266  Zn    0.13459   0.45711   0.22258   0.00000  Uiso   1.00
Zn267  Zn    0.21166   0.52997   0.21188   0.00000  Uiso   1.00
Zn268  Zn    0.12798   0.53868   0.28277   0.00000  Uiso   1.00
C269   C     0.38582   0.49322   0.25874   0.00000  Uiso   1.00
C270   C     0.52380   0.45967   0.46243   0.00000  Uiso   1.00
C271   C     0.54167   0.43708   0.48251   0.00000  Uiso   1.00
C272   C     0.61436   0.50684   0.24120   0.00000  Uiso   1.00
C273   C     0.53418   0.44554   0.02295   0.00000  Uiso   1.00
C274   C     0.50796   0.47727   0.04371   0.00000  Uiso   1.00
C275   C     0.55491   0.42436   0.04253   0.00000  Uiso   1.00
C276   C     0.55114   0.43532   0.08232   0.00000  Uiso   1.00
C277   C     0.50954   0.49114   0.08239   0.00000  Uiso   1.00
C278   C     0.66035   0.50929   0.23751   0.00000  Uiso   1.00
C279   C     0.34045   0.49081   0.26215   0.00000  Uiso   1.00
C280   C     0.45448   0.56606   0.41844   0.00000  Uiso   1.00
C281   C     0.51413   0.65546   0.23816   0.00000  Uiso   1.00
C282   C     0.48484   0.34541   0.26212   0.00000  Uiso   1.00
C283   C     0.48921   0.38944   0.25892   0.00000  Uiso   1.00
C284   C     0.51016   0.61098   0.24137   0.00000  Uiso   1.00
C285   C     0.52142   0.47849   0.14413   0.00000  Uiso   1.00
C286   C     0.47838   0.52049   0.35618   0.00000  Uiso   1.00
C287   C     0.46894   0.52804   0.39923   0.00000  Uiso   1.00
C288   C     0.52917   0.46926   0.10195   0.00000  Uiso   1.00
C289   C     0.44514   0.57369   0.45914   0.00000  Uiso   1.00
C290   C     0.47433   0.49747   0.42139   0.00000  Uiso   1.00
C291   C     0.47450   0.50957   0.46117   0.00000  Uiso   1.00
C292   C     0.45502   0.54566   0.48065   0.00000  Uiso   1.00
C293   C     0.49337   0.48750   0.48234   0.00000  Uiso   1.00
C294   C     0.48425   0.49610   0.02403   0.00000  Uiso   1.00
C295   C     0.45289   0.52413   0.04341   0.00000  Uiso   1.00
C296   C     0.44305   0.55176   0.02158   0.00000  Uiso   1.00
H297   H     0.42269   0.57597   0.03660   0.00000  Uiso   1.00
H298   H     0.65142   0.47396   0.28534   0.00000  Uiso   1.00
H299   H     0.54117   0.33606   0.21611   0.00000  Uiso   1.00
H300   H     0.43120   0.60199   0.47370   0.00000  Uiso   1.00
H301   H     0.52996   0.44558   0.36940   0.00000  Uiso   1.00
H302   H     0.40158   0.47631   0.13503   0.00000  Uiso   1.00
H303   H     0.35004   0.52620   0.21467   0.00000  Uiso   1.00
H304   H     0.45744   0.66560   0.28427   0.00000  Uiso   1.00
H305   H     0.49583   0.51891   0.09789   0.00000  Uiso   1.00
H306   H     0.56589   0.41787   0.09763   0.00000  Uiso   1.00
H307   H     0.56369   0.41479   0.46599   0.00000  Uiso   1.00
H308   H     0.44896   0.58931   0.40209   0.00000  Uiso   1.00
H309   H     0.53533   0.45602   0.43097   0.00000  Uiso   1.00
H310   H     0.57401   0.39939   0.02704   0.00000  Uiso   1.00
O311   O     0.50000   0.50000   0.25000   0.00000  Uiso   1.00
O312   O     0.49027   0.45726   0.16625   0.00000  Uiso   1.00
O313   O     0.46020   0.53979   0.33749   0.00000  Uiso   1.00
O314   O     0.54421   0.50826   0.15877   0.00000  Uiso   1.00
O315   O     0.50532   0.49468   0.33749   0.00000  Uiso   1.00
O316   O     0.44470   0.41864   0.43976   0.00000  Uiso   1.00
O317   O     0.42945   0.43908   0.38259   0.00000  Uiso   1.00
O318   O     0.50671   0.42219   0.37529   0.00000  Uiso   1.00
O319   O     0.43051   0.55478   0.11946   0.00000  Uiso   1.00
O320   O     0.37221   0.52411   0.09034   0.00000  Uiso   1.00
O321   O     0.41718   0.47340   0.10672   0.00000  Uiso   1.00
O322   O     0.51182   0.41434   0.27821   0.00000  Uiso   1.00
O323   O     0.47914   0.59469   0.26767   0.00000  Uiso   1.00
O324   O     0.40785   0.46584   0.23607   0.00000  Uiso   1.00
O325   O     0.60119   0.52512   0.21806   0.00000  Uiso   1.00
O326   O     0.40323   0.52293   0.27820   0.00000  Uiso   1.00
O327   O     0.58773   0.48610   0.26768   0.00000  Uiso   1.00
O328   O     0.47133   0.40236   0.23607   0.00000  Uiso   1.00
O329   O     0.53771   0.58860   0.21806   0.00000  Uiso   1.00
S330   S     0.46280   0.44328   0.40494   0.00000  Uiso   1.00
S331   S     0.41729   0.51993   0.09129   0.00000  Uiso   1.00
Zn332  Zn    0.52577   0.47423   0.28278   0.00000  Uiso   1.00
Zn333  Zn    0.46792   0.45711   0.22258   0.00000  Uiso   1.00
Zn334  Zn    0.54500   0.52997   0.21188   0.00000  Uiso   1.00
Zn335  Zn    0.46131   0.53868   0.28277   0.00000  Uiso   1.00
C336   C     0.71915   0.49322   0.25874   0.00000  Uiso   1.00
C337   C     0.85714   0.45967   0.46243   0.00000  Uiso   1.00
C338   C     0.87501   0.43708   0.48251   0.00000  Uiso   1.00
C339   C     0.94770   0.50684   0.24120   0.00000  Uiso   1.00
C340   C     0.86751   0.44554   0.02295   0.00000  Uiso   1.00
C341   C     0.84130   0.47727   0.04371   0.00000  Uiso   1.00
C342   C     0.88824   0.42436   0.04253   0.00000  Uiso   1.00
C343   C     0.88448   0.43532   0.08232   0.00000  Uiso   1.00
C344   C     0.84287   0.49114   0.08239   0.00000  Uiso   1.00
C345   C     0.99368   0.50929   0.23751   0.00000  Uiso   1.00
C346   C     0.67378   0.49081   0.26215   0.00000  Uiso   1.00
C347   C     0.78781   0.56606   0.41844   0.00000  Uiso   1.00
C348   C     0.84747   0.65546   0.23816   0.00000  Uiso   1.00
C349   C     0.81818   0.34541   0.26212   0.00000  Uiso   1.00
C350   C     0.82255   0.38944   0.25892   0.00000  Uiso   1.00
C351   C     0.84349   0.61098   0.24137   0.00000  Uiso   1.00
C352   C     0.85476   0.47849   0.14413   0.00000  Uiso   1.00
C353   C     0.81172   0.52049   0.35618   0.00000  Uiso   1.00
C354   C     0.80228   0.52804   0.39923   0.00000  Uiso   1.00
C355   C     0.86251   0.46926   0.10195   0.00000  Uiso   1.00
C356   C     0.77847   0.57369   0.45914   0.00000  Uiso   1.00
C357   C     0.80766   0.49747   0.42139   0.00000  Uiso   1.00
C358   C     0.80783   0.50957   0.46117   0.00000  Uiso   1.00
C359   C     0.78835   0.54566   0.48065   0.00000  Uiso   1.00
C360   C     0.82670   0.48750   0.48234   0.00000  Uiso   1.00
C361   C     0.81759   0.49610   0.02403   0.00000  Uiso   1.00
C362   C     0.78622   0.52413   0.04341   0.00000  Uiso   1.00
C363   C     0.77639   0.55176   0.02158   0.00000  Uiso   1.00
H364   H     0.75602   0.57597   0.03660   0.00000  Uiso   1.00
H365   H     0.98476   0.47396   0.28534   0.00000  Uiso   1.00
H366   H     0.87450   0.33606   0.21611   0.00000  Uiso   1.00
H367   H     0.76453   0.60199   0.47370   0.00000  Uiso   1.00
H368   H     0.86329   0.44558   0.36940   0.00000  Uiso   1.00
H369   H     0.73492   0.47631   0.13503   0.00000  Uiso   1.00
H370   H     0.68337   0.52620   0.21467   0.00000  Uiso   1.00
H371   H     0.79078   0.66560   0.28427   0.00000  Uiso   1.00
H372   H     0.82917   0.51891   0.09789   0.00000  Uiso   1.00
H373   H     0.89922   0.41787   0.09763   0.00000  Uiso   1.00
H374   H     0.89703   0.41479   0.46599   0.00000  Uiso   1.00
H375   H     0.78230   0.58931   0.40209   0.00000  Uiso   1.00
H376   H     0.86866   0.45602   0.43097   0.00000  Uiso   1.00
H377   H     0.90734   0.39939   0.02704   0.00000  Uiso   1.00
O378   O     0.83333   0.50000   0.25000   0.00000  Uiso   1.00
O379   O     0.82360   0.45726   0.16625   0.00000  Uiso   1.00
O380   O     0.79354   0.53979   0.33749   0.00000  Uiso   1.00
O381   O     0.87755   0.50826   0.15877   0.00000  Uiso   1.00
O382   O     0.83865   0.49468   0.33749   0.00000  Uiso   1.00
O383   O     0.77803   0.41864   0.43976   0.00000  Uiso   1.00
O384   O     0.76278   0.43908   0.38259   0.00000  Uiso   1.00
O385   O     0.84005   0.42219   0.37529   0.00000  Uiso   1.00
O386   O     0.76384   0.55478   0.11946   0.00000  Uiso   1.00
O387   O     0.70555   0.52411   0.09034   0.00000  Uiso   1.00
O388   O     0.75052   0.47340   0.10672   0.00000  Uiso   1.00
O389   O     0.84515   0.41434   0.27821   0.00000  Uiso   1.00
O390   O     0.81247   0.59469   0.26767   0.00000  Uiso   1.00
O391   O     0.74119   0.46584   0.23607   0.00000  Uiso   1.00
O392   O     0.93452   0.52512   0.21806   0.00000  Uiso   1.00
O393   O     0.73656   0.52293   0.27820   0.00000  Uiso   1.00
O394   O     0.92106   0.48610   0.26768   0.00000  Uiso   1.00
O395   O     0.80467   0.40236   0.23607   0.00000  Uiso   1.00
O396   O     0.87104   0.58860   0.21806   0.00000  Uiso   1.00
S397   S     0.79613   0.44328   0.40494   0.00000  Uiso   1.00
S398   S     0.75063   0.51993   0.09129   0.00000  Uiso   1.00
Zn399  Zn    0.85910   0.47423   0.28278   0.00000  Uiso   1.00
Zn400  Zn    0.80125   0.45711   0.22258   0.00000  Uiso   1.00
Zn401  Zn    0.87833   0.52997   0.21188   0.00000  Uiso   1.00
Zn402  Zn    0.79465   0.53868   0.28277   0.00000  Uiso   1.00
C403   C     0.05249   0.82655   0.25874   0.00000  Uiso   1.00
C404   C     0.19047   0.79300   0.46243   0.00000  Uiso   1.00
C405   C     0.20834   0.77042   0.48251   0.00000  Uiso   1.00
C406   C     0.28103   0.84017   0.24120   0.00000  Uiso   1.00
C407   C     0.20085   0.77887   0.02295   0.00000  Uiso   1.00
C408   C     0.17463   0.81060   0.04371   0.00000  Uiso   1.00
C409   C     0.22158   0.75769   0.04253   0.00000  Uiso   1.00
C410   C     0.21781   0.76865   0.08232   0.00000  Uiso   1.00
C411   C     0.17621   0.82448   0.08239   0.00000  Uiso   1.00
C412   C     0.32701   0.84263   0.23751   0.00000  Uiso   1.00
C413   C     0.00711   0.82415   0.26215   0.00000  Uiso   1.00
C414   C     0.12115   0.89939   0.41844   0.00000  Uiso   1.00
C415   C     0.18080   0.98880   0.23816   0.00000  Uiso   1.00
C416   C     0.15151   0.67874   0.26212   0.00000  Uiso   1.00
C417   C     0.15588   0.72277   0.25892   0.00000  Uiso   1.00
C418   C     0.17683   0.94432   0.24137   0.00000  Uiso   1.00
C419   C     0.18809   0.81183   0.14413   0.00000  Uiso   1.00
C420   C     0.14505   0.85383   0.35618   0.00000  Uiso   1.00
C421   C     0.13561   0.86137   0.39923   0.00000  Uiso   1.00
C422   C     0.19584   0.80259   0.10195   0.00000  Uiso   1.00
C423   C     0.11181   0.90702   0.45914   0.00000  Uiso   1.00
C424   C     0.14099   0.83080   0.42139   0.00000  Uiso   1.00
C425   C     0.14116   0.84291   0.46117   0.00000  Uiso   1.00
C426   C     0.12169   0.87899   0.48065   0.00000  Uiso   1.00
C427   C     0.16003   0.82084   0.48234   0.00000  Uiso   1.00
C428   C     0.15092   0.82943   0.02403   0.00000  Uiso   1.00
C429   C     0.11955   0.85746   0.04341   0.00000  Uiso   1.00
C430   C     0.10972   0.88509   0.02158   0.00000  Uiso   1.00
H431   H     0.08935   0.90930   0.03660   0.00000  Uiso   1.00
H432   H     0.31809   0.80729   0.28534   0.00000  Uiso   1.00
H433   H     0.20783   0.66939   0.21611   0.00000  Uiso   1.00
H434   H     0.09786   0.93532   0.47370   0.00000  Uiso   1.00
H435   H     0.19663   0.77892   0.36940   0.00000  Uiso   1.00
H436   H     0.06825   0.80965   0.13503   0.00000  Uiso   1.00
H437   H     0.01671   0.85953   0.21467   0.00000  Uiso   1.00
H438   H     0.12411   0.99893   0.28427   0.00000  Uiso   1.00
H439   H     0.16250   0.85224   0.09789   0.00000  Uiso   1.00
H440   H     0.23255   0.75121   0.09763   0.00000  Uiso   1.00
H441   H     0.23036   0.74813   0.46599   0.00000  Uiso   1.00
H442   H     0.11563   0.92264   0.40209   0.00000  Uiso   1.00
H443   H     0.20199   0.78936   0.43097   0.00000  Uiso   1.00
H444   H     0.24067   0.73272   0.02704   0.00000  Uiso   1.00
O445   O     0.16667   0.83333   0.25000   0.00000  Uiso   1.00
O446   O     0.15693   0.79060   0.16625   0.00000  Uiso   1.00
O447   O     0.12687   0.87313   0.33749   0.00000  Uiso   1.00
O448   O     0.21088   0.84159   0.15877   0.00000  Uiso   1.00
O449   O     0.17198   0.82802   0.33749   0.00000  Uiso   1.00
O450   O     0.11136   0.75197   0.43976   0.00000  Uiso   1.00
O451   O     0.09612   0.77241   0.38259   0.00000  Uiso   1.00
O452   O     0.17338   0.75553   0.37529   0.00000  Uiso   1.00
O453   O     0.09717   0.88811   0.11946   0.00000  Uiso   1.00
O454   O     0.03888   0.85745   0.09034   0.00000  Uiso   1.00
O455   O     0.08385   0.80673   0.10672   0.00000  Uiso   1.00
O456   O     0.17849   0.74768   0.27821   0.00000  Uiso   1.00
O457   O     0.14581   0.92803   0.26767   0.00000  Uiso   1.00
O458   O     0.07452   0.79917   0.23607   0.00000  Uiso   1.00
O459   O     0.26785   0.85845   0.21806   0.00000  Uiso   1.00
O460   O     0.06990   0.85627   0.27820   0.00000  Uiso   1.00
O461   O     0.25440   0.81944   0.26768   0.00000  Uiso   1.00
O462   O     0.13800   0.73570   0.23607   0.00000  Uiso   1.00
O463   O     0.20437   0.92193   0.21806   0.00000  Uiso   1.00
S464   S     0.12947   0.77661   0.40494   0.00000  Uiso   1.00
S465   S     0.08396   0.85327   0.09129   0.00000  Uiso   1.00
Zn466  Zn    0.19244   0.80756   0.28278   0.00000  Uiso   1.00
Zn467  Zn    0.13459   0.79044   0.22258   0.00000  Uiso   1.00
Zn468  Zn    0.21166   0.86331   0.21188   0.00000  Uiso   1.00
Zn469  Zn    0.12798   0.87202   0.28277   0.00000  Uiso   1.00
C470   C     0.38582   0.82655   0.25874   0.00000  Uiso   1.00
C471   C     0.52380   0.79300   0.46243   0.00000  Uiso   1.00
C472   C     0.54167   0.77042   0.48251   0.00000  Uiso   1.00
C473   C     0.61436   0.84017   0.24120   0.00000  Uiso   1.00
C474   C     0.53418   0.77887   0.02295   0.00000  Uiso   1.00
C475   C     0.50796   0.81060   0.04371   0.00000  Uiso   1.00
C476   C     0.55491   0.75769   0.04253   0.00000  Uiso   1.00
C477   C     0.55114   0.76865   0.08232   0.00000  Uiso   1.00
C478   C     0.50954   0.82448   0.08239   0.00000  Uiso   1.00
C479   C     0.66035   0.84263   0.23751   0.00000  Uiso   1.00
C480   C     0.34045   0.82415   0.26215   0.00000  Uiso   1.00
C481   C     0.45448   0.89939   0.41844   0.00000  Uiso   1.00
C482   C     0.51413   0.98880   0.23816   0.00000  Uiso   1.00
C483   C     0.48484   0.67874   0.26212   0.00000  Uiso   1.00
C484   C     0.48921   0.72277   0.25892   0.00000  Uiso   1.00
C485   C     0.51016   0.94432   0.24137   0.00000  Uiso   1.00
C486   C     0.52142   0.81183   0.14413   0.00000  Uiso   1.00
C487   C     0.47838   0.85383   0.35618   0.00000  Uiso   1.00
C488   C     0.46894   0.86137   0.39923   0.00000  Uiso   1.00
C489   C     0.52917   0.80259   0.10195   0.00000  Uiso   1.00
C490   C     0.44514   0.90702   0.45914   0.00000  Uiso   1.00
C491   C     0.47433   0.83080   0.42139   0.00000  Uiso   1.00
C492   C     0.47450   0.84291   0.46117   0.00000  Uiso   1.00
C493   C     0.45502   0.87899   0.48065   0.00000  Uiso   1.00
C494   C     0.49337   0.82084   0.48234   0.00000  Uiso   1.00
C495   C     0.48425   0.82943   0.02403   0.00000  Uiso   1.00
C496   C     0.45289   0.85746   0.04341   0.00000  Uiso   1.00
C497   C     0.44305   0.88509   0.02158   0.00000  Uiso   1.00
H498   H     0.42269   0.90930   0.03660   0.00000  Uiso   1.00
H499   H     0.65142   0.80729   0.28534   0.00000  Uiso   1.00
H500   H     0.54117   0.66939   0.21611   0.00000  Uiso   1.00
H501   H     0.43120   0.93532   0.47370   0.00000  Uiso   1.00
H502   H     0.52996   0.77892   0.36940   0.00000  Uiso   1.00
H503   H     0.40158   0.80965   0.13503   0.00000  Uiso   1.00
H504   H     0.35004   0.85953   0.21467   0.00000  Uiso   1.00
H505   H     0.45744   0.99893   0.28427   0.00000  Uiso   1.00
H506   H     0.49583   0.85224   0.09789   0.00000  Uiso   1.00
H507   H     0.56589   0.75121   0.09763   0.00000  Uiso   1.00
H508   H     0.56369   0.74813   0.46599   0.00000  Uiso   1.00
H509   H     0.44896   0.92264   0.40209   0.00000  Uiso   1.00
H510   H     0.53533   0.78936   0.43097   0.00000  Uiso   1.00
H511   H     0.57401   0.73272   0.02704   0.00000  Uiso   1.00
O512   O     0.50000   0.83333   0.25000   0.00000  Uiso   1.00
O513   O     0.49027   0.79060   0.16625   0.00000  Uiso   1.00
O514   O     0.46020   0.87313   0.33749   0.00000  Uiso   1.00
O515   O     0.54421   0.84159   0.15877   0.00000  Uiso   1.00
O516   O     0.50532   0.82802   0.33749   0.00000  Uiso   1.00
O517   O     0.44470   0.75197   0.43976   0.00000  Uiso   1.00
O518   O     0.42945   0.77241   0.38259   0.00000  Uiso   1.00
O519   O     0.50671   0.75553   0.37529   0.00000  Uiso   1.00
O520   O     0.43051   0.88811   0.11946   0.00000  Uiso   1.00
O521   O     0.37221   0.85745   0.09034   0.00000  Uiso   1.00
O522   O     0.41718   0.80673   0.10672   0.00000  Uiso   1.00
O523   O     0.51182   0.74768   0.27821   0.00000  Uiso   1.00
O524   O     0.47914   0.92803   0.26767   0.00000  Uiso   1.00
O525   O     0.40785   0.79917   0.23607   0.00000  Uiso   1.00
O526   O     0.60119   0.85845   0.21806   0.00000  Uiso   1.00
O527   O     0.40323   0.85627   0.27820   0.00000  Uiso   1.00
O528   O     0.58773   0.81944   0.26768   0.00000  Uiso   1.00
O529   O     0.47133   0.73570   0.23607   0.00000  Uiso   1.00
O530   O     0.53771   0.92193   0.21806   0.00000  Uiso   1.00
S531   S     0.46280   0.77661   0.40494   0.00000  Uiso   1.00
S532   S     0.41729   0.85327   0.09129   0.00000  Uiso   1.00
Zn533  Zn    0.52577   0.80756   0.28278   0.00000  Uiso   1.00
Zn534  Zn    0.46792   0.79044   0.22258   0.00000  Uiso   1.00
Zn535  Zn    0.54500   0.86331   0.21188   0.00000  Uiso   1.00
Zn536  Zn    0.46131   0.87202   0.28277   0.00000  Uiso   1.00
C537   C     0.71915   0.82655   0.25874   0.00000  Uiso   1.00
C538   C     0.85714   0.79300   0.46243   0.00000  Uiso   1.00
C539   C     0.87501   0.77042   0.48251   0.00000  Uiso   1.00
C540   C     0.94770   0.84017   0.24120   0.00000  Uiso   1.00
C541   C     0.86751   0.77887   0.02295   0.00000  Uiso   1.00
C542   C     0.84130   0.81060   0.04371   0.00000  Uiso   1.00
C543   C     0.88824   0.75769   0.04253   0.00000  Uiso   1.00
C544   C     0.88448   0.76865   0.08232   0.00000  Uiso   1.00
C545   C     0.84287   0.82448   0.08239   0.00000  Uiso   1.00
C546   C     0.99368   0.84263   0.23751   0.00000  Uiso   1.00
C547   C     0.67378   0.82415   0.26215   0.00000  Uiso   1.00
C548   C     0.78781   0.89939   0.41844   0.00000  Uiso   1.00
C549   C     0.84747   0.98880   0.23816   0.00000  Uiso   1.00
C550   C     0.81818   0.67874   0.26212   0.00000  Uiso   1.00
C551   C     0.82255   0.72277   0.25892   0.00000  Uiso   1.00
C552   C     0.84349   0.94432   0.24137   0.00000  Uiso   1.00
C553   C     0.85476   0.81183   0.14413   0.00000  Uiso   1.00
C554   C     0.81172   0.85383   0.35618   0.00000  Uiso   1.00
C555   C     0.80228   0.86137   0.39923   0.00000  Uiso   1.00
C556   C     0.86251   0.80259   0.10195   0.00000  Uiso   1.00
C557   C     0.77847   0.90702   0.45914   0.00000  Uiso   1.00
C558   C     0.80766   0.83080   0.42139   0.00000  Uiso   1.00
C559   C     0.80783   0.84291   0.46117   0.00000  Uiso   1.00
C560   C     0.78835   0.87899   0.48065   0.00000  Uiso   1.00
C561   C     0.82670   0.82084   0.48234   0.00000  Uiso   1.00
C562   C     0.81759   0.82943   0.02403   0.00000  Uiso   1.00
C563   C     0.78622   0.85746   0.04341   0.00000  Uiso   1.00
C564   C     0.77639   0.88509   0.02158   0.00000  Uiso   1.00
H565   H     0.75602   0.90930   0.03660   0.00000  Uiso   1.00
H566   H     0.98476   0.80729   0.28534   0.00000  Uiso   1.00
H567   H     0.87450   0.66939   0.21611   0.00000  Uiso   1.00
H568   H     0.76453   0.93532   0.47370   0.00000  Uiso   1.00
H569   H     0.86329   0.77892   0.36940   0.00000  Uiso   1.00
H570   H     0.73492   0.80965   0.13503   0.00000  Uiso   1.00
H571   H     0.68337   0.85953   0.21467   0.00000  Uiso   1.00
H572   H     0.79078   0.99893   0.28427   0.00000  Uiso   1.00
H573   H     0.82917   0.85224   0.09789   0.00000  Uiso   1.00
H574   H     0.89922   0.75121   0.09763   0.00000  Uiso   1.00
H575   H     0.89703   0.74813   0.46599   0.00000  Uiso   1.00
H576   H     0.78230   0.92264   0.40209   0.00000  Uiso   1.00
H577   H     0.86866   0.78936   0.43097   0.00000  Uiso   1.00
H578   H     0.90734   0.73272   0.02704   0.00000  Uiso   1.00
O579   O     0.83333   0.83333   0.25000   0.00000  Uiso   1.00
O580   O     0.82360   0.79060   0.16625   0.00000  Uiso   1.00
O581   O     0.79354   0.87313   0.33749   0.00000  Uiso   1.00
O582   O     0.87755   0.84159   0.15877   0.00000  Uiso   1.00
O583   O     0.83865   0.82802   0.33749   0.00000  Uiso   1.00
O584   O     0.77803   0.75197   0.43976   0.00000  Uiso   1.00
O585   O     0.76278   0.77241   0.38259   0.00000  Uiso   1.00
O586   O     0.84005   0.75553   0.37529   0.00000  Uiso   1.00
O587   O     0.76384   0.88811   0.11946   0.00000  Uiso   1.00
O588   O     0.70555   0.85745   0.09034   0.00000  Uiso   1.00
O589   O     0.75052   0.80673   0.10672   0.00000  Uiso   1.00
O590   O     0.84515   0.74768   0.27821   0.00000  Uiso   1.00
O591   O     0.81247   0.92803   0.26767   0.00000  Uiso   1.00
O592   O     0.74119   0.79917   0.23607   0.00000  Uiso   1.00
O593   O     0.93452   0.85845   0.21806   0.00000  Uiso   1.00
O594   O     0.73656   0.85627   0.27820   0.00000  Uiso   1.00
O595   O     0.92106   0.81944   0.26768   0.00000  Uiso   1.00
O596   O     0.80467   0.73570   0.23607   0.00000  Uiso   1.00
O597   O     0.87104   0.92193   0.21806   0.00000  Uiso   1.00
S598   S     0.79613   0.77661   0.40494   0.00000  Uiso   1.00
S599   S     0.75063   0.85327   0.09129   0.00000  Uiso   1.00
Zn600  Zn    0.85910   0.80756   0.28278   0.00000  Uiso   1.00
Zn601  Zn    0.80125   0.79044   0.22258   0.00000  Uiso   1.00
Zn602  Zn    0.87833   0.86331   0.21188   0.00000  Uiso   1.00
Zn603  Zn    0.79465   0.87202   0.28277   0.00000  Uiso   1.00
C604   C     0.05249   0.15988   0.75874   0.00000  Uiso   1.00
C605   C     0.19047   0.12634   0.96243   0.00000  Uiso   1.00
C606   C     0.20834   0.10375   0.98251   0.00000  Uiso   1.00
C607   C     0.28103   0.17350   0.74120   0.00000  Uiso   1.00
C608   C     0.20085   0.11220   0.52295   0.00000  Uiso   1.00
C609   C     0.17463   0.14393   0.54371   0.00000  Uiso   1.00
C610   C     0.22158   0.09102   0.54253   0.00000  Uiso   1.00
C611   C     0.21781   0.10199   0.58232   0.00000  Uiso   1.00
C612   C     0.17621   0.15781   0.58239   0.00000  Uiso   1.00
C613   C     0.32701   0.17596   0.73751   0.00000  Uiso   1.00
C614   C     0.00711   0.15748   0.76215   0.00000  Uiso   1.00
C615   C     0.12115   0.23273   0.91844   0.00000  Uiso   1.00
C616   C     0.18080   0.32213   0.73816   0.00000  Uiso   1.00
C617   C     0.15151   0.01208   0.76212   0.00000  Uiso   1.00
C618   C     0.15588   0.05610   0.75892   0.00000  Uiso   1.00
C619   C     0.17683   0.27765   0.74137   0.00000  Uiso   1.00
C620   C     0.18809   0.14516   0.64413   0.00000  Uiso   1.00
C621   C     0.14505   0.18716   0.85618   0.00000  Uiso   1.00
C622   C     0.13561   0.19470   0.89923   0.00000  Uiso   1.00
C623   C     0.19584   0.13593   0.60195   0.00000  Uiso   1.00
C624   C     0.11181   0.24036   0.95914   0.00000  Uiso   1.00
C625   C     0.14099   0.16414   0.92139   0.00000  Uiso   1.00
C626   C     0.14116   0.17624   0.96117   0.00000  Uiso   1.00
C627   C     0.12169   0.21233   0.98065   0.00000  Uiso   1.00
C628   C     0.16003   0.15417   0.98234   0.00000  Uiso   1.00
C629   C     0.15092   0.16276   0.52403   0.00000  Uiso   1.00
C630   C     0.11955   0.19080   0.54341   0.00000  Uiso   1.00
C631   C     0.10972   0.21843   0.52158   0.00000  Uiso   1.00
H632   H     0.08935   0.24263   0.53660   0.00000  Uiso   1.00
H633   H     0.31809   0.14063   0.78534   0.00000  Uiso   1.00
H634   H     0.20783   0.00273   0.71611   0.00000  Uiso   1.00
H635   H     0.09786   0.26865   0.97370   0.00000  Uiso   1.00
H636   H     0.19663   0.11225   0.86940   0.00000  Uiso   1.00
H637   H     0.06825   0.14298   0.63503   0.00000  Uiso   1.00
H638   H     0.01671   0.19287   0.71467   0.00000  Uiso   1.00
H639   H     0.12411   0.33227   0.78427   0.00000  Uiso   1.00
H640   H     0.16250   0.18558   0.59789   0.00000  Uiso   1.00
H641   H     0.23255   0.08454   0.59763   0.00000  Uiso   1.00
H642   H     0.23036   0.08146   0.96599   0.00000  Uiso   1.00
H643   H     0.11563   0.25598   0.90209   0.00000  Uiso   1.00
H644   H     0.20199   0.12269   0.93097   0.00000  Uiso   1.00
H645   H     0.24067   0.06605   0.52704   0.00000  Uiso   1.00
O646   O     0.16667   0.16667   0.75000   0.00000  Uiso   1.00
O647   O     0.15693   0.12393   0.66625   0.00000  Uiso   1.00
O648   O     0.12687   0.20646   0.83749   0.00000  Uiso   1.00
O649   O     0.21088   0.17493   0.65877   0.00000  Uiso   1.00
O650   O     0.17198   0.16135   0.83749   0.00000  Uiso   1.00
O651   O     0.11136   0.08531   0.93976   0.00000  Uiso   1.00
O652   O     0.09612   0.10575   0.88259   0.00000  Uiso   1.00
O653   O     0.17338   0.08886   0.87529   0.00000  Uiso   1.00
O654   O     0.09717   0.22144   0.61946   0.00000  Uiso   1.00
O655   O     0.03888   0.19078   0.59034   0.00000  Uiso   1.00
O656   O     0.08385   0.14007   0.60672   0.00000  Uiso   1.00
O657   O     0.17849   0.08101   0.77821   0.00000  Uiso   1.00
O658   O     0.14581   0.26136   0.76767   0.00000  Uiso   1.00
O659   O     0.07452   0.13251   0.73607   0.00000  Uiso   1.00
O660   O     0.26785   0.19179   0.71806   0.00000  Uiso   1.00
O661   O     0.06990   0.18960   0.77820   0.00000  Uiso   1.00
O662   O     0.25440   0.15277   0.76768   0.00000  Uiso   1.00
O663   O     0.13800   0.06903   0.73607   0.00000  Uiso   1.00
O664   O     0.20437   0.25527   0.71806   0.00000  Uiso   1.00
S665   S     0.12947   0.10994   0.90494   0.00000  Uiso   1.00
S666   S     0.08396   0.18660   0.59129   0.00000  Uiso   1.00
Zn667  Zn    0.19244   0.14090   0.78278   0.00000  Uiso   1.00
Zn668  Zn    0.13459   0.12378   0.72258   0.00000  Uiso   1.00
Zn669  Zn    0.21166   0.19664   0.71188   0.00000  Uiso   1.00
Zn670  Zn    0.12798   0.20535   0.78277   0.00000  Uiso   1.00
C671   C     0.38582   0.15988   0.75874   0.00000  Uiso   1.00
C672   C     0.52380   0.12634   0.96243   0.00000  Uiso   1.00
C673   C     0.54167   0.10375   0.98251   0.00000  Uiso   1.00
C674   C     0.61436   0.17350   0.74120   0.00000  Uiso   1.00
C675   C     0.53418   0.11220   0.52295   0.00000  Uiso   1.00
C676   C     0.50796   0.14393   0.54371   0.00000  Uiso   1.00
C677   C     0.55491   0.09102   0.54253   0.00000  Uiso   1.00
C678   C     0.55114   0.10199   0.58232   0.00000  Uiso   1.00
C679   C     0.50954   0.15781   0.58239   0.00000  Uiso   1.00
C680   C     0.66035   0.17596   0.73751   0.00000  Uiso   1.00
C681   C     0.34045   0.15748   0.76215   0.00000  Uiso   1.00
C682   C     0.45448   0.23273   0.91844   0.00000  Uiso   1.00
C683   C     0.51413   0.32213   0.73816   0.00000  Uiso   1.00
C684   C     0.48484   0.01208   0.76212   0.00000  Uiso   1.00
C685   C     0.48921   0.05610   0.75892   0.00000  Uiso   1.00
C686   C     0.51016   0.27765   0.74137   0.00000  Uiso   1.00
C687   C     0.52142   0.14516   0.64413   0.00000  Uiso   1.00
C688   C     0.47838   0.18716   0.85618   0.00000  Uiso   1.00
C689   C     0.46894   0.19470   0.89923   0.00000  Uiso   1.00
C690   C     0.52917   0.13593   0.60195   0.00000  Uiso   1.00
C691   C     0.44514   0.24036   0.95914   0.00000  Uiso   1.00
C692   C     0.47433   0.16414   0.92139   0.00000  Uiso   1.00
C693   C     0.47450   0.17624   0.96117   0.00000  Uiso   1.00
C694   C     0.45502   0.21233   0.98065   0.00000  Uiso   1.00
C695   C     0.49337   0.15417   0.98234   0.00000  Uiso   1.00
C696   C     0.48425   0.16276   0.52403   0.00000  Uiso   1.00
C697   C     0.45289   0.19080   0.54341   0.00000  Uiso   1.00
C698   C     0.44305   0.21843   0.52158   0.00000  Uiso   1.00
H699   H     0.42269   0.24263   0.53660   0.00000  Uiso   1.00
H700   H     0.65142   0.14063   0.78534   0.00000  Uiso   1.00
H701   H     0.54117   0.00273   0.71611   0.00000  Uiso   1.00
H702   H     0.43120   0.26865   0.97370   0.00000  Uiso   1.00
H703   H     0.52996   0.11225   0.86940   0.00000  Uiso   1.00
H704   H     0.40158   0.14298   0.63503   0.00000  Uiso   1.00
H705   H     0.35004   0.19287   0.71467   0.00000  Uiso   1.00
H706   H     0.45744   0.33227   0.78427   0.00000  Uiso   1.00
H707   H     0.49583   0.18558   0.59789   0.00000  Uiso   1.00
H708   H     0.56589   0.08454   0.59763   0.00000  Uiso   1.00
H709   H     0.56369   0.08146   0.96599   0.00000  Uiso   1.00
H710   H     0.44896   0.25598   0.90209   0.00000  Uiso   1.00
H711   H     0.53533   0.12269   0.93097   0.00000  Uiso   1.00
H712   H     0.57401   0.06605   0.52704   0.00000  Uiso   1.00
O713   O     0.50000   0.16667   0.75000   0.00000  Uiso   1.00
O714   O     0.49027   0.12393   0.66625   0.00000  Uiso   1.00
O715   O     0.46020   0.20646   0.83749   0.00000  Uiso   1.00
O716   O     0.54421   0.17493   0.65877   0.00000  Uiso   1.00
O717   O     0.50532   0.16135   0.83749   0.00000  Uiso   1.00
O718   O     0.44470   0.08531   0.93976   0.00000  Uiso   1.00
O719   O     0.42945   0.10575   0.88259   0.00000  Uiso   1.00
O720   O     0.50671   0.08886   0.87529   0.00000  Uiso   1.00
O721   O     0.43051   0.22144   0.61946   0.00000  Uiso   1.00
O722   O     0.37221   0.19078   0.59034   0.00000  Uiso   1.00
O723   O     0.41718   0.14007   0.60672   0.00000  Uiso   1.00
O724   O     0.51182   0.08101   0.77821   0.00000  Uiso   1.00
O725   O     0.47914   0.26136   0.76767   0.00000  Uiso   1.00
O726   O     0.40785   0.13251   0.73607   0.00000  Uiso   1.00
O727   O     0.60119   0.19179   0.71806   0.00000  Uiso   1.00
O728   O     0.40323   0.18960   0.77820   0.00000  Uiso   1.00
O729   O     0.58773   0.15277   0.76768   0.00000  Uiso   1.00
O730   O     0.47133   0.06903   0.73607   0.00000  Uiso   1.00
O731   O     0.53771   0.25527   0.71806   0.00000  Uiso   1.00
S732   S     0.46280   0.10994   0.90494   0.00000  Uiso   1.00
S733   S     0.41729   0.18660   0.59129   0.00000  Uiso   1.00
Zn734  Zn    0.52577   0.14090   0.78278   0.00000  Uiso   1.00
Zn735  Zn    0.46792   0.12378   0.72258   0.00000  Uiso   1.00
Zn736  Zn    0.54500   0.19664   0.71188   0.00000  Uiso   1.00
Zn737  Zn    0.46131   0.20535   0.78277   0.00000  Uiso   1.00
C738   C     0.71915   0.15988   0.75874   0.00000  Uiso   1.00
C739   C     0.85714   0.12634   0.96243   0.00000  Uiso   1.00
C740   C     0.87501   0.10375   0.98251   0.00000  Uiso   1.00
C741   C     0.94770   0.17350   0.74120   0.00000  Uiso   1.00
C742   C     0.86751   0.11220   0.52295   0.00000  Uiso   1.00
C743   C     0.84130   0.14393   0.54371   0.00000  Uiso   1.00
C744   C     0.88824   0.09102   0.54253   0.00000  Uiso   1.00
C745   C     0.88448   0.10199   0.58232   0.00000  Uiso   1.00
C746   C     0.84287   0.15781   0.58239   0.00000  Uiso   1.00
C747   C     0.99368   0.17596   0.73751   0.00000  Uiso   1.00
C748   C     0.67378   0.15748   0.76215   0.00000  Uiso   1.00
C749   C     0.78781   0.23273   0.91844   0.00000  Uiso   1.00
C750   C     0.84747   0.32213   0.73816   0.00000  Uiso   1.00
C751   C     0.81818   0.01208   0.76212   0.00000  Uiso   1.00
C752   C     0.82255   0.05610   0.75892   0.00000  Uiso   1.00
C753   C     0.84349   0.27765   0.74137   0.00000  Uiso   1.00
C754   C     0.85476   0.14516   0.64413   0.00000  Uiso   1.00
C755   C     0.81172   0.18716   0.85618   0.00000  Uiso   1.00
C756   C     0.80228   0.19470   0.89923   0.00000  Uiso   1.00
C757   C     0.86251   0.13593   0.60195   0.00000  Uiso   1.00
C758   C     0.77847   0.24036   0.95914   0.00000  Uiso   1.00
C759   C     0.80766   0.16414   0.92139   0.00000  Uiso   1.00
C760   C     0.80783   0.17624   0.96117   0.00000  Uiso   1.00
C761   C     0.78835   0.21233   0.98065   0.00000  Uiso   1.00
C762   C     0.82670   0.15417   0.98234   0.00000  Uiso   1.00
C763   C     0.81759   0.16276   0.52403   0.00000  Uiso   1.00
C764   C     0.78622   0.19080   0.54341   0.00000  Uiso   1.00
C765   C     0.77639   0.21843   0.52158   0.00000  Uiso   1.00
H766   H     0.75602   0.24263   0.53660   0.00000  Uiso   1.00
H767   H     0.98476   0.14063   0.78534   0.00000  Uiso   1.00
H768   H     0.87450   0.00273   0.71611   0.00000  Uiso   1.00
H769   H     0.76453   0.26865   0.97370   0.00000  Uiso   1.00
H770   H     0.86329   0.11225   0.86940   0.00000  Uiso   1.00
H771   H     0.73492   0.14298   0.63503   0.00000  Uiso   1.00
H772   H     0.68337   0.19287   0.71467   0.00000  Uiso   1.00
H773   H     0.79078   0.33227   0.78427   0.00000  Uiso   1.00
H774   H     0.82917   0.18558   0.59789   0.00000  Uiso   1.00
H775   H     0.89922   0.08454   0.59763   0.00000  Uiso   1.00
H776   H     0.89703   0.08146   0.96599   0.00000  Uiso   1.00
H777   H     0.78230   0.25598   0.90209   0.00000  Uiso   1.00
H778   H     0.86866   0.12269   0.93097   0.00000  Uiso   1.00
H779   H     0.90734   0.06605   0.52704   0.00000  Uiso   1.00
O780   O     0.83333   0.16667   0.75000   0.00000  Uiso   1.00
O781   O     0.82360   0.12393   0.66625   0.00000  Uiso   1.00
O782   O     0.79354   0.20646   0.83749   0.00000  Uiso   1.00
O783   O     0.87755   0.17493   0.65877   0.00000  Uiso   1.00
O784   O     0.83865   0.16135   0.83749   0.00000  Uiso   1.00
O785   O     0.77803   0.08531   0.93976   0.00000  Uiso   1.00
O786   O     0.76278   0.10575   0.88259   0.00000  Uiso   1.00
O787   O     0.84005   0.08886   0.87529   0.00000  Uiso   1.00
O788   O     0.76384   0.22144   0.61946   0.00000  Uiso   1.00
O789   O     0.70555   0.19078   0.59034   0.00000  Uiso   1.00
O790   O     0.75052   0.14007   0.60672   0.00000  Uiso   1.00
O791   O     0.84515   0.08101   0.77821   0.00000  Uiso   1.00
O792   O     0.81247   0.26136   0.76767   0.00000  Uiso   1.00
O793   O     0.74119   0.13251   0.73607   0.00000  Uiso   1.00
O794   O     0.93452   0.19179   0.71806   0.00000  Uiso   1.00
O795   O     0.73656   0.18960   0.77820   0.00000  Uiso   1.00
O796   O     0.92106   0.15277   0.76768   0.00000  Uiso   1.00
O797   O     0.80467   0.06903   0.73607   0.00000  Uiso   1.00
O798   O     0.87104   0.25527   0.71806   0.00000  Uiso   1.00
S799   S     0.79613   0.10994   0.90494   0.00000  Uiso   1.00
S800   S     0.75063   0.18660   0.59129   0.00000  Uiso   1.00
Zn801  Zn    0.85910   0.14090   0.78278   0.00000  Uiso   1.00
Zn802  Zn    0.80125   0.12378   0.72258   0.00000  Uiso   1.00
Zn803  Zn    0.87833   0.19664   0.71188   0.00000  Uiso   1.00
Zn804  Zn    0.79465   0.20535   0.78277   0.00000  Uiso   1.00
C805   C     0.05249   0.49322   0.75874   0.00000  Uiso   1.00
C806   C     0.19047   0.45967   0.96243   0.00000  Uiso   1.00
C807   C     0.20834   0.43708   0.98251   0.00000  Uiso   1.00
C808   C     0.28103   0.50684   0.74120   0.00000  Uiso   1.00
C809   C     0.20085   0.44554   0.52295   0.00000  Uiso   1.00
C810   C     0.17463   0.47727   0.54371   0.00000  Uiso   1.00
C811   C     0.22158   0.42436   0.54253   0.00000  Uiso   1.00
C812   C     0.21781   0.43532   0.58232   0.00000  Uiso   1.00
C813   C     0.17621   0.49114   0.58239   0.00000  Uiso   1.00
C814   C     0.32701   0.50929   0.73751   0.00000  Uiso   1.00
C815   C     0.00711   0.49081   0.76215   0.00000  Uiso   1.00
C816   C     0.12115   0.56606   0.91844   0.00000  Uiso   1.00
C817   C     0.18080   0.65546   0.73816   0.00000  Uiso   1.00
C818   C     0.15151   0.34541   0.76212   0.00000  Uiso   1.00
C819   C     0.15588   0.38944   0.75892   0.00000  Uiso   1.00
C820   C     0.17683   0.61098   0.74137   0.00000  Uiso   1.00
C821   C     0.18809   0.47849   0.64413   0.00000  Uiso   1.00
C822   C     0.14505   0.52049   0.85618   0.00000  Uiso   1.00
C823   C     0.13561   0.52804   0.89923   0.00000  Uiso   1.00
C824   C     0.19584   0.46926   0.60195   0.00000  Uiso   1.00
C825   C     0.11181   0.57369   0.95914   0.00000  Uiso   1.00
C826   C     0.14099   0.49747   0.92139   0.00000  Uiso   1.00
C827   C     0.14116   0.50957   0.96117   0.00000  Uiso   1.00
C828   C     0.12169   0.54566   0.98065   0.00000  Uiso   1.00
C829   C     0.16003   0.48750   0.98234   0.00000  Uiso   1.00
C830   C     0.15092   0.49610   0.52403   0.00000  Uiso   1.00
C831   C     0.11955   0.52413   0.54341   0.00000  Uiso   1.00
C832   C     0.10972   0.55176   0.52158   0.00000  Uiso   1.00
H833   H     0.08935   0.57597   0.53660   0.00000  Uiso   1.00
H834   H     0.31809   0.47396   0.78534   0.00000  Uiso   1.00
H835   H     0.20783   0.33606   0.71611   0.00000  Uiso   1.00
H836   H     0.09786   0.60199   0.97370   0.00000  Uiso   1.00
H837   H     0.19663   0.44558   0.86940   0.00000  Uiso   1.00
H838   H     0.06825   0.47631   0.63503   0.00000  Uiso   1.00
H839   H     0.01671   0.52620   0.71467   0.00000  Uiso   1.00
H840   H     0.12411   0.66560   0.78427   0.00000  Uiso   1.00
H841   H     0.16250   0.51891   0.59789   0.00000  Uiso   1.00
H842   H     0.23255   0.41787   0.59763   0.00000  Uiso   1.00
H843   H     0.23036   0.41479   0.96599   0.00000  Uiso   1.00
H844   H     0.11563   0.58931   0.90209   0.00000  Uiso   1.00
H845   H     0.20199   0.45602   0.93097   0.00000  Uiso   1.00
H846   H     0.24067   0.39939   0.52704   0.00000  Uiso   1.00
O847   O     0.16667   0.50000   0.75000   0.00000  Uiso   1.00
O848   O     0.15693   0.45726   0.66625   0.00000  Uiso   1.00
O849   O     0.12687   0.53979   0.83749   0.00000  Uiso   1.00
O850   O     0.21088   0.50826   0.65877   0.00000  Uiso   1.00
O851   O     0.17198   0.49468   0.83749   0.00000  Uiso   1.00
O852   O     0.11136   0.41864   0.93976   0.00000  Uiso   1.00
O853   O     0.09612   0.43908   0.88259   0.00000  Uiso   1.00
O854   O     0.17338   0.42219   0.87529   0.00000  Uiso   1.00
O855   O     0.09717   0.55478   0.61946   0.00000  Uiso   1.00
O856   O     0.03888   0.52411   0.59034   0.00000  Uiso   1.00
O857   O     0.08385   0.47340   0.60672   0.00000  Uiso   1.00
O858   O     0.17849   0.41434   0.77821   0.00000  Uiso   1.00
O859   O     0.14581   0.59469   0.76767   0.00000  Uiso   1.00
O860   O     0.07452   0.46584   0.73607   0.00000  Uiso   1.00
O861   O     0.26785   0.52512   0.71806   0.00000  Uiso   1.00
O862   O     0.06990   0.52293   0.77820   0.00000  Uiso   1.00
O863   O     0.25440   0.48610   0.76768   0.00000  Uiso   1.00
O864   O     0.13800   0.40236   0.73607   0.00000  Uiso   1.00
O865   O     0.20437   0.58860   0.71806   0.00000  Uiso   1.00
S866   S     0.12947   0.44328   0.90494   0.00000  Uiso   1.00
S867   S     0.08396   0.51993   0.59129   0.00000  Uiso   1.00
Zn868  Zn    0.19244   0.47423   0.78278   0.00000  Uiso   1.00
Zn869  Zn    0.13459   0.45711   0.72258   0.00000  Uiso   1.00
Zn870  Zn    0.21166   0.52997   0.71188   0.00000  Uiso   1.00
Zn871  Zn    0.12798   0.53868   0.78277   0.00000  Uiso   1.00
C872   C     0.38582   0.49322   0.75874   0.00000  Uiso   1.00
C873   C     0.52380   0.45967   0.96243   0.00000  Uiso   1.00
C874   C     0.54167   0.43708   0.98251   0.00000  Uiso   1.00
C875   C     0.61436   0.50684   0.74120   0.00000  Uiso   1.00
C876   C     0.53418   0.44554   0.52295   0.00000  Uiso   1.00
C877   C     0.50796   0.47727   0.54371   0.00000  Uiso   1.00
C878   C     0.55491   0.42436   0.54253   0.00000  Uiso   1.00
C879   C     0.55114   0.43532   0.58232   0.00000  Uiso   1.00
C880   C     0.50954   0.49114   0.58239   0.00000  Uiso   1.00
C881   C     0.66035   0.50929   0.73751   0.00000  Uiso   1.00
C882   C     0.34045   0.49081   0.76215   0.00000  Uiso   1.00
C883   C     0.45448   0.56606   0.91844   0.00000  Uiso   1.00
C884   C     0.51413   0.65546   0.73816   0.00000  Uiso   1.00
C885   C     0.48484   0.34541   0.76212   0.00000  Uiso   1.00
C886   C     0.48921   0.38944   0.75892   0.00000  Uiso   1.00
C887   C     0.51016   0.61098   0.74137   0.00000  Uiso   1.00
C888   C     0.52142   0.47849   0.64413   0.00000  Uiso   1.00
C889   C     0.47838   0.52049   0.85618   0.00000  Uiso   1.00
C890   C     0.46894   0.52804   0.89923   0.00000  Uiso   1.00
C891   C     0.52917   0.46926   0.60195   0.00000  Uiso   1.00
C892   C     0.44514   0.57369   0.95914   0.00000  Uiso   1.00
C893   C     0.47433   0.49747   0.92139   0.00000  Uiso   1.00
C894   C     0.47450   0.50957   0.96117   0.00000  Uiso   1.00
C895   C     0.45502   0.54566   0.98065   0.00000  Uiso   1.00
C896   C     0.49337   0.48750   0.98234   0.00000  Uiso   1.00
C897   C     0.48425   0.49610   0.52403   0.00000  Uiso   1.00
C898   C     0.45289   0.52413   0.54341   0.00000  Uiso   1.00
C899   C     0.44305   0.55176   0.52158   0.00000  Uiso   1.00
H900   H     0.42269   0.57597   0.53660   0.00000  Uiso   1.00
H901   H     0.65142   0.47396   0.78534   0.00000  Uiso   1.00
H902   H     0.54117   0.33606   0.71611   0.00000  Uiso   1.00
H903   H     0.43120   0.60199   0.97370   0.00000  Uiso   1.00
H904   H     0.52996   0.44558   0.86940   0.00000  Uiso   1.00
H905   H     0.40158   0.47631   0.63503   0.00000  Uiso   1.00
H906   H     0.35004   0.52620   0.71467   0.00000  Uiso   1.00
H907   H     0.45744   0.66560   0.78427   0.00000  Uiso   1.00
H908   H     0.49583   0.51891   0.59789   0.00000  Uiso   1.00
H909   H     0.56589   0.41787   0.59763   0.00000  Uiso   1.00
H910   H     0.56369   0.41479   0.96599   0.00000  Uiso   1.00
H911   H     0.44896   0.58931   0.90209   0.00000  Uiso   1.00
H912   H     0.53533   0.45602   0.93097   0.00000  Uiso   1.00
H913   H     0.57401   0.39939   0.52704   0.00000  Uiso   1.00
O914   O     0.50000   0.50000   0.75000   0.00000  Uiso   1.00
O915   O     0.49027   0.45726   0.66625   0.00000  Uiso   1.00
O916   O     0.46020   0.53979   0.83749   0.00000  Uiso   1.00
O917   O     0.54421   0.50826   0.65877   0.00000  Uiso   1.00
O918   O     0.50532   0.49468   0.83749   0.00000  Uiso   1.00
O919   O     0.44470   0.41864   0.93976   0.00000  Uiso   1.00
O920   O     0.42945   0.43908   0.88259   0.00000  Uiso   1.00
O921   O     0.50671   0.42219   0.87529   0.00000  Uiso   1.00
O922   O     0.43051   0.55478   0.61946   0.00000  Uiso   1.00
O923   O     0.37221   0.52411   0.59034   0.00000  Uiso   1.00
O924   O     0.41718   0.47340   0.60672   0.00000  Uiso   1.00
O925   O     0.51182   0.41434   0.77821   0.00000  Uiso   1.00
O926   O     0.47914   0.59469   0.76767   0.00000  Uiso   1.00
O927   O     0.40785   0.46584   0.73607   0.00000  Uiso   1.00
O928   O     0.60119   0.52512   0.71806   0.00000  Uiso   1.00
O929   O     0.40323   0.52293   0.77820   0.00000  Uiso   1.00
O930   O     0.58773   0.48610   0.76768   0.00000  Uiso   1.00
O931   O     0.47133   0.40236   0.73607   0.00000  Uiso   1.00
O932   O     0.53771   0.58860   0.71806   0.00000  Uiso   1.00
S933   S     0.46280   0.44328   0.90494   0.00000  Uiso   1.00
S934   S     0.41729   0.51993   0.59129   0.00000  Uiso   1.00
Zn935  Zn    0.52577   0.47423   0.78278   0.00000  Uiso   1.00
Zn936  Zn    0.46792   0.45711   0.72258   0.00000  Uiso   1.00
Zn937  Zn    0.54500   0.52997   0.71188   0.00000  Uiso   1.00
Zn938  Zn    0.46131   0.53868   0.78277   0.00000  Uiso   1.00
C939   C     0.71915   0.49322   0.75874   0.00000  Uiso   1.00
C940   C     0.85714   0.45967   0.96243   0.00000  Uiso   1.00
C941   C     0.87501   0.43708   0.98251   0.00000  Uiso   1.00
C942   C     0.94770   0.50684   0.74120   0.00000  Uiso   1.00
C943   C     0.86751   0.44554   0.52295   0.00000  Uiso   1.00
C944   C     0.84130   0.47727   0.54371   0.00000  Uiso   1.00
C945   C     0.88824   0.42436   0.54253   0.00000  Uiso   1.00
C946   C     0.88448   0.43532   0.58232   0.00000  Uiso   1.00
C947   C     0.84287   0.49114   0.58239   0.00000  Uiso   1.00
C948   C     0.99368   0.50929   0.73751   0.00000  Uiso   1.00
C949   C     0.67378   0.49081   0.76215   0.00000  Uiso   1.00
C950   C     0.78781   0.56606   0.91844   0.00000  Uiso   1.00
C951   C     0.84747   0.65546   0.73816   0.00000  Uiso   1.00
C952   C     0.81818   0.34541   0.76212   0.00000  Uiso   1.00
C953   C     0.82255   0.38944   0.75892   0.00000  Uiso   1.00
C954   C     0.84349   0.61098   0.74137   0.00000  Uiso   1.00
C955   C     0.85476   0.47849   0.64413   0.00000  Uiso   1.00
C956   C     0.81172   0.52049   0.85618   0.00000  Uiso   1.00
C957   C     0.80228   0.52804   0.89923   0.00000  Uiso   1.00
C958   C     0.86251   0.46926   0.60195   0.00000  Uiso   1.00
C959   C     0.77847   0.57369   0.95914   0.00000  Uiso   1.00
C960   C     0.80766   0.49747   0.92139   0.00000  Uiso   1.00
C961   C     0.80783   0.50957   0.96117   0.00000  Uiso   1.00
C962   C     0.78835   0.54566   0.98065   0.00000  Uiso   1.00
C963   C     0.82670   0.48750   0.98234   0.00000  Uiso   1.00
C964   C     0.81759   0.49610   0.52403   0.00000  Uiso   1.00
C965   C     0.78622   0.52413   0.54341   0.00000  Uiso   1.00
C966   C     0.77639   0.55176   0.52158   0.00000  Uiso   1.00
H967   H     0.75602   0.57597   0.53660   0.00000  Uiso   1.00
H968   H     0.98476   0.47396   0.78534   0.00000  Uiso   1.00
H969   H     0.87450   0.33606   0.71611   0.00000  Uiso   1.00
H970   H     0.76453   0.60199   0.97370   0.00000  Uiso   1.00
H971   H     0.86329   0.44558   0.86940   0.00000  Uiso   1.00
H972   H     0.73492   0.47631   0.63503   0.00000  Uiso   1.00
H973   H     0.68337   0.52620   0.71467   0.00000  Uiso   1.00
H974   H     0.79078   0.66560   0.78427   0.00000  Uiso   1.00
H975   H     0.82917   0.51891   0.59789   0.00000  Uiso   1.00
H976   H     0.89922   0.41787   0.59763   0.00000  Uiso   1.00
H977   H     0.89703   0.41479   0.96599   0.00000  Uiso   1.00
H978   H     0.78230   0.58931   0.90209   0.00000  Uiso   1.00
H979   H     0.86866   0.45602   0.93097   0.00000  Uiso   1.00
H980   H     0.90734   0.39939   0.52704   0.00000  Uiso   1.00
O981   O     0.83333   0.50000   0.75000   0.00000  Uiso   1.00
O982   O     0.82360   0.45726   0.66625   0.00000  Uiso   1.00
O983   O     0.79354   0.53979   0.83749   0.00000  Uiso   1.00
O984   O     0.87755   0.50826   0.65877   0.00000  Uiso   1.00
O985   O     0.83865   0.49468   0.83749   0.00000  Uiso   1.00
O986   O     0.77803   0.41864   0.93976   0.00000  Uiso   1.00
O987   O     0.76278   0.43908   0.88259   0.00000  Uiso   1.00
O988   O     0.84005   0.42219   0.87529   0.00000  Uiso   1.00
O989   O     0.76384   0.55478   0.61946   0.00000  Uiso   1.00
O990   O     0.70555   0.52411   0.59034   0.00000  Uiso   1.00
O991   O     0.75052   0.47340   0.60672   0.00000  Uiso   1.00
O992   O     0.84515   0.41434   0.77821   0.00000  Uiso   1.00
O993   O     0.81247   0.59469   0.76767   0.00000  Uiso   1.00
O994   O     0.74119   0.46584   0.73607   0.00000  Uiso   1.00
O995   O     0.93452   0.52512   0.71806   0.00000  Uiso   1.00
O996   O     0.73656   0.52293   0.77820   0.00000  Uiso   1.00
O997   O     0.92106   0.48610   0.76768   0.00000  Uiso   1.00
O998   O     0.80467   0.40236   0.73607   0.00000  Uiso   1.00
O999   O     0.87104   0.58860   0.71806   0.00000  Uiso   1.00
S1000  S     0.79613   0.44328   0.90494   0.00000  Uiso   1.00
S1001  S     0.75063   0.51993   0.59129   0.00000  Uiso   1.00
Zn1002 Zn    0.85910   0.47423   0.78278   0.00000  Uiso   1.00
Zn1003 Zn    0.80125   0.45711   0.72258   0.00000  Uiso   1.00
Zn1004 Zn    0.87833   0.52997   0.71188   0.00000  Uiso   1.00
Zn1005 Zn    0.79465   0.53868   0.78277   0.00000  Uiso   1.00
C1006  C     0.05249   0.82655   0.75874   0.00000  Uiso   1.00
C1007  C     0.19047   0.79300   0.96243   0.00000  Uiso   1.00
C1008  C     0.20834   0.77042   0.98251   0.00000  Uiso   1.00
C1009  C     0.28103   0.84017   0.74120   0.00000  Uiso   1.00
C1010  C     0.20085   0.77887   0.52295   0.00000  Uiso   1.00
C1011  C     0.17463   0.81060   0.54371   0.00000  Uiso   1.00
C1012  C     0.22158   0.75769   0.54253   0.00000  Uiso   1.00
C1013  C     0.21781   0.76865   0.58232   0.00000  Uiso   1.00
C1014  C     0.17621   0.82448   0.58239   0.00000  Uiso   1.00
C1015  C     0.32701   0.84263   0.73751   0.00000  Uiso   1.00
C1016  C     0.00711   0.82415   0.76215   0.00000  Uiso   1.00
C1017  C     0.12115   0.89939   0.91844   0.00000  Uiso   1.00
C1018  C     0.18080   0.98880   0.73816   0.00000  Uiso   1.00
C1019  C     0.15151   0.67874   0.76212   0.00000  Uiso   1.00
C1020  C     0.15588   0.72277   0.75892   0.00000  Uiso   1.00
C1021  C     0.17683   0.94432   0.74137   0.00000  Uiso   1.00
C1022  C     0.18809   0.81183   0.64413   0.00000  Uiso   1.00
C1023  C     0.14505   0.85383   0.85618   0.00000  Uiso   1.00
C1024  C     0.13561   0.86137   0.89923   0.00000  Uiso   1.00
C1025  C     0.19584   0.80259   0.60195   0.00000  Uiso   1.00
C1026  C     0.11181   0.90702   0.95914   0.00000  Uiso   1.00
C1027  C     0.14099   0.83080   0.92139   0.00000  Uiso   1.00
C1028  C     0.14116   0.84291   0.96117   0.00000  Uiso   1.00
C1029  C     0.12169   0.87899   0.98065   0.00000  Uiso   1.00
C1030  C     0.16003   0.82084   0.98234   0.00000  Uiso   1.00
C1031  C     0.15092   0.82943   0.52403   0.00000  Uiso   1.00
C1032  C     0.11955   0.85746   0.54341   0.00000  Uiso   1.00
C1033  C     0.10972   0.88509   0.52158   0.00000  Uiso   1.00
H1034  H     0.08935   0.90930   0.53660   0.00000  Uiso   1.00
H1035  H     0.31809   0.80729   0.78534   0.00000  Uiso   1.00
H1036  H     0.20783   0.66939   0.71611   0.00000  Uiso   1.00
H1037  H     0.09786   0.93532   0.97370   0.00000  Uiso   1.00
H1038  H     0.19663   0.77892   0.86940   0.00000  Uiso   1.00
H1039  H     0.06825   0.80965   0.63503   0.00000  Uiso   1.00
H1040  H     0.01671   0.85953   0.71467   0.00000  Uiso   1.00
H1041  H     0.12411   0.99893   0.78427   0.00000  Uiso   1.00
H1042  H     0.16250   0.85224   0.59789   0.00000  Uiso   1.00
H1043  H     0.23255   0.75121   0.59763   0.00000  Uiso   1.00
H1044  H     0.23036   0.74813   0.96599   0.00000  Uiso   1.00
H1045  H     0.11563   0.92264   0.90209   0.00000  Uiso   1.00
H1046  H     0.20199   0.78936   0.93097   0.00000  Uiso   1.00
H1047  H     0.24067   0.73272   0.52704   0.00000  Uiso   1.00
O1048  O     0.16667   0.83333   0.75000   0.00000  Uiso   1.00
O1049  O     0.15693   0.79060   0.66625   0.00000  Uiso   1.00
O1050  O     0.12687   0.87313   0.83749   0.00000  Uiso   1.00
O1051  O     0.21088   0.84159   0.65877   0.00000  Uiso   1.00
O1052  O     0.17198   0.82802   0.83749   0.00000  Uiso   1.00
O1053  O     0.11136   0.75197   0.93976   0.00000  Uiso   1.00
O1054  O     0.09612   0.77241   0.88259   0.00000  Uiso   1.00
O1055  O     0.17338   0.75553   0.87529   0.00000  Uiso   1.00
O1056  O     0.09717   0.88811   0.61946   0.00000  Uiso   1.00
O1057  O     0.03888   0.85745   0.59034   0.00000  Uiso   1.00
O1058  O     0.08385   0.80673   0.60672   0.00000  Uiso   1.00
O1059  O     0.17849   0.74768   0.77821   0.00000  Uiso   1.00
O1060  O     0.14581   0.92803   0.76767   0.00000  Uiso   1.00
O1061  O     0.07452   0.79917   0.73607   0.00000  Uiso   1.00
O1062  O     0.26785   0.85845   0.71806   0.00000  Uiso   1.00
O1063  O     0.06990   0.85627   0.77820   0.00000  Uiso   1.00
O1064  O     0.25440   0.81944   0.76768   0.00000  Uiso   1.00
O1065  O     0.13800   0.73570   0.73607   0.00000  Uiso   1.00
O1066  O     0.20437   0.92193   0.71806   0.00000  Uiso   1.00
S1067  S     0.12947   0.77661   0.90494   0.00000  Uiso   1.00
S1068  S     0.08396   0.85327   0.59129   0.00000  Uiso   1.00
Zn1069 Zn    0.19244   0.80756   0.78278   0.00000  Uiso   1.00
Zn1070 Zn    0.13459   0.79044   0.72258   0.00000  Uiso   1.00
Zn1071 Zn    0.21166   0.86331   0.71188   0.00000  Uiso   1.00
Zn1072 Zn    0.12798   0.87202   0.78277   0.00000  Uiso   1.00
C1073  C     0.38582   0.82655   0.75874   0.00000  Uiso   1.00
C1074  C     0.52380   0.79300   0.96243   0.00000  Uiso   1.00
C1075  C     0.54167   0.77042   0.98251   0.00000  Uiso   1.00
C1076  C     0.61436   0.84017   0.74120   0.00000  Uiso   1.00
C1077  C     0.53418   0.77887   0.52295   0.00000  Uiso   1.00
C1078  C     0.50796   0.81060   0.54371   0.00000  Uiso   1.00
C1079  C     0.55491   0.75769   0.54253   0.00000  Uiso   1.00
C1080  C     0.55114   0.76865   0.58232   0.00000  Uiso   1.00
C1081  C     0.50954   0.82448   0.58239   0.00000  Uiso   1.00
C1082  C     0.66035   0.84263   0.73751   0.00000  Uiso   1.00
C1083  C     0.34045   0.82415   0.76215   0.00000  Uiso   1.00
C1084  C     0.45448   0.89939   0.91844   0.00000  Uiso   1.00
C1085  C     0.51413   0.98880   0.73816   0.00000  Uiso   1.00
C1086  C     0.48484   0.67874   0.76212   0.00000  Uiso   1.00
C1087  C     0.48921   0.72277   0.75892   0.00000  Uiso   1.00
C1088  C     0.51016   0.94432   0.74137   0.00000  Uiso   1.00
C1089  C     0.52142   0.81183   0.64413   0.00000  Uiso   1.00
C1090  C     0.47838   0.85383   0.85618   0.00000  Uiso   1.00
C1091  C     0.46894   0.86137   0.89923   0.00000  Uiso   1.00
C1092  C     0.52917   0.80259   0.60195   0.00000  Uiso   1.00
C1093  C     0.44514   0.90702   0.95914   0.00000  Uiso   1.00
C1094  C     0.47433   0.83080   0.92139   0.00000  Uiso   1.00
C1095  C     0.47450   0.84291   0.96117   0.00000  Uiso   1.00
C1096  C     0.45502   0.87899   0.98065   0.00000  Uiso   1.00
C1097  C     0.49337   0.82084   0.98234   0.00000  Uiso   1.00
C1098  C     0.48425   0.82943   0.52403   0.00000  Uiso   1.00
C1099  C     0.45289   0.85746   0.54341   0.00000  Uiso   1.00
C1100  C     0.44305   0.88509   0.52158   0.00000  Uiso   1.00
H1101  H     0.42269   0.90930   0.53660   0.00000  Uiso   1.00
H1102  H     0.65142   0.80729   0.78534   0.00000  Uiso   1.00
H1103  H     0.54117   0.66939   0.71611   0.00000  Uiso   1.00
H1104  H     0.43120   0.93532   0.97370   0.00000  Uiso   1.00
H1105  H     0.52996   0.77892   0.86940   0.00000  Uiso   1.00
H1106  H     0.40158   0.80965   0.63503   0.00000  Uiso   1.00
H1107  H     0.35004   0.85953   0.71467   0.00000  Uiso   1.00
H1108  H     0.45744   0.99893   0.78427   0.00000  Uiso   1.00
H1109  H     0.49583   0.85224   0.59789   0.00000  Uiso   1.00
H1110  H     0.56589   0.75121   0.59763   0.00000  Uiso   1.00
H1111  H     0.56369   0.74813   0.96599   0.00000  Uiso   1.00
H1112  H     0.44896   0.92264   0.90209   0.00000  Uiso   1.00
H1113  H     0.53533   0.78936   0.93097   0.00000  Uiso   1.00
H1114  H     0.57401   0.73272   0.52704   0.00000  Uiso   1.00
O1115  O     0.50000   0.83333   0.75000   0.00000  Uiso   1.00
O1116  O     0.49027   0.79060   0.66625   0.00000  Uiso   1.00
O1117  O     0.46020   0.87313   0.83749   0.00000  Uiso   1.00
O1118  O     0.54421   0.84159   0.65877   0.00000  Uiso   1.00
O1119  O     0.50532   0.82802   0.83749   0.00000  Uiso   1.00
O1120  O     0.44470   0.75197   0.93976   0.00000  Uiso   1.00
O1121  O     0.42945   0.77241   0.88259   0.00000  Uiso   1.00
O1122  O     0.50671   0.75553   0.87529   0.00000  Uiso   1.00
O1123  O     0.43051   0.88811   0.61946   0.00000  Uiso   1.00
O1124  O     0.37221   0.85745   0.59034   0.00000  Uiso   1.00
O1125  O     0.41718   0.80673   0.60672   0.00000  Uiso   1.00
O1126  O     0.51182   0.74768   0.77821   0.00000  Uiso   1.00
O1127  O     0.47914   0.92803   0.76767   0.00000  Uiso   1.00
O1128  O     0.40785   0.79917   0.73607   0.00000  Uiso   1.00
O1129  O     0.60119   0.85845   0.71806   0.00000  Uiso   1.00
O1130  O     0.40323   0.85627   0.77820   0.00000  Uiso   1.00
O1131  O     0.58773   0.81944   0.76768   0.00000  Uiso   1.00
O1132  O     0.47133   0.73570   0.73607   0.00000  Uiso   1.00
O1133  O     0.53771   0.92193   0.71806   0.00000  Uiso   1.00
S1134  S     0.46280   0.77661   0.90494   0.00000  Uiso   1.00
S1135  S     0.41729   0.85327   0.59129   0.00000  Uiso   1.00
Zn1136 Zn    0.52577   0.80756   0.78278   0.00000  Uiso   1.00
Zn1137 Zn    0.46792   0.79044   0.72258   0.00000  Uiso   1.00
Zn1138 Zn    0.54500   0.86331   0.71188   0.00000  Uiso   1.00
Zn1139 Zn    0.46131   0.87202   0.78277   0.00000  Uiso   1.00
C1140  C     0.71915   0.82655   0.75874   0.00000  Uiso   1.00
C1141  C     0.85714   0.79300   0.96243   0.00000  Uiso   1.00
C1142  C     0.87501   0.77042   0.98251   0.00000  Uiso   1.00
C1143  C     0.94770   0.84017   0.74120   0.00000  Uiso   1.00
C1144  C     0.86751   0.77887   0.52295   0.00000  Uiso   1.00
C1145  C     0.84130   0.81060   0.54371   0.00000  Uiso   1.00
C1146  C     0.88824   0.75769   0.54253   0.00000  Uiso   1.00
C1147  C     0.88448   0.76865   0.58232   0.00000  Uiso   1.00
C1148  C     0.84287   0.82448   0.58239   0.00000  Uiso   1.00
C1149  C     0.99368   0.84263   0.73751   0.00000  Uiso   1.00
C1150  C     0.67378   0.82415   0.76215   0.00000  Uiso   1.00
C1151  C     0.78781   0.89939   0.91844   0.00000  Uiso   1.00
C1152  C     0.84747   0.98880   0.73816   0.00000  Uiso   1.00
C1153  C     0.81818   0.67874   0.76212   0.00000  Uiso   1.00
C1154  C     0.82255   0.72277   0.75892   0.00000  Uiso   1.00
C1155  C     0.84349   0.94432   0.74137   0.00000  Uiso   1.00
C1156  C     0.85476   0.81183   0.64413   0.00000  Uiso   1.00
C1157  C     0.81172   0.85383   0.85618   0.00000  Uiso   1.00
C1158  C     0.80228   0.86137   0.89923   0.00000  Uiso   1.00
C1159  C     0.86251   0.80259   0.60195   0.00000  Uiso   1.00
C1160  C     0.77847   0.90702   0.95914   0.00000  Uiso   1.00
C1161  C     0.80766   0.83080   0.92139   0.00000  Uiso   1.00
C1162  C     0.80783   0.84291   0.96117   0.00000  Uiso   1.00
C1163  C     0.78835   0.87899   0.98065   0.00000  Uiso   1.00
C1164  C     0.82670   0.82084   0.98234   0.00000  Uiso   1.00
C1165  C     0.81759   0.82943   0.52403   0.00000  Uiso   1.00
C1166  C     0.78622   0.85746   0.54341   0.00000  Uiso   1.00
C1167  C     0.77639   0.88509   0.52158   0.00000  Uiso   1.00
H1168  H     0.75602   0.90930   0.53660   0.00000  Uiso   1.00
H1169  H     0.98476   0.80729   0.78534   0.00000  Uiso   1.00
H1170  H     0.87450   0.66939   0.71611   0.00000  Uiso   1.00
H1171  H     0.76453   0.93532   0.97370   0.00000  Uiso   1.00
H1172  H     0.86329   0.77892   0.86940   0.00000  Uiso   1.00
H1173  H     0.73492   0.80965   0.63503   0.00000  Uiso   1.00
H1174  H     0.68337   0.85953   0.71467   0.00000  Uiso   1.00
H1175  H     0.79078   0.99893   0.78427   0.00000  Uiso   1.00
H1176  H     0.82917   0.85224   0.59789   0.00000  Uiso   1.00
H1177  H     0.89922   0.75121   0.59763   0.00000  Uiso   1.00
H1178  H     0.89703   0.74813   0.96599   0.00000  Uiso   1.00
H1179  H     0.78230   0.92264   0.90209   0.00000  Uiso   1.00
H1180  H     0.86866   0.78936   0.93097   0.00000  Uiso   1.00
H1181  H     0.90734   0.73272   0.52704   0.00000  Uiso   1.00
O1182  O     0.83333   0.83333   0.75000   0.00000  Uiso   1.00
O1183  O     0.82360   0.79060   0.66625   0.00000  Uiso   1.00
O1184  O     0.79354   0.87313   0.83749   0.00000  Uiso   1.00
O1185  O     0.87755   0.84159   0.65877   0.00000  Uiso   1.00
O1186  O     0.83865   0.82802   0.83749   0.00000  Uiso   1.00
O1187  O     0.77803   0.75197   0.93976   0.00000  Uiso   1.00
O1188  O     0.76278   0.77241   0.88259   0.00000  Uiso   1.00
O1189  O     0.84005   0.75553   0.87529   0.00000  Uiso   1.00
O1190  O     0.76384   0.88811   0.61946   0.00000  Uiso   1.00
O1191  O     0.70555   0.85745   0.59034   0.00000  Uiso   1.00
O1192  O     0.75052   0.80673   0.60672   0.00000  Uiso   1.00
O1193  O     0.84515   0.74768   0.77821   0.00000  Uiso   1.00
O1194  O     0.81247   0.92803   0.76767   0.00000  Uiso   1.00
O1195  O     0.74119   0.79917   0.73607   0.00000  Uiso   1.00
O1196  O     0.93452   0.85845   0.71806   0.00000  Uiso   1.00
O1197  O     0.73656   0.85627   0.77820   0.00000  Uiso   1.00
O1198  O     0.92106   0.81944   0.76768   0.00000  Uiso   1.00
O1199  O     0.80467   0.73570   0.73607   0.00000  Uiso   1.00
O1200  O     0.87104   0.92193   0.71806   0.00000  Uiso   1.00
S1201  S     0.79613   0.77661   0.90494   0.00000  Uiso   1.00
S1202  S     0.75063   0.85327   0.59129   0.00000  Uiso   1.00
Zn1203 Zn    0.85910   0.80756   0.78278   0.00000  Uiso   1.00
Zn1204 Zn    0.80125   0.79044   0.72258   0.00000  Uiso   1.00
Zn1205 Zn    0.87833   0.86331   0.71188   0.00000  Uiso   1.00
Zn1206 Zn    0.79465   0.87202   0.78277   0.00000  Uiso   1.00
loop_
_geom_bond_atom_site_label_1
_geom_bond_atom_site_label_2
_geom_bond_distance
_geom_bond_site_symmetry_2
_ccdc_geom_bond_type
C1     C11     1.437   .     S
C1     O56     1.269   .     A
C1     O58     1.269   .     A
C2     C3      1.383   .     A
C2     C25     1.408   .     A
C2     H41     1.073   .     S
C3     H39     1.084   .     S
C3     C608    1.388   .     S
C4     O57     1.282   .     A
C4     O59     1.279   .     A
C4     C10     1.455   .     S
C5     C6      1.421   .     A
C5     C7      1.403   .     A
C5     C606    1.388   1_554 S
C6     C9      1.405   .     A
C6     C26     1.429   .     A
C7     C8      1.390   .     A
C7     H42     1.084   .     S
C8     C20     1.395   .     A
C8     H38     1.083   .     S
C9     C20     1.393   .     A
C9     H37     1.075   .     S
C10    C78     1.334   .     S
C10    H102    1.088   .     S
C11    C144    1.334   1_455 S
C11    H164    1.086   1_455 S
C12    H40     1.083   .     S
C12    C19     1.402   .     A
C12    C21     1.391   .     A
C13    C16     1.451   .     S
C13    C215    1.332   .     S
C13    H232    1.088   .     S
C14    C15     1.436   .     S
C14    C415    1.332   1_545 S
C14    H438    1.086   1_545 S
C15    O60     1.276   .     A
C15    O54     1.276   .     A
C16    O55     1.272   .     A
C16    O61     1.272   .     A
C17    O44     1.271   .     A
C17    C20     1.449   .     S
C17    O46     1.275   .     A
C18    O45     1.284   .     A
C18    O47     1.280   .     A
C18    C19     1.471   .     S
C19    C22     1.416   .     A
C21    H32     1.084   .     S
C21    C24     1.399   .     A
C22    S62     1.796   .     S
C22    C23     1.422   .     A
C23    C24     1.413   .     A
C23    C25     1.421   .     A
C24    C631    1.394   .     S
C25    C629    1.428   .     S
C26    C27     1.429   .     A
C26    C628    1.428   1_554 S
C27    S63     1.779   .     S
C27    C28     1.396   .     A
C28    H29     1.085   .     S
C28    C627    1.394   1_554 S
H30    C78     1.086   .     S
H31    C415    1.088   1_545 S
H33    O50     0.989   .     S
H34    O53     0.991   .     S
H35    C144    1.088   1_455 S
H36    C215    1.086   .     S
O43    Zn65    1.940   .     S
O43    Zn66    1.938   .     S
O43    Zn67    1.933   .     S
O43    Zn64    1.959   .     S
O44    Zn65    1.934   .     S
O45    Zn67    1.941   .     S
O46    Zn66    1.934   .     S
O47    Zn64    1.928   .     S
O48    S62     1.503   .     D
O49    S62     1.503   .     D
O50    S62     1.686   .     S
O51    S63     1.504   .     D
O52    S63     1.503   .     D
O53    S63     1.683   .     S
O54    Zn64    1.927   .     S
O55    Zn67    1.932   .     S
O56    Zn65    1.927   .     S
O57    Zn66    1.935   .     S
O58    Zn67    1.930   .     S
O59    Zn64    1.925   .     S
O60    Zn65    1.937   .     S
O61    Zn66    1.930   .     S
C68    C78     1.437   .     S
C68    O123    1.269   .     A
C68    O125    1.269   .     A
C69    C70     1.383   .     A
C69    C92     1.408   .     A
C69    H108    1.073   .     S
C70    H106    1.084   .     S
C70    C675    1.388   .     S
C71    O124    1.282   .     A
C71    O126    1.279   .     A
C71    C77     1.455   .     S
C72    C73     1.421   .     A
C72    C74     1.403   .     A
C72    C673    1.388   1_554 S
C73    C76     1.405   .     A
C73    C93     1.429   .     A
C74    C75     1.390   .     A
C74    H109    1.084   .     S
C75    C87     1.395   .     A
C75    H105    1.083   .     S
C76    C87     1.393   .     A
C76    H104    1.075   .     S
C77    C145    1.334   .     S
C77    H169    1.088   .     S
C79    H107    1.083   .     S
C79    C86     1.402   .     A
C79    C88     1.391   .     A
C80    C83     1.451   .     S
C80    C282    1.332   .     S
C80    H299    1.088   .     S
C81    C82     1.436   .     S
C81    C482    1.332   1_545 S
C81    H505    1.086   1_545 S
C82    O127    1.276   .     A
C82    O121    1.276   .     A
C83    O122    1.272   .     A
C83    O128    1.272   .     A
C84    O111    1.271   .     A
C84    C87     1.449   .     S
C84    O113    1.275   .     A
C85    O112    1.284   .     A
C85    O114    1.280   .     A
C85    C86     1.471   .     S
C86    C89     1.416   .     A
C88    H99     1.084   .     S
C88    C91     1.399   .     A
C89    S129    1.796   .     S
C89    C90     1.422   .     A
C90    C91     1.413   .     A
C90    C92     1.421   .     A
C91    C698    1.394   .     S
C92    C696    1.428   .     S
C93    C94     1.429   .     A
C93    C695    1.428   1_554 S
C94    S130    1.779   .     S
C94    C95     1.396   .     A
C95    H96     1.085   .     S
C95    C694    1.394   1_554 S
H97    C145    1.086   .     S
H98    C482    1.088   1_545 S
H100   O117    0.989   .     S
H101   O120    0.991   .     S
H103   C282    1.086   .     S
O110   Zn132   1.940   .     S
O110   Zn133   1.938   .     S
O110   Zn134   1.933   .     S
O110   Zn131   1.959   .     S
O111   Zn132   1.934   .     S
O112   Zn134   1.941   .     S
O113   Zn133   1.934   .     S
O114   Zn131   1.928   .     S
O115   S129    1.503   .     D
O116   S129    1.503   .     D
O117   S129    1.686   .     S
O118   S130    1.504   .     D
O119   S130    1.503   .     D
O120   S130    1.683   .     S
O121   Zn131   1.927   .     S
O122   Zn134   1.932   .     S
O123   Zn132   1.927   .     S
O124   Zn133   1.935   .     S
O125   Zn134   1.930   .     S
O126   Zn131   1.925   .     S
O127   Zn132   1.937   .     S
O128   Zn133   1.930   .     S
C135   C145    1.437   .     S
C135   O190    1.269   .     A
C135   O192    1.269   .     A
C136   C137    1.383   .     A
C136   C159    1.408   .     A
C136   H175    1.073   .     S
C137   H173    1.084   .     S
C137   C742    1.388   .     S
C138   O191    1.282   .     A
C138   O193    1.279   .     A
C138   C144    1.455   .     S
C139   C140    1.421   .     A
C139   C141    1.403   .     A
C139   C740    1.388   1_554 S
C140   C143    1.405   .     A
C140   C160    1.429   .     A
C141   C142    1.390   .     A
C141   H176    1.084   .     S
C142   C154    1.395   .     A
C142   H172    1.083   .     S
C143   C154    1.393   .     A
C143   H171    1.075   .     S
C144   C11     1.334   1_655 S
C144   H35     1.088   1_655 S
C146   H174    1.083   .     S
C146   C153    1.402   .     A
C146   C155    1.391   .     A
C147   C150    1.451   .     S
C147   C349    1.332   .     S
C147   H366    1.088   .     S
C148   C149    1.436   .     S
C148   C549    1.332   1_545 S
C148   H572    1.086   1_545 S
C149   O194    1.276   .     A
C149   O188    1.276   .     A
C150   O189    1.272   .     A
C150   O195    1.272   .     A
C151   O178    1.271   .     A
C151   C154    1.449   .     S
C151   O180    1.275   .     A
C152   O179    1.284   .     A
C152   O181    1.280   .     A
C152   C153    1.471   .     S
C153   C156    1.416   .     A
C155   H166    1.084   .     S
C155   C158    1.399   .     A
C156   S196    1.796   .     S
C156   C157    1.422   .     A
C157   C158    1.413   .     A
C157   C159    1.421   .     A
C158   C765    1.394   .     S
C159   C763    1.428   .     S
C160   C161    1.429   .     A
C160   C762    1.428   1_554 S
C161   S197    1.779   .     S
C161   C162    1.396   .     A
C162   H163    1.085   .     S
C162   C761    1.394   1_554 S
H164   C11     1.086   1_655 S
H165   C549    1.088   1_545 S
H167   O184    0.989   .     S
H168   O187    0.991   .     S
H170   C349    1.086   .     S
O177   Zn199   1.940   .     S
O177   Zn200   1.938   .     S
O177   Zn201   1.933   .     S
O177   Zn198   1.959   .     S
O178   Zn199   1.934   .     S
O179   Zn201   1.941   .     S
O180   Zn200   1.934   .     S
O181   Zn198   1.928   .     S
O182   S196    1.503   .     D
O183   S196    1.503   .     D
O184   S196    1.686   .     S
O185   S197    1.504   .     D
O186   S197    1.503   .     D
O187   S197    1.683   .     S
O188   Zn198   1.927   .     S
O189   Zn201   1.932   .     S
O190   Zn199   1.927   .     S
O191   Zn200   1.935   .     S
O192   Zn201   1.930   .     S
O193   Zn198   1.925   .     S
O194   Zn199   1.937   .     S
O195   Zn200   1.930   .     S
C202   C212    1.437   .     S
C202   O257    1.269   .     A
C202   O259    1.269   .     A
C203   C204    1.383   .     A
C203   C226    1.408   .     A
C203   H242    1.073   .     S
C204   H240    1.084   .     S
C204   C809    1.388   .     S
C205   O258    1.282   .     A
C205   O260    1.279   .     A
C205   C211    1.455   .     S
C206   C207    1.421   .     A
C206   C208    1.403   .     A
C206   C807    1.388   1_554 S
C207   C210    1.405   .     A
C207   C227    1.429   .     A
C208   C209    1.390   .     A
C208   H243    1.084   .     S
C209   C221    1.395   .     A
C209   H239    1.083   .     S
C210   C221    1.393   .     A
C210   H238    1.075   .     S
C211   C279    1.334   .     S
C211   H303    1.088   .     S
C212   C345    1.334   1_455 S
C212   H365    1.086   1_455 S
C213   H241    1.083   .     S
C213   C220    1.402   .     A
C213   C222    1.391   .     A
C214   C217    1.451   .     S
C214   C416    1.332   .     S
C214   H433    1.088   .     S
C215   C216    1.436   .     S
C216   O261    1.276   .     A
C216   O255    1.276   .     A
C217   O256    1.272   .     A
C217   O262    1.272   .     A
C218   O245    1.271   .     A
C218   C221    1.449   .     S
C218   O247    1.275   .     A
C219   O246    1.284   .     A
C219   O248    1.280   .     A
C219   C220    1.471   .     S
C220   C223    1.416   .     A
C222   H233    1.084   .     S
C222   C225    1.399   .     A
C223   S263    1.796   .     S
C223   C224    1.422   .     A
C224   C225    1.413   .     A
C224   C226    1.421   .     A
C225   C832    1.394   .     S
C226   C830    1.428   .     S
C227   C228    1.429   .     A
C227   C829    1.428   1_554 S
C228   S264    1.779   .     S
C228   C229    1.396   .     A
C229   H230    1.085   .     S
C229   C828    1.394   1_554 S
H231   C279    1.086   .     S
H234   O251    0.989   .     S
H235   O254    0.991   .     S
H236   C345    1.088   1_455 S
H237   C416    1.086   .     S
O244   Zn266   1.940   .     S
O244   Zn267   1.938   .     S
O244   Zn268   1.933   .     S
O244   Zn265   1.959   .     S
O245   Zn266   1.934   .     S
O246   Zn268   1.941   .     S
O247   Zn267   1.934   .     S
O248   Zn265   1.928   .     S
O249   S263    1.503   .     D
O250   S263    1.503   .     D
O251   S263    1.686   .     S
O252   S264    1.504   .     D
O253   S264    1.503   .     D
O254   S264    1.683   .     S
O255   Zn265   1.927   .     S
O256   Zn268   1.932   .     S
O257   Zn266   1.927   .     S
O258   Zn267   1.935   .     S
O259   Zn268   1.930   .     S
O260   Zn265   1.925   .     S
O261   Zn266   1.937   .     S
O262   Zn267   1.930   .     S
C269   C279    1.437   .     S
C269   O324    1.269   .     A
C269   O326    1.269   .     A
C270   C271    1.383   .     A
C270   C293    1.408   .     A
C270   H309    1.073   .     S
C271   H307    1.084   .     S
C271   C876    1.388   .     S
C272   O325    1.282   .     A
C272   O327    1.279   .     A
C272   C278    1.455   .     S
C273   C274    1.421   .     A
C273   C275    1.403   .     A
C273   C874    1.388   1_554 S
C274   C277    1.405   .     A
C274   C294    1.429   .     A
C275   C276    1.390   .     A
C275   H310    1.084   .     S
C276   C288    1.395   .     A
C276   H306    1.083   .     S
C277   C288    1.393   .     A
C277   H305    1.075   .     S
C278   C346    1.334   .     S
C278   H370    1.088   .     S
C280   H308    1.083   .     S
C280   C287    1.402   .     A
C280   C289    1.391   .     A
C281   C284    1.451   .     S
C281   C483    1.332   .     S
C281   H500    1.088   .     S
C282   C283    1.436   .     S
C283   O328    1.276   .     A
C283   O322    1.276   .     A
C284   O323    1.272   .     A
C284   O329    1.272   .     A
C285   O312    1.271   .     A
C285   C288    1.449   .     S
C285   O314    1.275   .     A
C286   O313    1.284   .     A
C286   O315    1.280   .     A
C286   C287    1.471   .     S
C287   C290    1.416   .     A
C289   H300    1.084   .     S
C289   C292    1.399   .     A
C290   S330    1.796   .     S
C290   C291    1.422   .     A
C291   C292    1.413   .     A
C291   C293    1.421   .     A
C292   C899    1.394   .     S
C293   C897    1.428   .     S
C294   C295    1.429   .     A
C294   C896    1.428   1_554 S
C295   S331    1.779   .     S
C295   C296    1.396   .     A
C296   H297    1.085   .     S
C296   C895    1.394   1_554 S
H298   C346    1.086   .     S
H301   O318    0.989   .     S
H302   O321    0.991   .     S
H304   C483    1.086   .     S
O311   Zn333   1.940   .     S
O311   Zn334   1.938   .     S
O311   Zn335   1.933   .     S
O311   Zn332   1.959   .     S
O312   Zn333   1.934   .     S
O313   Zn335   1.941   .     S
O314   Zn334   1.934   .     S
O315   Zn332   1.928   .     S
O316   S330    1.503   .     D
O317   S330    1.503   .     D
O318   S330    1.686   .     S
O319   S331    1.504   .     D
O320   S331    1.503   .     D
O321   S331    1.683   .     S
O322   Zn332   1.927   .     S
O323   Zn335   1.932   .     S
O324   Zn333   1.927   .     S
O325   Zn334   1.935   .     S
O326   Zn335   1.930   .     S
O327   Zn332   1.925   .     S
O328   Zn333   1.937   .     S
O329   Zn334   1.930   .     S
C336   C346    1.437   .     S
C336   O391    1.269   .     A
C336   O393    1.269   .     A
C337   C338    1.383   .     A
C337   C360    1.408   .     A
C337   H376    1.073   .     S
C338   H374    1.084   .     S
C338   C943    1.388   .     S
C339   O392    1.282   .     A
C339   O394    1.279   .     A
C339   C345    1.455   .     S
C340   C341    1.421   .     A
C340   C342    1.403   .     A
C340   C941    1.388   1_554 S
C341   C344    1.405   .     A
C341   C361    1.429   .     A
C342   C343    1.390   .     A
C342   H377    1.084   .     S
C343   C355    1.395   .     A
C343   H373    1.083   .     S
C344   C355    1.393   .     A
C344   H372    1.075   .     S
C345   C212    1.334   1_655 S
C345   H236    1.088   1_655 S
C347   H375    1.083   .     S
C347   C354    1.402   .     A
C347   C356    1.391   .     A
C348   C351    1.451   .     S
C348   C550    1.332   .     S
C348   H567    1.088   .     S
C349   C350    1.436   .     S
C350   O395    1.276   .     A
C350   O389    1.276   .     A
C351   O390    1.272   .     A
C351   O396    1.272   .     A
C352   O379    1.271   .     A
C352   C355    1.449   .     S
C352   O381    1.275   .     A
C353   O380    1.284   .     A
C353   O382    1.280   .     A
C353   C354    1.471   .     S
C354   C357    1.416   .     A
C356   H367    1.084   .     S
C356   C359    1.399   .     A
C357   S397    1.796   .     S
C357   C358    1.422   .     A
C358   C359    1.413   .     A
C358   C360    1.421   .     A
C359   C966    1.394   .     S
C360   C964    1.428   .     S
C361   C362    1.429   .     A
C361   C963    1.428   1_554 S
C362   S398    1.779   .     S
C362   C363    1.396   .     A
C363   H364    1.085   .     S
C363   C962    1.394   1_554 S
H365   C212    1.086   1_655 S
H368   O385    0.989   .     S
H369   O388    0.991   .     S
H371   C550    1.086   .     S
O378   Zn400   1.940   .     S
O378   Zn401   1.938   .     S
O378   Zn402   1.933   .     S
O378   Zn399   1.959   .     S
O379   Zn400   1.934   .     S
O380   Zn402   1.941   .     S
O381   Zn401   1.934   .     S
O382   Zn399   1.928   .     S
O383   S397    1.503   .     D
O384   S397    1.503   .     D
O385   S397    1.686   .     S
O386   S398    1.504   .     D
O387   S398    1.503   .     D
O388   S398    1.683   .     S
O389   Zn399   1.927   .     S
O390   Zn402   1.932   .     S
O391   Zn400   1.927   .     S
O392   Zn401   1.935   .     S
O393   Zn402   1.930   .     S
O394   Zn399   1.925   .     S
O395   Zn400   1.937   .     S
O396   Zn401   1.930   .     S
C403   C413    1.437   .     S
C403   O458    1.269   .     A
C403   O460    1.269   .     A
C404   C405    1.383   .     A
C404   C427    1.408   .     A
C404   H443    1.073   .     S
C405   H441    1.084   .     S
C405   C1010   1.388   .     S
C406   O459    1.282   .     A
C406   O461    1.279   .     A
C406   C412    1.455   .     S
C407   C408    1.421   .     A
C407   C409    1.403   .     A
C407   C1008   1.388   1_554 S
C408   C411    1.405   .     A
C408   C428    1.429   .     A
C409   C410    1.390   .     A
C409   H444    1.084   .     S
C410   C422    1.395   .     A
C410   H440    1.083   .     S
C411   C422    1.393   .     A
C411   H439    1.075   .     S
C412   C480    1.334   .     S
C412   H504    1.088   .     S
C413   C546    1.334   1_455 S
C413   H566    1.086   1_455 S
C414   H442    1.083   .     S
C414   C421    1.402   .     A
C414   C423    1.391   .     A
C415   C418    1.451   .     S
C415   C14     1.332   1_565 S
C415   H31     1.088   1_565 S
C416   C417    1.436   .     S
C417   O462    1.276   .     A
C417   O456    1.276   .     A
C418   O457    1.272   .     A
C418   O463    1.272   .     A
C419   O446    1.271   .     A
C419   C422    1.449   .     S
C419   O448    1.275   .     A
C420   O447    1.284   .     A
C420   O449    1.280   .     A
C420   C421    1.471   .     S
C421   C424    1.416   .     A
C423   H434    1.084   .     S
C423   C426    1.399   .     A
C424   S464    1.796   .     S
C424   C425    1.422   .     A
C425   C426    1.413   .     A
C425   C427    1.421   .     A
C426   C1033   1.394   .     S
C427   C1031   1.428   .     S
C428   C429    1.429   .     A
C428   C1030   1.428   1_554 S
C429   S465    1.779   .     S
C429   C430    1.396   .     A
C430   H431    1.085   .     S
C430   C1029   1.394   1_554 S
H432   C480    1.086   .     S
H435   O452    0.989   .     S
H436   O455    0.991   .     S
H437   C546    1.088   1_455 S
H438   C14     1.086   1_565 S
O445   Zn467   1.940   .     S
O445   Zn468   1.938   .     S
O445   Zn469   1.933   .     S
O445   Zn466   1.959   .     S
O446   Zn467   1.934   .     S
O447   Zn469   1.941   .     S
O448   Zn468   1.934   .     S
O449   Zn466   1.928   .     S
O450   S464    1.503   .     D
O451   S464    1.503   .     D
O452   S464    1.686   .     S
O453   S465    1.504   .     D
O454   S465    1.503   .     D
O455   S465    1.683   .     S
O456   Zn466   1.927   .     S
O457   Zn469   1.932   .     S
O458   Zn467   1.927   .     S
O459   Zn468   1.935   .     S
O460   Zn469   1.930   .     S
O461   Zn466   1.925   .     S
O462   Zn467   1.937   .     S
O463   Zn468   1.930   .     S
C470   C480    1.437   .     S
C470   O525    1.269   .     A
C470   O527    1.269   .     A
C471   C472    1.383   .     A
C471   C494    1.408   .     A
C471   H510    1.073   .     S
C472   H508    1.084   .     S
C472   C1077   1.388   .     S
C473   O526    1.282   .     A
C473   O528    1.279   .     A
C473   C479    1.455   .     S
C474   C475    1.421   .     A
C474   C476    1.403   .     A
C474   C1075   1.388   1_554 S
C475   C478    1.405   .     A
C475   C495    1.429   .     A
C476   C477    1.390   .     A
C476   H511    1.084   .     S
C477   C489    1.395   .     A
C477   H507    1.083   .     S
C478   C489    1.393   .     A
C478   H506    1.075   .     S
C479   C547    1.334   .     S
C479   H571    1.088   .     S
C481   H509    1.083   .     S
C481   C488    1.402   .     A
C481   C490    1.391   .     A
C482   C485    1.451   .     S
C482   C81     1.332   1_565 S
C482   H98     1.088   1_565 S
C483   C484    1.436   .     S
C484   O529    1.276   .     A
C484   O523    1.276   .     A
C485   O524    1.272   .     A
C485   O530    1.272   .     A
C486   O513    1.271   .     A
C486   C489    1.449   .     S
C486   O515    1.275   .     A
C487   O514    1.284   .     A
C487   O516    1.280   .     A
C487   C488    1.471   .     S
C488   C491    1.416   .     A
C490   H501    1.084   .     S
C490   C493    1.399   .     A
C491   S531    1.796   .     S
C491   C492    1.422   .     A
C492   C493    1.413   .     A
C492   C494    1.421   .     A
C493   C1100   1.394   .     S
C494   C1098   1.428   .     S
C495   C496    1.429   .     A
C495   C1097   1.428   1_554 S
C496   S532    1.779   .     S
C496   C497    1.396   .     A
C497   H498    1.085   .     S
C497   C1096   1.394   1_554 S
H499   C547    1.086   .     S
H502   O519    0.989   .     S
H503   O522    0.991   .     S
H505   C81     1.086   1_565 S
O512   Zn534   1.940   .     S
O512   Zn535   1.938   .     S
O512   Zn536   1.933   .     S
O512   Zn533   1.959   .     S
O513   Zn534   1.934   .     S
O514   Zn536   1.941   .     S
O515   Zn535   1.934   .     S
O516   Zn533   1.928   .     S
O517   S531    1.503   .     D
O518   S531    1.503   .     D
O519   S531    1.686   .     S
O520   S532    1.504   .     D
O521   S532    1.503   .     D
O522   S532    1.683   .     S
O523   Zn533   1.927   .     S
O524   Zn536   1.932   .     S
O525   Zn534   1.927   .     S
O526   Zn535   1.935   .     S
O527   Zn536   1.930   .     S
O528   Zn533   1.925   .     S
O529   Zn534   1.937   .     S
O530   Zn535   1.930   .     S
C537   C547    1.437   .     S
C537   O592    1.269   .     A
C537   O594    1.269   .     A
C538   C539    1.383   .     A
C538   C561    1.408   .     A
C538   H577    1.073   .     S
C539   H575    1.084   .     S
C539   C1144   1.388   .     S
C540   O593    1.282   .     A
C540   O595    1.279   .     A
C540   C546    1.455   .     S
C541   C542    1.421   .     A
C541   C543    1.403   .     A
C541   C1142   1.388   1_554 S
C542   C545    1.405   .     A
C542   C562    1.429   .     A
C543   C544    1.390   .     A
C543   H578    1.084   .     S
C544   C556    1.395   .     A
C544   H574    1.083   .     S
C545   C556    1.393   .     A
C545   H573    1.075   .     S
C546   C413    1.334   1_655 S
C546   H437    1.088   1_655 S
C548   H576    1.083   .     S
C548   C555    1.402   .     A
C548   C557    1.391   .     A
C549   C552    1.451   .     S
C549   C148    1.332   1_565 S
C549   H165    1.088   1_565 S
C550   C551    1.436   .     S
C551   O596    1.276   .     A
C551   O590    1.276   .     A
C552   O591    1.272   .     A
C552   O597    1.272   .     A
C553   O580    1.271   .     A
C553   C556    1.449   .     S
C553   O582    1.275   .     A
C554   O581    1.284   .     A
C554   O583    1.280   .     A
C554   C555    1.471   .     S
C555   C558    1.416   .     A
C557   H568    1.084   .     S
C557   C560    1.399   .     A
C558   S598    1.796   .     S
C558   C559    1.422   .     A
C559   C560    1.413   .     A
C559   C561    1.421   .     A
C560   C1167   1.394   .     S
C561   C1165   1.428   .     S
C562   C563    1.429   .     A
C562   C1164   1.428   1_554 S
C563   S599    1.779   .     S
C563   C564    1.396   .     A
C564   H565    1.085   .     S
C564   C1163   1.394   1_554 S
H566   C413    1.086   1_655 S
H569   O586    0.989   .     S
H570   O589    0.991   .     S
H572   C148    1.086   1_565 S
O579   Zn601   1.940   .     S
O579   Zn602   1.938   .     S
O579   Zn603   1.933   .     S
O579   Zn600   1.959   .     S
O580   Zn601   1.934   .     S
O581   Zn603   1.941   .     S
O582   Zn602   1.934   .     S
O583   Zn600   1.928   .     S
O584   S598    1.503   .     D
O585   S598    1.503   .     D
O586   S598    1.686   .     S
O587   S599    1.504   .     D
O588   S599    1.503   .     D
O589   S599    1.683   .     S
O590   Zn600   1.927   .     S
O591   Zn603   1.932   .     S
O592   Zn601   1.927   .     S
O593   Zn602   1.935   .     S
O594   Zn603   1.930   .     S
O595   Zn600   1.925   .     S
O596   Zn601   1.937   .     S
O597   Zn602   1.930   .     S
C604   C614    1.437   .     S
C604   O659    1.269   .     A
C604   O661    1.269   .     A
C605   C606    1.383   .     A
C605   C628    1.408   .     A
C605   H644    1.073   .     S
C606   H642    1.084   .     S
C606   C5      1.388   1_556 S
C607   O660    1.282   .     A
C607   O662    1.279   .     A
C607   C613    1.455   .     S
C608   C609    1.421   .     A
C608   C610    1.403   .     A
C609   C612    1.405   .     A
C609   C629    1.429   .     A
C610   C611    1.390   .     A
C610   H645    1.084   .     S
C611   C623    1.395   .     A
C611   H641    1.083   .     S
C612   C623    1.393   .     A
C612   H640    1.075   .     S
C613   C681    1.334   .     S
C613   H705    1.088   .     S
C614   C747    1.334   1_455 S
C614   H767    1.086   1_455 S
C615   H643    1.083   .     S
C615   C622    1.402   .     A
C615   C624    1.391   .     A
C616   C619    1.451   .     S
C616   C818    1.332   .     S
C616   H835    1.088   .     S
C617   C618    1.436   .     S
C617   C1018   1.332   1_545 S
C617   H1041   1.086   1_545 S
C618   O663    1.276   .     A
C618   O657    1.276   .     A
C619   O658    1.272   .     A
C619   O664    1.272   .     A
C620   O647    1.271   .     A
C620   C623    1.449   .     S
C620   O649    1.275   .     A
C621   O648    1.284   .     A
C621   O650    1.280   .     A
C621   C622    1.471   .     S
C622   C625    1.416   .     A
C624   H635    1.084   .     S
C624   C627    1.399   .     A
C625   S665    1.796   .     S
C625   C626    1.422   .     A
C626   C627    1.413   .     A
C626   C628    1.421   .     A
C627   C28     1.394   1_556 S
C628   C26     1.428   1_556 S
C629   C630    1.429   .     A
C630   S666    1.779   .     S
C630   C631    1.396   .     A
C631   H632    1.085   .     S
H633   C681    1.086   .     S
H634   C1018   1.088   1_545 S
H636   O653    0.989   .     S
H637   O656    0.991   .     S
H638   C747    1.088   1_455 S
H639   C818    1.086   .     S
O646   Zn668   1.940   .     S
O646   Zn669   1.938   .     S
O646   Zn670   1.933   .     S
O646   Zn667   1.959   .     S
O647   Zn668   1.934   .     S
O648   Zn670   1.941   .     S
O649   Zn669   1.934   .     S
O650   Zn667   1.928   .     S
O651   S665    1.503   .     D
O652   S665    1.503   .     D
O653   S665    1.686   .     S
O654   S666    1.504   .     D
O655   S666    1.503   .     D
O656   S666    1.683   .     S
O657   Zn667   1.927   .     S
O658   Zn670   1.932   .     S
O659   Zn668   1.927   .     S
O660   Zn669   1.935   .     S
O661   Zn670   1.930   .     S
O662   Zn667   1.925   .     S
O663   Zn668   1.937   .     S
O664   Zn669   1.930   .     S
C671   C681    1.437   .     S
C671   O726    1.269   .     A
C671   O728    1.269   .     A
C672   C673    1.383   .     A
C672   C695    1.408   .     A
C672   H711    1.073   .     S
C673   H709    1.084   .     S
C673   C72     1.388   1_556 S
C674   O727    1.282   .     A
C674   O729    1.279   .     A
C674   C680    1.455   .     S
C675   C676    1.421   .     A
C675   C677    1.403   .     A
C676   C679    1.405   .     A
C676   C696    1.429   .     A
C677   C678    1.390   .     A
C677   H712    1.084   .     S
C678   C690    1.395   .     A
C678   H708    1.083   .     S
C679   C690    1.393   .     A
C679   H707    1.075   .     S
C680   C748    1.334   .     S
C680   H772    1.088   .     S
C682   H710    1.083   .     S
C682   C689    1.402   .     A
C682   C691    1.391   .     A
C683   C686    1.451   .     S
C683   C885    1.332   .     S
C683   H902    1.088   .     S
C684   C685    1.436   .     S
C684   C1085   1.332   1_545 S
C684   H1108   1.086   1_545 S
C685   O730    1.276   .     A
C685   O724    1.276   .     A
C686   O725    1.272   .     A
C686   O731    1.272   .     A
C687   O714    1.271   .     A
C687   C690    1.449   .     S
C687   O716    1.275   .     A
C688   O715    1.284   .     A
C688   O717    1.280   .     A
C688   C689    1.471   .     S
C689   C692    1.416   .     A
C691   H702    1.084   .     S
C691   C694    1.399   .     A
C692   S732    1.796   .     S
C692   C693    1.422   .     A
C693   C694    1.413   .     A
C693   C695    1.421   .     A
C694   C95     1.394   1_556 S
C695   C93     1.428   1_556 S
C696   C697    1.429   .     A
C697   S733    1.779   .     S
C697   C698    1.396   .     A
C698   H699    1.085   .     S
H700   C748    1.086   .     S
H701   C1085   1.088   1_545 S
H703   O720    0.989   .     S
H704   O723    0.991   .     S
H706   C885    1.086   .     S
O713   Zn735   1.940   .     S
O713   Zn736   1.938   .     S
O713   Zn737   1.933   .     S
O713   Zn734   1.959   .     S
O714   Zn735   1.934   .     S
O715   Zn737   1.941   .     S
O716   Zn736   1.934   .     S
O717   Zn734   1.928   .     S
O718   S732    1.503   .     D
O719   S732    1.503   .     D
O720   S732    1.686   .     S
O721   S733    1.504   .     D
O722   S733    1.503   .     D
O723   S733    1.683   .     S
O724   Zn734   1.927   .     S
O725   Zn737   1.932   .     S
O726   Zn735   1.927   .     S
O727   Zn736   1.935   .     S
O728   Zn737   1.930   .     S
O729   Zn734   1.925   .     S
O730   Zn735   1.937   .     S
O731   Zn736   1.930   .     S
C738   C748    1.437   .     S
C738   O793    1.269   .     A
C738   O795    1.269   .     A
C739   C740    1.383   .     A
C739   C762    1.408   .     A
C739   H778    1.073   .     S
C740   H776    1.084   .     S
C740   C139    1.388   1_556 S
C741   O794    1.282   .     A
C741   O796    1.279   .     A
C741   C747    1.455   .     S
C742   C743    1.421   .     A
C742   C744    1.403   .     A
C743   C746    1.405   .     A
C743   C763    1.429   .     A
C744   C745    1.390   .     A
C744   H779    1.084   .     S
C745   C757    1.395   .     A
C745   H775    1.083   .     S
C746   C757    1.393   .     A
C746   H774    1.075   .     S
C747   C614    1.334   1_655 S
C747   H638    1.088   1_655 S
C749   H777    1.083   .     S
C749   C756    1.402   .     A
C749   C758    1.391   .     A
C750   C753    1.451   .     S
C750   C952    1.332   .     S
C750   H969    1.088   .     S
C751   C752    1.436   .     S
C751   C1152   1.332   1_545 S
C751   H1175   1.086   1_545 S
C752   O797    1.276   .     A
C752   O791    1.276   .     A
C753   O792    1.272   .     A
C753   O798    1.272   .     A
C754   O781    1.271   .     A
C754   C757    1.449   .     S
C754   O783    1.275   .     A
C755   O782    1.284   .     A
C755   O784    1.280   .     A
C755   C756    1.471   .     S
C756   C759    1.416   .     A
C758   H769    1.084   .     S
C758   C761    1.399   .     A
C759   S799    1.796   .     S
C759   C760    1.422   .     A
C760   C761    1.413   .     A
C760   C762    1.421   .     A
C761   C162    1.394   1_556 S
C762   C160    1.428   1_556 S
C763   C764    1.429   .     A
C764   S800    1.779   .     S
C764   C765    1.396   .     A
C765   H766    1.085   .     S
H767   C614    1.086   1_655 S
H768   C1152   1.088   1_545 S
H770   O787    0.989   .     S
H771   O790    0.991   .     S
H773   C952    1.086   .     S
O780   Zn802   1.940   .     S
O780   Zn803   1.938   .     S
O780   Zn804   1.933   .     S
O780   Zn801   1.959   .     S
O781   Zn802   1.934   .     S
O782   Zn804   1.941   .     S
O783   Zn803   1.934   .     S
O784   Zn801   1.928   .     S
O785   S799    1.503   .     D
O786   S799    1.503   .     D
O787   S799    1.686   .     S
O788   S800    1.504   .     D
O789   S800    1.503   .     D
O790   S800    1.683   .     S
O791   Zn801   1.927   .     S
O792   Zn804   1.932   .     S
O793   Zn802   1.927   .     S
O794   Zn803   1.935   .     S
O795   Zn804   1.930   .     S
O796   Zn801   1.925   .     S
O797   Zn802   1.937   .     S
O798   Zn803   1.930   .     S
C805   C815    1.437   .     S
C805   O860    1.269   .     A
C805   O862    1.269   .     A
C806   C807    1.383   .     A
C806   C829    1.408   .     A
C806   H845    1.073   .     S
C807   H843    1.084   .     S
C807   C206    1.388   1_556 S
C808   O861    1.282   .     A
C808   O863    1.279   .     A
C808   C814    1.455   .     S
C809   C810    1.421   .     A
C809   C811    1.403   .     A
C810   C813    1.405   .     A
C810   C830    1.429   .     A
C811   C812    1.390   .     A
C811   H846    1.084   .     S
C812   C824    1.395   .     A
C812   H842    1.083   .     S
C813   C824    1.393   .     A
C813   H841    1.075   .     S
C814   C882    1.334   .     S
C814   H906    1.088   .     S
C815   C948    1.334   1_455 S
C815   H968    1.086   1_455 S
C816   H844    1.083   .     S
C816   C823    1.402   .     A
C816   C825    1.391   .     A
C817   C820    1.451   .     S
C817   C1019   1.332   .     S
C817   H1036   1.088   .     S
C818   C819    1.436   .     S
C819   O864    1.276   .     A
C819   O858    1.276   .     A
C820   O859    1.272   .     A
C820   O865    1.272   .     A
C821   O848    1.271   .     A
C821   C824    1.449   .     S
C821   O850    1.275   .     A
C822   O849    1.284   .     A
C822   O851    1.280   .     A
C822   C823    1.471   .     S
C823   C826    1.416   .     A
C825   H836    1.084   .     S
C825   C828    1.399   .     A
C826   S866    1.796   .     S
C826   C827    1.422   .     A
C827   C828    1.413   .     A
C827   C829    1.421   .     A
C828   C229    1.394   1_556 S
C829   C227    1.428   1_556 S
C830   C831    1.429   .     A
C831   S867    1.779   .     S
C831   C832    1.396   .     A
C832   H833    1.085   .     S
H834   C882    1.086   .     S
H837   O854    0.989   .     S
H838   O857    0.991   .     S
H839   C948    1.088   1_455 S
H840   C1019   1.086   .     S
O847   Zn869   1.940   .     S
O847   Zn870   1.938   .     S
O847   Zn871   1.933   .     S
O847   Zn868   1.959   .     S
O848   Zn869   1.934   .     S
O849   Zn871   1.941   .     S
O850   Zn870   1.934   .     S
O851   Zn868   1.928   .     S
O852   S866    1.503   .     D
O853   S866    1.503   .     D
O854   S866    1.686   .     S
O855   S867    1.504   .     D
O856   S867    1.503   .     D
O857   S867    1.683   .     S
O858   Zn868   1.927   .     S
O859   Zn871   1.932   .     S
O860   Zn869   1.927   .     S
O861   Zn870   1.935   .     S
O862   Zn871   1.930   .     S
O863   Zn868   1.925   .     S
O864   Zn869   1.937   .     S
O865   Zn870   1.930   .     S
C872   C882    1.437   .     S
C872   O927    1.269   .     A
C872   O929    1.269   .     A
C873   C874    1.383   .     A
C873   C896    1.408   .     A
C873   H912    1.073   .     S
C874   H910    1.084   .     S
C874   C273    1.388   1_556 S
C875   O928    1.282   .     A
C875   O930    1.279   .     A
C875   C881    1.455   .     S
C876   C877    1.421   .     A
C876   C878    1.403   .     A
C877   C880    1.405   .     A
C877   C897    1.429   .     A
C878   C879    1.390   .     A
C878   H913    1.084   .     S
C879   C891    1.395   .     A
C879   H909    1.083   .     S
C880   C891    1.393   .     A
C880   H908    1.075   .     S
C881   C949    1.334   .     S
C881   H973    1.088   .     S
C883   H911    1.083   .     S
C883   C890    1.402   .     A
C883   C892    1.391   .     A
C884   C887    1.451   .     S
C884   C1086   1.332   .     S
C884   H1103   1.088   .     S
C885   C886    1.436   .     S
C886   O931    1.276   .     A
C886   O925    1.276   .     A
C887   O926    1.272   .     A
C887   O932    1.272   .     A
C888   O915    1.271   .     A
C888   C891    1.449   .     S
C888   O917    1.275   .     A
C889   O916    1.284   .     A
C889   O918    1.280   .     A
C889   C890    1.471   .     S
C890   C893    1.416   .     A
C892   H903    1.084   .     S
C892   C895    1.399   .     A
C893   S933    1.796   .     S
C893   C894    1.422   .     A
C894   C895    1.413   .     A
C894   C896    1.421   .     A
C895   C296    1.394   1_556 S
C896   C294    1.428   1_556 S
C897   C898    1.429   .     A
C898   S934    1.779   .     S
C898   C899    1.396   .     A
C899   H900    1.085   .     S
H901   C949    1.086   .     S
H904   O921    0.989   .     S
H905   O924    0.991   .     S
H907   C1086   1.086   .     S
O914   Zn936   1.940   .     S
O914   Zn937   1.938   .     S
O914   Zn938   1.933   .     S
O914   Zn935   1.959   .     S
O915   Zn936   1.934   .     S
O916   Zn938   1.941   .     S
O917   Zn937   1.934   .     S
O918   Zn935   1.928   .     S
O919   S933    1.503   .     D
O920   S933    1.503   .     D
O921   S933    1.686   .     S
O922   S934    1.504   .     D
O923   S934    1.503   .     D
O924   S934    1.683   .     S
O925   Zn935   1.927   .     S
O926   Zn938   1.932   .     S
O927   Zn936   1.927   .     S
O928   Zn937   1.935   .     S
O929   Zn938   1.930   .     S
O930   Zn935   1.925   .     S
O931   Zn936   1.937   .     S
O932   Zn937   1.930   .     S
C939   C949    1.437   .     S
C939   O994    1.269   .     A
C939   O996    1.269   .     A
C940   C941    1.383   .     A
C940   C963    1.408   .     A
C940   H979    1.073   .     S
C941   H977    1.084   .     S
C941   C340    1.388   1_556 S
C942   O995    1.282   .     A
C942   O997    1.279   .     A
C942   C948    1.455   .     S
C943   C944    1.421   .     A
C943   C945    1.403   .     A
C944   C947    1.405   .     A
C944   C964    1.429   .     A
C945   C946    1.390   .     A
C945   H980    1.084   .     S
C946   C958    1.395   .     A
C946   H976    1.083   .     S
C947   C958    1.393   .     A
C947   H975    1.075   .     S
C948   C815    1.334   1_655 S
C948   H839    1.088   1_655 S
C950   H978    1.083   .     S
C950   C957    1.402   .     A
C950   C959    1.391   .     A
C951   C954    1.451   .     S
C951   C1153   1.332   .     S
C951   H1170   1.088   .     S
C952   C953    1.436   .     S
C953   O998    1.276   .     A
C953   O992    1.276   .     A
C954   O993    1.272   .     A
C954   O999    1.272   .     A
C955   O982    1.271   .     A
C955   C958    1.449   .     S
C955   O984    1.275   .     A
C956   O983    1.284   .     A
C956   O985    1.280   .     A
C956   C957    1.471   .     S
C957   C960    1.416   .     A
C959   H970    1.084   .     S
C959   C962    1.399   .     A
C960   S1000   1.796   .     S
C960   C961    1.422   .     A
C961   C962    1.413   .     A
C961   C963    1.421   .     A
C962   C363    1.394   1_556 S
C963   C361    1.428   1_556 S
C964   C965    1.429   .     A
C965   S1001   1.779   .     S
C965   C966    1.396   .     A
C966   H967    1.085   .     S
H968   C815    1.086   1_655 S
H971   O988    0.989   .     S
H972   O991    0.991   .     S
H974   C1153   1.086   .     S
O981   Zn1003  1.940   .     S
O981   Zn1004  1.938   .     S
O981   Zn1005  1.933   .     S
O981   Zn1002  1.959   .     S
O982   Zn1003  1.934   .     S
O983   Zn1005  1.941   .     S
O984   Zn1004  1.934   .     S
O985   Zn1002  1.928   .     S
O986   S1000   1.503   .     D
O987   S1000   1.503   .     D
O988   S1000   1.686   .     S
O989   S1001   1.504   .     D
O990   S1001   1.503   .     D
O991   S1001   1.683   .     S
O992   Zn1002  1.927   .     S
O993   Zn1005  1.932   .     S
O994   Zn1003  1.927   .     S
O995   Zn1004  1.935   .     S
O996   Zn1005  1.930   .     S
O997   Zn1002  1.925   .     S
O998   Zn1003  1.937   .     S
O999   Zn1004  1.930   .     S
C1006  C1016   1.437   .     S
C1006  O1061   1.269   .     A
C1006  O1063   1.269   .     A
C1007  C1008   1.383   .     A
C1007  C1030   1.408   .     A
C1007  H1046   1.073   .     S
C1008  H1044   1.084   .     S
C1008  C407    1.388   1_556 S
C1009  O1062   1.282   .     A
C1009  O1064   1.279   .     A
C1009  C1015   1.455   .     S
C1010  C1011   1.421   .     A
C1010  C1012   1.403   .     A
C1011  C1014   1.405   .     A
C1011  C1031   1.429   .     A
C1012  C1013   1.390   .     A
C1012  H1047   1.084   .     S
C1013  C1025   1.395   .     A
C1013  H1043   1.083   .     S
C1014  C1025   1.393   .     A
C1014  H1042   1.075   .     S
C1015  C1083   1.334   .     S
C1015  H1107   1.088   .     S
C1016  C1149   1.334   1_455 S
C1016  H1169   1.086   1_455 S
C1017  H1045   1.083   .     S
C1017  C1024   1.402   .     A
C1017  C1026   1.391   .     A
C1018  C1021   1.451   .     S
C1018  C617    1.332   1_565 S
C1018  H634    1.088   1_565 S
C1019  C1020   1.436   .     S
C1020  O1065   1.276   .     A
C1020  O1059   1.276   .     A
C1021  O1060   1.272   .     A
C1021  O1066   1.272   .     A
C1022  O1049   1.271   .     A
C1022  C1025   1.449   .     S
C1022  O1051   1.275   .     A
C1023  O1050   1.284   .     A
C1023  O1052   1.280   .     A
C1023  C1024   1.471   .     S
C1024  C1027   1.416   .     A
C1026  H1037   1.084   .     S
C1026  C1029   1.399   .     A
C1027  S1067   1.796   .     S
C1027  C1028   1.422   .     A
C1028  C1029   1.413   .     A
C1028  C1030   1.421   .     A
C1029  C430    1.394   1_556 S
C1030  C428    1.428   1_556 S
C1031  C1032   1.429   .     A
C1032  S1068   1.779   .     S
C1032  C1033   1.396   .     A
C1033  H1034   1.085   .     S
H1035  C1083   1.086   .     S
H1038  O1055   0.989   .     S
H1039  O1058   0.991   .     S
H1040  C1149   1.088   1_455 S
H1041  C617    1.086   1_565 S
O1048  Zn1070  1.940   .     S
O1048  Zn1071  1.938   .     S
O1048  Zn1072  1.933   .     S
O1048  Zn1069  1.959   .     S
O1049  Zn1070  1.934   .     S
O1050  Zn1072  1.941   .     S
O1051  Zn1071  1.934   .     S
O1052  Zn1069  1.928   .     S
O1053  S1067   1.503   .     D
O1054  S1067   1.503   .     D
O1055  S1067   1.686   .     S
O1056  S1068   1.504   .     D
O1057  S1068   1.503   .     D
O1058  S1068   1.683   .     S
O1059  Zn1069  1.927   .     S
O1060  Zn1072  1.932   .     S
O1061  Zn1070  1.927   .     S
O1062  Zn1071  1.935   .     S
O1063  Zn1072  1.930   .     S
O1064  Zn1069  1.925   .     S
O1065  Zn1070  1.937   .     S
O1066  Zn1071  1.930   .     S
C1073  C1083   1.437   .     S
C1073  O1128   1.269   .     A
C1073  O1130   1.269   .     A
C1074  C1075   1.383   .     A
C1074  C1097   1.408   .     A
C1074  H1113   1.073   .     S
C1075  H1111   1.084   .     S
C1075  C474    1.388   1_556 S
C1076  O1129   1.282   .     A
C1076  O1131   1.279   .     A
C1076  C1082   1.455   .     S
C1077  C1078   1.421   .     A
C1077  C1079   1.403   .     A
C1078  C1081   1.405   .     A
C1078  C1098   1.429   .     A
C1079  C1080   1.390   .     A
C1079  H1114   1.084   .     S
C1080  C1092   1.395   .     A
C1080  H1110   1.083   .     S
C1081  C1092   1.393   .     A
C1081  H1109   1.075   .     S
C1082  C1150   1.334   .     S
C1082  H1174   1.088   .     S
C1084  H1112   1.083   .     S
C1084  C1091   1.402   .     A
C1084  C1093   1.391   .     A
C1085  C1088   1.451   .     S
C1085  C684    1.332   1_565 S
C1085  H701    1.088   1_565 S
C1086  C1087   1.436   .     S
C1087  O1132   1.276   .     A
C1087  O1126   1.276   .     A
C1088  O1127   1.272   .     A
C1088  O1133   1.272   .     A
C1089  O1116   1.271   .     A
C1089  C1092   1.449   .     S
C1089  O1118   1.275   .     A
C1090  O1117   1.284   .     A
C1090  O1119   1.280   .     A
C1090  C1091   1.471   .     S
C1091  C1094   1.416   .     A
C1093  H1104   1.084   .     S
C1093  C1096   1.399   .     A
C1094  S1134   1.796   .     S
C1094  C1095   1.422   .     A
C1095  C1096   1.413   .     A
C1095  C1097   1.421   .     A
C1096  C497    1.394   1_556 S
C1097  C495    1.428   1_556 S
C1098  C1099   1.429   .     A
C1099  S1135   1.779   .     S
C1099  C1100   1.396   .     A
C1100  H1101   1.085   .     S
H1102  C1150   1.086   .     S
H1105  O1122   0.989   .     S
H1106  O1125   0.991   .     S
H1108  C684    1.086   1_565 S
O1115  Zn1137  1.940   .     S
O1115  Zn1138  1.938   .     S
O1115  Zn1139  1.933   .     S
O1115  Zn1136  1.959   .     S
O1116  Zn1137  1.934   .     S
O1117  Zn1139  1.941   .     S
O1118  Zn1138  1.934   .     S
O1119  Zn1136  1.928   .     S
O1120  S1134   1.503   .     D
O1121  S1134   1.503   .     D
O1122  S1134   1.686   .     S
O1123  S1135   1.504   .     D
O1124  S1135   1.503   .     D
O1125  S1135   1.683   .     S
O1126  Zn1136  1.927   .     S
O1127  Zn1139  1.932   .     S
O1128  Zn1137  1.927   .     S
O1129  Zn1138  1.935   .     S
O1130  Zn1139  1.930   .     S
O1131  Zn1136  1.925   .     S
O1132  Zn1137  1.937   .     S
O1133  Zn1138  1.930   .     S
C1140  C1150   1.437   .     S
C1140  O1195   1.269   .     A
C1140  O1197   1.269   .     A
C1141  C1142   1.383   .     A
C1141  C1164   1.408   .     A
C1141  H1180   1.073   .     S
C1142  H1178   1.084   .     S
C1142  C541    1.388   1_556 S
C1143  O1196   1.282   .     A
C1143  O1198   1.279   .     A
C1143  C1149   1.455   .     S
C1144  C1145   1.421   .     A
C1144  C1146   1.403   .     A
C1145  C1148   1.405   .     A
C1145  C1165   1.429   .     A
C1146  C1147   1.390   .     A
C1146  H1181   1.084   .     S
C1147  C1159   1.395   .     A
C1147  H1177   1.083   .     S
C1148  C1159   1.393   .     A
C1148  H1176   1.075   .     S
C1149  C1016   1.334   1_655 S
C1149  H1040   1.088   1_655 S
C1151  H1179   1.083   .     S
C1151  C1158   1.402   .     A
C1151  C1160   1.391   .     A
C1152  C1155   1.451   .     S
C1152  C751    1.332   1_565 S
C1152  H768    1.088   1_565 S
C1153  C1154   1.436   .     S
C1154  O1199   1.276   .     A
C1154  O1193   1.276   .     A
C1155  O1194   1.272   .     A
C1155  O1200   1.272   .     A
C1156  O1183   1.271   .     A
C1156  C1159   1.449   .     S
C1156  O1185   1.275   .     A
C1157  O1184   1.284   .     A
C1157  O1186   1.280   .     A
C1157  C1158   1.471   .     S
C1158  C1161   1.416   .     A
C1160  H1171   1.084   .     S
C1160  C1163   1.399   .     A
C1161  S1201   1.796   .     S
C1161  C1162   1.422   .     A
C1162  C1163   1.413   .     A
C1162  C1164   1.421   .     A
C1163  C564    1.394   1_556 S
C1164  C562    1.428   1_556 S
C1165  C1166   1.429   .     A
C1166  S1202   1.779   .     S
C1166  C1167   1.396   .     A
C1167  H1168   1.085   .     S
H1169  C1016   1.086   1_655 S
H1172  O1189   0.989   .     S
H1173  O1192   0.991   .     S
H1175  C751    1.086   1_565 S
O1182  Zn1204  1.940   .     S
O1182  Zn1205  1.938   .     S
O1182  Zn1206  1.933   .     S
O1182  Zn1203  1.959   .     S
O1183  Zn1204  1.934   .     S
O1184  Zn1206  1.941   .     S
O1185  Zn1205  1.934   .     S
O1186  Zn1203  1.928   .     S
O1187  S1201   1.503   .     D
O1188  S1201   1.503   .     D
O1189  S1201   1.686   .     S
O1190  S1202   1.504   .     D
O1191  S1202   1.503   .     D
O1192  S1202   1.683   .     S
O1193  Zn1203  1.927   .     S
O1194  Zn1206  1.932   .     S
O1195  Zn1204  1.927   .     S
O1196  Zn1205  1.935   .     S
O1197  Zn1206  1.930   .     S
O1198  Zn1203  1.925   .     S
O1199  Zn1204  1.937   .     S
O1200  Zn1205  1.930   .     S
