data_str_m3_o1_o17_pcu_sym.7
_audit_creation_date              2020-01-03
_audit_creation_method            'Materials Studio'
_symmetry_space_group_name_H-M    'P1'
_symmetry_Int_Tables_number       1
_symmetry_cell_setting            triclinic
loop_
_symmetry_equiv_pos_as_xyz
  x,y,z
_cell_length_a                    32.1583
_cell_length_b                    29.7465
_cell_length_c                    29.9326
_cell_angle_alpha                 90.2488
_cell_angle_beta                  91.5044
_cell_angle_gamma                 90.1665
loop_
_atom_site_label
_atom_site_type_symbol
_atom_site_fract_x
_atom_site_fract_y
_atom_site_fract_z
_atom_site_U_iso_or_equiv
_atom_site_adp_type
_atom_site_occupancy
O1     O     0.10559   0.20487   0.24999   0.00000  Uiso   1.00
O2     O     0.22774   0.12846   0.25000   0.00000  Uiso   1.00
O3     O     0.22774   0.20487   0.25000   0.00000  Uiso   1.00
O4     O     0.10559   0.12846   0.24999   0.00000  Uiso   1.00
C5     C     0.08689   0.16659   0.25474   0.00000  Uiso   1.00
C6     C     0.24646   0.16670   0.24541   0.00000  Uiso   1.00
O7     O     0.16666   0.20489   0.18392   0.00000  Uiso   1.00
O8     O     0.16667   0.12844   0.31607   0.00000  Uiso   1.00
O9     O     0.16667   0.20489   0.31607   0.00000  Uiso   1.00
O10    O     0.16666   0.12844   0.18392   0.00000  Uiso   1.00
C11    C     0.16575   0.16658   0.16366   0.00000  Uiso   1.00
C12    C     0.16766   0.16679   0.33633   0.00000  Uiso   1.00
Zn13   Zn    0.16667   0.21771   0.25000   0.00000  Uiso   1.00
Zn14   Zn    0.16667   0.11563   0.25000   0.00000  Uiso   1.00
C15    C     0.20584   0.17259   0.40798   0.00000  Uiso   1.00
C16    C     0.12764   0.16169   0.09190   0.00000  Uiso   1.00
C17    C     0.16803   0.16713   0.38401   0.00000  Uiso   1.00
C18    C     0.16546   0.16661   0.11597   0.00000  Uiso   1.00
C19    C     0.12986   0.16434   0.40512   0.00000  Uiso   1.00
C20    C     0.20343   0.17203   0.09488   0.00000  Uiso   1.00
C21    C     0.12907   0.16566   0.45161   0.00000  Uiso   1.00
C22    C     0.20414   0.17177   0.04836   0.00000  Uiso   1.00
C23    C     0.16693   0.16889   0.47655   0.00000  Uiso   1.00
C24    C     0.16631   0.16835   0.02342   0.00000  Uiso   1.00
C25    C     0.20542   0.17217   0.45475   0.00000  Uiso   1.00
C26    C     0.12791   0.16402   0.04520   0.00000  Uiso   1.00
C27    C     0.09123   0.16319   0.47362   0.00000  Uiso   1.00
C28    C     0.24201   0.17381   0.02635   0.00000  Uiso   1.00
C29    C     0.09062   0.16284   0.01979   0.00000  Uiso   1.00
C30    C     0.24266   0.17355   0.48020   0.00000  Uiso   1.00
H31    H     0.06174   0.16129   0.45539   0.00000  Uiso   1.00
H32    H     0.27153   0.17485   0.04457   0.00000  Uiso   1.00
H33    H     0.06058   0.16194   0.03515   0.00000  Uiso   1.00
H34    H     0.27275   0.17360   0.46490   0.00000  Uiso   1.00
C35    C     0.02053   0.12516   0.25575   0.00000  Uiso   1.00
C36    C     0.31285   0.20783   0.24410   0.00000  Uiso   1.00
C37    C     0.31246   0.12544   0.24250   0.00000  Uiso   1.00
C38    C     0.02082   0.20757   0.25769   0.00000  Uiso   1.00
C39    C     0.29106   0.16672   0.24114   0.00000  Uiso   1.00
C40    C     0.04228   0.16635   0.25901   0.00000  Uiso   1.00
C41    C     0.19173   0.02406   0.27935   0.00000  Uiso   1.00
C42    C     0.14158   0.30926   0.22067   0.00000  Uiso   1.00
C43    C     0.14166   0.02369   0.22062   0.00000  Uiso   1.00
C44    C     0.19173   0.30963   0.27931   0.00000  Uiso   1.00
N45    N     0.16667   0.28573   0.25000   0.00000  Uiso   1.00
N46    N     0.16667   0.04760   0.25000   0.00000  Uiso   1.00
N47    N     0.24409   0.17980   0.38493   0.00000  Uiso   1.00
O48    O     0.25510   0.15275   0.35317   0.00000  Uiso   1.00
O49    O     0.26749   0.21439   0.39478   0.00000  Uiso   1.00
N50    N     0.08952   0.15326   0.11478   0.00000  Uiso   1.00
O51    O     0.07814   0.17935   0.14717   0.00000  Uiso   1.00
O52    O     0.06651   0.11863   0.10394   0.00000  Uiso   1.00
N53    N     0.09199   0.16044   0.37898   0.00000  Uiso   1.00
O54    O     0.06788   0.19512   0.37352   0.00000  Uiso   1.00
O55    O     0.08085   0.12170   0.36228   0.00000  Uiso   1.00
N56    N     0.24124   0.17677   0.12103   0.00000  Uiso   1.00
O57    O     0.26131   0.21480   0.12172   0.00000  Uiso   1.00
O58    O     0.25708   0.14210   0.14147   0.00000  Uiso   1.00
Br59   Br    0.04379   0.06823   0.27554   0.00000  Uiso   1.00
Br60   Br    0.28981   0.26431   0.22287   0.00000  Uiso   1.00
Br61   Br    0.28851   0.06945   0.22000   0.00000  Uiso   1.00
Br62   Br    0.04452   0.26342   0.28068   0.00000  Uiso   1.00
Br63   Br    0.22766   0.05527   0.32128   0.00000  Uiso   1.00
Br64   Br    0.10550   0.27798   0.17889   0.00000  Uiso   1.00
Br65   Br    0.10615   0.05455   0.17856   0.00000  Uiso   1.00
Br66   Br    0.22755   0.27873   0.32102   0.00000  Uiso   1.00
O67    O     0.43892   0.20487   0.24999   0.00000  Uiso   1.00
O68    O     0.56108   0.12846   0.25000   0.00000  Uiso   1.00
O69    O     0.56108   0.20487   0.25000   0.00000  Uiso   1.00
O70    O     0.43892   0.12846   0.24999   0.00000  Uiso   1.00
C71    C     0.42022   0.16659   0.25474   0.00000  Uiso   1.00
C72    C     0.57980   0.16670   0.24541   0.00000  Uiso   1.00
O73    O     0.49999   0.20489   0.18392   0.00000  Uiso   1.00
O74    O     0.50001   0.12844   0.31607   0.00000  Uiso   1.00
O75    O     0.50001   0.20489   0.31607   0.00000  Uiso   1.00
O76    O     0.49999   0.12844   0.18392   0.00000  Uiso   1.00
C77    C     0.49908   0.16658   0.16366   0.00000  Uiso   1.00
C78    C     0.50100   0.16679   0.33633   0.00000  Uiso   1.00
Zn79   Zn    0.50000   0.21771   0.25000   0.00000  Uiso   1.00
Zn80   Zn    0.50000   0.11563   0.25000   0.00000  Uiso   1.00
C81    C     0.53917   0.17259   0.40798   0.00000  Uiso   1.00
C82    C     0.46097   0.16169   0.09190   0.00000  Uiso   1.00
C83    C     0.50136   0.16713   0.38401   0.00000  Uiso   1.00
C84    C     0.49880   0.16661   0.11597   0.00000  Uiso   1.00
C85    C     0.46319   0.16434   0.40512   0.00000  Uiso   1.00
C86    C     0.53676   0.17203   0.09488   0.00000  Uiso   1.00
C87    C     0.46240   0.16566   0.45161   0.00000  Uiso   1.00
C88    C     0.53748   0.17177   0.04836   0.00000  Uiso   1.00
C89    C     0.50026   0.16889   0.47655   0.00000  Uiso   1.00
C90    C     0.49964   0.16835   0.02342   0.00000  Uiso   1.00
C91    C     0.53875   0.17217   0.45475   0.00000  Uiso   1.00
C92    C     0.46124   0.16402   0.04520   0.00000  Uiso   1.00
C93    C     0.42456   0.16319   0.47362   0.00000  Uiso   1.00
C94    C     0.57535   0.17381   0.02635   0.00000  Uiso   1.00
C95    C     0.42396   0.16284   0.01979   0.00000  Uiso   1.00
C96    C     0.57600   0.17355   0.48020   0.00000  Uiso   1.00
H97    H     0.39508   0.16129   0.45539   0.00000  Uiso   1.00
H98    H     0.60487   0.17485   0.04457   0.00000  Uiso   1.00
H99    H     0.39391   0.16194   0.03515   0.00000  Uiso   1.00
H100   H     0.60608   0.17360   0.46490   0.00000  Uiso   1.00
C101   C     0.35387   0.12516   0.25575   0.00000  Uiso   1.00
C102   C     0.64618   0.20783   0.24410   0.00000  Uiso   1.00
C103   C     0.64580   0.12544   0.24250   0.00000  Uiso   1.00
C104   C     0.35415   0.20757   0.25769   0.00000  Uiso   1.00
C105   C     0.62440   0.16672   0.24114   0.00000  Uiso   1.00
C106   C     0.37561   0.16635   0.25901   0.00000  Uiso   1.00
C107   C     0.52506   0.02406   0.27935   0.00000  Uiso   1.00
C108   C     0.47491   0.30926   0.22067   0.00000  Uiso   1.00
C109   C     0.47500   0.02369   0.22062   0.00000  Uiso   1.00
C110   C     0.52507   0.30963   0.27931   0.00000  Uiso   1.00
N111   N     0.50000   0.28573   0.25000   0.00000  Uiso   1.00
N112   N     0.50000   0.04760   0.25000   0.00000  Uiso   1.00
N113   N     0.57742   0.17980   0.38493   0.00000  Uiso   1.00
O114   O     0.58843   0.15275   0.35317   0.00000  Uiso   1.00
O115   O     0.60082   0.21439   0.39478   0.00000  Uiso   1.00
N116   N     0.42285   0.15326   0.11478   0.00000  Uiso   1.00
O117   O     0.41147   0.17935   0.14717   0.00000  Uiso   1.00
O118   O     0.39984   0.11863   0.10394   0.00000  Uiso   1.00
N119   N     0.42533   0.16044   0.37898   0.00000  Uiso   1.00
O120   O     0.40121   0.19512   0.37352   0.00000  Uiso   1.00
O121   O     0.41418   0.12170   0.36228   0.00000  Uiso   1.00
N122   N     0.57457   0.17677   0.12103   0.00000  Uiso   1.00
O123   O     0.59464   0.21480   0.12172   0.00000  Uiso   1.00
O124   O     0.59042   0.14210   0.14147   0.00000  Uiso   1.00
Br125  Br    0.37713   0.06823   0.27554   0.00000  Uiso   1.00
Br126  Br    0.62314   0.26431   0.22287   0.00000  Uiso   1.00
Br127  Br    0.62184   0.06945   0.22000   0.00000  Uiso   1.00
Br128  Br    0.37785   0.26342   0.28068   0.00000  Uiso   1.00
Br129  Br    0.56099   0.05527   0.32128   0.00000  Uiso   1.00
Br130  Br    0.43884   0.27798   0.17889   0.00000  Uiso   1.00
Br131  Br    0.43948   0.05455   0.17856   0.00000  Uiso   1.00
Br132  Br    0.56089   0.27873   0.32102   0.00000  Uiso   1.00
O133   O     0.77226   0.20487   0.24999   0.00000  Uiso   1.00
O134   O     0.89441   0.12846   0.25000   0.00000  Uiso   1.00
O135   O     0.89441   0.20487   0.25000   0.00000  Uiso   1.00
O136   O     0.77226   0.12846   0.24999   0.00000  Uiso   1.00
C137   C     0.75355   0.16659   0.25474   0.00000  Uiso   1.00
C138   C     0.91313   0.16670   0.24541   0.00000  Uiso   1.00
O139   O     0.83333   0.20489   0.18392   0.00000  Uiso   1.00
O140   O     0.83334   0.12844   0.31607   0.00000  Uiso   1.00
O141   O     0.83334   0.20489   0.31607   0.00000  Uiso   1.00
O142   O     0.83333   0.12844   0.18392   0.00000  Uiso   1.00
C143   C     0.83242   0.16658   0.16366   0.00000  Uiso   1.00
C144   C     0.83433   0.16679   0.33633   0.00000  Uiso   1.00
Zn145  Zn    0.83333   0.21771   0.25000   0.00000  Uiso   1.00
Zn146  Zn    0.83333   0.11563   0.25000   0.00000  Uiso   1.00
C147   C     0.87251   0.17259   0.40798   0.00000  Uiso   1.00
C148   C     0.79430   0.16169   0.09190   0.00000  Uiso   1.00
C149   C     0.83469   0.16713   0.38401   0.00000  Uiso   1.00
C150   C     0.83213   0.16661   0.11597   0.00000  Uiso   1.00
C151   C     0.79653   0.16434   0.40512   0.00000  Uiso   1.00
C152   C     0.87009   0.17203   0.09488   0.00000  Uiso   1.00
C153   C     0.79574   0.16566   0.45161   0.00000  Uiso   1.00
C154   C     0.87081   0.17177   0.04836   0.00000  Uiso   1.00
C155   C     0.83359   0.16889   0.47655   0.00000  Uiso   1.00
C156   C     0.83298   0.16835   0.02342   0.00000  Uiso   1.00
C157   C     0.87208   0.17217   0.45475   0.00000  Uiso   1.00
C158   C     0.79457   0.16402   0.04520   0.00000  Uiso   1.00
C159   C     0.75789   0.16319   0.47362   0.00000  Uiso   1.00
C160   C     0.90868   0.17381   0.02635   0.00000  Uiso   1.00
C161   C     0.75729   0.16284   0.01979   0.00000  Uiso   1.00
C162   C     0.90933   0.17355   0.48020   0.00000  Uiso   1.00
H163   H     0.72841   0.16129   0.45539   0.00000  Uiso   1.00
H164   H     0.93820   0.17485   0.04457   0.00000  Uiso   1.00
H165   H     0.72725   0.16194   0.03515   0.00000  Uiso   1.00
H166   H     0.93941   0.17360   0.46490   0.00000  Uiso   1.00
C167   C     0.68720   0.12516   0.25575   0.00000  Uiso   1.00
C168   C     0.97951   0.20783   0.24410   0.00000  Uiso   1.00
C169   C     0.97913   0.12544   0.24250   0.00000  Uiso   1.00
C170   C     0.68748   0.20757   0.25769   0.00000  Uiso   1.00
C171   C     0.95773   0.16672   0.24114   0.00000  Uiso   1.00
C172   C     0.70894   0.16635   0.25901   0.00000  Uiso   1.00
C173   C     0.85839   0.02406   0.27935   0.00000  Uiso   1.00
C174   C     0.80824   0.30926   0.22067   0.00000  Uiso   1.00
C175   C     0.80833   0.02369   0.22062   0.00000  Uiso   1.00
C176   C     0.85840   0.30963   0.27931   0.00000  Uiso   1.00
N177   N     0.83333   0.28573   0.25000   0.00000  Uiso   1.00
N178   N     0.83333   0.04760   0.25000   0.00000  Uiso   1.00
N179   N     0.91075   0.17980   0.38493   0.00000  Uiso   1.00
O180   O     0.92177   0.15275   0.35317   0.00000  Uiso   1.00
O181   O     0.93415   0.21439   0.39478   0.00000  Uiso   1.00
N182   N     0.75619   0.15326   0.11478   0.00000  Uiso   1.00
O183   O     0.74481   0.17935   0.14717   0.00000  Uiso   1.00
O184   O     0.73318   0.11863   0.10394   0.00000  Uiso   1.00
N185   N     0.75866   0.16044   0.37898   0.00000  Uiso   1.00
O186   O     0.73454   0.19512   0.37352   0.00000  Uiso   1.00
O187   O     0.74751   0.12170   0.36228   0.00000  Uiso   1.00
N188   N     0.90791   0.17677   0.12103   0.00000  Uiso   1.00
O189   O     0.92797   0.21480   0.12172   0.00000  Uiso   1.00
O190   O     0.92375   0.14210   0.14147   0.00000  Uiso   1.00
Br191  Br    0.71046   0.06823   0.27554   0.00000  Uiso   1.00
Br192  Br    0.95648   0.26431   0.22287   0.00000  Uiso   1.00
Br193  Br    0.95518   0.06945   0.22000   0.00000  Uiso   1.00
Br194  Br    0.71119   0.26342   0.28068   0.00000  Uiso   1.00
Br195  Br    0.89433   0.05527   0.32128   0.00000  Uiso   1.00
Br196  Br    0.77217   0.27798   0.17889   0.00000  Uiso   1.00
Br197  Br    0.77282   0.05455   0.17856   0.00000  Uiso   1.00
Br198  Br    0.89422   0.27873   0.32102   0.00000  Uiso   1.00
O199   O     0.10559   0.53821   0.24999   0.00000  Uiso   1.00
O200   O     0.22774   0.46179   0.25000   0.00000  Uiso   1.00
O201   O     0.22774   0.53821   0.25000   0.00000  Uiso   1.00
O202   O     0.10559   0.46179   0.24999   0.00000  Uiso   1.00
C203   C     0.08689   0.49992   0.25474   0.00000  Uiso   1.00
C204   C     0.24646   0.50004   0.24541   0.00000  Uiso   1.00
O205   O     0.16666   0.53823   0.18392   0.00000  Uiso   1.00
O206   O     0.16667   0.46177   0.31607   0.00000  Uiso   1.00
O207   O     0.16667   0.53823   0.31607   0.00000  Uiso   1.00
O208   O     0.16666   0.46177   0.18392   0.00000  Uiso   1.00
C209   C     0.16575   0.49992   0.16366   0.00000  Uiso   1.00
C210   C     0.16766   0.50013   0.33633   0.00000  Uiso   1.00
Zn211  Zn    0.16667   0.55104   0.25000   0.00000  Uiso   1.00
Zn212  Zn    0.16667   0.44896   0.25000   0.00000  Uiso   1.00
C213   C     0.20584   0.50593   0.40798   0.00000  Uiso   1.00
C214   C     0.12764   0.49502   0.09190   0.00000  Uiso   1.00
C215   C     0.16803   0.50046   0.38401   0.00000  Uiso   1.00
C216   C     0.16546   0.49995   0.11597   0.00000  Uiso   1.00
C217   C     0.12986   0.49767   0.40512   0.00000  Uiso   1.00
C218   C     0.20343   0.50537   0.09488   0.00000  Uiso   1.00
C219   C     0.12907   0.49899   0.45161   0.00000  Uiso   1.00
C220   C     0.20414   0.50510   0.04836   0.00000  Uiso   1.00
C221   C     0.16693   0.50223   0.47655   0.00000  Uiso   1.00
C222   C     0.16631   0.50169   0.02342   0.00000  Uiso   1.00
C223   C     0.20542   0.50551   0.45475   0.00000  Uiso   1.00
C224   C     0.12791   0.49736   0.04520   0.00000  Uiso   1.00
C225   C     0.09123   0.49653   0.47362   0.00000  Uiso   1.00
C226   C     0.24201   0.50714   0.02635   0.00000  Uiso   1.00
C227   C     0.09062   0.49617   0.01979   0.00000  Uiso   1.00
C228   C     0.24266   0.50688   0.48020   0.00000  Uiso   1.00
H229   H     0.06174   0.49462   0.45539   0.00000  Uiso   1.00
H230   H     0.27153   0.50819   0.04457   0.00000  Uiso   1.00
H231   H     0.06058   0.49528   0.03515   0.00000  Uiso   1.00
H232   H     0.27275   0.50694   0.46490   0.00000  Uiso   1.00
C233   C     0.02053   0.45849   0.25575   0.00000  Uiso   1.00
C234   C     0.31285   0.54116   0.24410   0.00000  Uiso   1.00
C235   C     0.31246   0.45878   0.24250   0.00000  Uiso   1.00
C236   C     0.02082   0.54091   0.25769   0.00000  Uiso   1.00
C237   C     0.29106   0.50005   0.24114   0.00000  Uiso   1.00
C238   C     0.04228   0.49969   0.25901   0.00000  Uiso   1.00
C239   C     0.19173   0.35739   0.27935   0.00000  Uiso   1.00
C240   C     0.14158   0.64259   0.22067   0.00000  Uiso   1.00
C241   C     0.14166   0.35703   0.22062   0.00000  Uiso   1.00
C242   C     0.19173   0.64296   0.27931   0.00000  Uiso   1.00
N243   N     0.16667   0.61907   0.25000   0.00000  Uiso   1.00
N244   N     0.16667   0.38093   0.25000   0.00000  Uiso   1.00
N245   N     0.24409   0.51313   0.38493   0.00000  Uiso   1.00
O246   O     0.25510   0.48608   0.35317   0.00000  Uiso   1.00
O247   O     0.26749   0.54773   0.39478   0.00000  Uiso   1.00
N248   N     0.08952   0.48659   0.11478   0.00000  Uiso   1.00
O249   O     0.07814   0.51268   0.14717   0.00000  Uiso   1.00
O250   O     0.06651   0.45197   0.10394   0.00000  Uiso   1.00
N251   N     0.09199   0.49378   0.37898   0.00000  Uiso   1.00
O252   O     0.06788   0.52846   0.37352   0.00000  Uiso   1.00
O253   O     0.08085   0.45503   0.36228   0.00000  Uiso   1.00
N254   N     0.24124   0.51010   0.12103   0.00000  Uiso   1.00
O255   O     0.26131   0.54814   0.12172   0.00000  Uiso   1.00
O256   O     0.25708   0.47543   0.14147   0.00000  Uiso   1.00
Br257  Br    0.04379   0.40156   0.27554   0.00000  Uiso   1.00
Br258  Br    0.28981   0.59764   0.22287   0.00000  Uiso   1.00
Br259  Br    0.28851   0.40278   0.22000   0.00000  Uiso   1.00
Br260  Br    0.04452   0.59676   0.28068   0.00000  Uiso   1.00
Br261  Br    0.22766   0.38860   0.32128   0.00000  Uiso   1.00
Br262  Br    0.10550   0.61132   0.17889   0.00000  Uiso   1.00
Br263  Br    0.10615   0.38788   0.17856   0.00000  Uiso   1.00
Br264  Br    0.22755   0.61206   0.32102   0.00000  Uiso   1.00
O265   O     0.43892   0.53821   0.24999   0.00000  Uiso   1.00
O266   O     0.56108   0.46179   0.25000   0.00000  Uiso   1.00
O267   O     0.56108   0.53821   0.25000   0.00000  Uiso   1.00
O268   O     0.43892   0.46179   0.24999   0.00000  Uiso   1.00
C269   C     0.42022   0.49992   0.25474   0.00000  Uiso   1.00
C270   C     0.57980   0.50004   0.24541   0.00000  Uiso   1.00
O271   O     0.49999   0.53823   0.18392   0.00000  Uiso   1.00
O272   O     0.50001   0.46177   0.31607   0.00000  Uiso   1.00
O273   O     0.50001   0.53823   0.31607   0.00000  Uiso   1.00
O274   O     0.49999   0.46177   0.18392   0.00000  Uiso   1.00
C275   C     0.49908   0.49992   0.16366   0.00000  Uiso   1.00
C276   C     0.50100   0.50013   0.33633   0.00000  Uiso   1.00
Zn277  Zn    0.50000   0.55104   0.25000   0.00000  Uiso   1.00
Zn278  Zn    0.50000   0.44896   0.25000   0.00000  Uiso   1.00
C279   C     0.53917   0.50593   0.40798   0.00000  Uiso   1.00
C280   C     0.46097   0.49502   0.09190   0.00000  Uiso   1.00
C281   C     0.50136   0.50046   0.38401   0.00000  Uiso   1.00
C282   C     0.49880   0.49995   0.11597   0.00000  Uiso   1.00
C283   C     0.46319   0.49767   0.40512   0.00000  Uiso   1.00
C284   C     0.53676   0.50537   0.09488   0.00000  Uiso   1.00
C285   C     0.46240   0.49899   0.45161   0.00000  Uiso   1.00
C286   C     0.53748   0.50510   0.04836   0.00000  Uiso   1.00
C287   C     0.50026   0.50223   0.47655   0.00000  Uiso   1.00
C288   C     0.49964   0.50169   0.02342   0.00000  Uiso   1.00
C289   C     0.53875   0.50551   0.45475   0.00000  Uiso   1.00
C290   C     0.46124   0.49736   0.04520   0.00000  Uiso   1.00
C291   C     0.42456   0.49653   0.47362   0.00000  Uiso   1.00
C292   C     0.57535   0.50714   0.02635   0.00000  Uiso   1.00
C293   C     0.42396   0.49617   0.01979   0.00000  Uiso   1.00
C294   C     0.57600   0.50688   0.48020   0.00000  Uiso   1.00
H295   H     0.39508   0.49462   0.45539   0.00000  Uiso   1.00
H296   H     0.60487   0.50819   0.04457   0.00000  Uiso   1.00
H297   H     0.39391   0.49528   0.03515   0.00000  Uiso   1.00
H298   H     0.60608   0.50694   0.46490   0.00000  Uiso   1.00
C299   C     0.35387   0.45849   0.25575   0.00000  Uiso   1.00
C300   C     0.64618   0.54116   0.24410   0.00000  Uiso   1.00
C301   C     0.64580   0.45878   0.24250   0.00000  Uiso   1.00
C302   C     0.35415   0.54091   0.25769   0.00000  Uiso   1.00
C303   C     0.62440   0.50005   0.24114   0.00000  Uiso   1.00
C304   C     0.37561   0.49969   0.25901   0.00000  Uiso   1.00
C305   C     0.52506   0.35739   0.27935   0.00000  Uiso   1.00
C306   C     0.47491   0.64259   0.22067   0.00000  Uiso   1.00
C307   C     0.47500   0.35703   0.22062   0.00000  Uiso   1.00
C308   C     0.52507   0.64296   0.27931   0.00000  Uiso   1.00
N309   N     0.50000   0.61907   0.25000   0.00000  Uiso   1.00
N310   N     0.50000   0.38093   0.25000   0.00000  Uiso   1.00
N311   N     0.57742   0.51313   0.38493   0.00000  Uiso   1.00
O312   O     0.58843   0.48608   0.35317   0.00000  Uiso   1.00
O313   O     0.60082   0.54773   0.39478   0.00000  Uiso   1.00
N314   N     0.42285   0.48659   0.11478   0.00000  Uiso   1.00
O315   O     0.41147   0.51268   0.14717   0.00000  Uiso   1.00
O316   O     0.39984   0.45197   0.10394   0.00000  Uiso   1.00
N317   N     0.42533   0.49378   0.37898   0.00000  Uiso   1.00
O318   O     0.40121   0.52846   0.37352   0.00000  Uiso   1.00
O319   O     0.41418   0.45503   0.36228   0.00000  Uiso   1.00
N320   N     0.57457   0.51010   0.12103   0.00000  Uiso   1.00
O321   O     0.59464   0.54814   0.12172   0.00000  Uiso   1.00
O322   O     0.59042   0.47543   0.14147   0.00000  Uiso   1.00
Br323  Br    0.37713   0.40156   0.27554   0.00000  Uiso   1.00
Br324  Br    0.62314   0.59764   0.22287   0.00000  Uiso   1.00
Br325  Br    0.62184   0.40278   0.22000   0.00000  Uiso   1.00
Br326  Br    0.37785   0.59676   0.28068   0.00000  Uiso   1.00
Br327  Br    0.56099   0.38860   0.32128   0.00000  Uiso   1.00
Br328  Br    0.43884   0.61132   0.17889   0.00000  Uiso   1.00
Br329  Br    0.43948   0.38788   0.17856   0.00000  Uiso   1.00
Br330  Br    0.56089   0.61206   0.32102   0.00000  Uiso   1.00
O331   O     0.77226   0.53821   0.24999   0.00000  Uiso   1.00
O332   O     0.89441   0.46179   0.25000   0.00000  Uiso   1.00
O333   O     0.89441   0.53821   0.25000   0.00000  Uiso   1.00
O334   O     0.77226   0.46179   0.24999   0.00000  Uiso   1.00
C335   C     0.75355   0.49992   0.25474   0.00000  Uiso   1.00
C336   C     0.91313   0.50004   0.24541   0.00000  Uiso   1.00
O337   O     0.83333   0.53823   0.18392   0.00000  Uiso   1.00
O338   O     0.83334   0.46177   0.31607   0.00000  Uiso   1.00
O339   O     0.83334   0.53823   0.31607   0.00000  Uiso   1.00
O340   O     0.83333   0.46177   0.18392   0.00000  Uiso   1.00
C341   C     0.83242   0.49992   0.16366   0.00000  Uiso   1.00
C342   C     0.83433   0.50013   0.33633   0.00000  Uiso   1.00
Zn343  Zn    0.83333   0.55104   0.25000   0.00000  Uiso   1.00
Zn344  Zn    0.83333   0.44896   0.25000   0.00000  Uiso   1.00
C345   C     0.87251   0.50593   0.40798   0.00000  Uiso   1.00
C346   C     0.79430   0.49502   0.09190   0.00000  Uiso   1.00
C347   C     0.83469   0.50046   0.38401   0.00000  Uiso   1.00
C348   C     0.83213   0.49995   0.11597   0.00000  Uiso   1.00
C349   C     0.79653   0.49767   0.40512   0.00000  Uiso   1.00
C350   C     0.87009   0.50537   0.09488   0.00000  Uiso   1.00
C351   C     0.79574   0.49899   0.45161   0.00000  Uiso   1.00
C352   C     0.87081   0.50510   0.04836   0.00000  Uiso   1.00
C353   C     0.83359   0.50223   0.47655   0.00000  Uiso   1.00
C354   C     0.83298   0.50169   0.02342   0.00000  Uiso   1.00
C355   C     0.87208   0.50551   0.45475   0.00000  Uiso   1.00
C356   C     0.79457   0.49736   0.04520   0.00000  Uiso   1.00
C357   C     0.75789   0.49653   0.47362   0.00000  Uiso   1.00
C358   C     0.90868   0.50714   0.02635   0.00000  Uiso   1.00
C359   C     0.75729   0.49617   0.01979   0.00000  Uiso   1.00
C360   C     0.90933   0.50688   0.48020   0.00000  Uiso   1.00
H361   H     0.72841   0.49462   0.45539   0.00000  Uiso   1.00
H362   H     0.93820   0.50819   0.04457   0.00000  Uiso   1.00
H363   H     0.72725   0.49528   0.03515   0.00000  Uiso   1.00
H364   H     0.93941   0.50694   0.46490   0.00000  Uiso   1.00
C365   C     0.68720   0.45849   0.25575   0.00000  Uiso   1.00
C366   C     0.97951   0.54116   0.24410   0.00000  Uiso   1.00
C367   C     0.97913   0.45878   0.24250   0.00000  Uiso   1.00
C368   C     0.68748   0.54091   0.25769   0.00000  Uiso   1.00
C369   C     0.95773   0.50005   0.24114   0.00000  Uiso   1.00
C370   C     0.70894   0.49969   0.25901   0.00000  Uiso   1.00
C371   C     0.85839   0.35739   0.27935   0.00000  Uiso   1.00
C372   C     0.80824   0.64259   0.22067   0.00000  Uiso   1.00
C373   C     0.80833   0.35703   0.22062   0.00000  Uiso   1.00
C374   C     0.85840   0.64296   0.27931   0.00000  Uiso   1.00
N375   N     0.83333   0.61907   0.25000   0.00000  Uiso   1.00
N376   N     0.83333   0.38093   0.25000   0.00000  Uiso   1.00
N377   N     0.91075   0.51313   0.38493   0.00000  Uiso   1.00
O378   O     0.92177   0.48608   0.35317   0.00000  Uiso   1.00
O379   O     0.93415   0.54773   0.39478   0.00000  Uiso   1.00
N380   N     0.75619   0.48659   0.11478   0.00000  Uiso   1.00
O381   O     0.74481   0.51268   0.14717   0.00000  Uiso   1.00
O382   O     0.73318   0.45197   0.10394   0.00000  Uiso   1.00
N383   N     0.75866   0.49378   0.37898   0.00000  Uiso   1.00
O384   O     0.73454   0.52846   0.37352   0.00000  Uiso   1.00
O385   O     0.74751   0.45503   0.36228   0.00000  Uiso   1.00
N386   N     0.90791   0.51010   0.12103   0.00000  Uiso   1.00
O387   O     0.92797   0.54814   0.12172   0.00000  Uiso   1.00
O388   O     0.92375   0.47543   0.14147   0.00000  Uiso   1.00
Br389  Br    0.71046   0.40156   0.27554   0.00000  Uiso   1.00
Br390  Br    0.95648   0.59764   0.22287   0.00000  Uiso   1.00
Br391  Br    0.95518   0.40278   0.22000   0.00000  Uiso   1.00
Br392  Br    0.71119   0.59676   0.28068   0.00000  Uiso   1.00
Br393  Br    0.89433   0.38860   0.32128   0.00000  Uiso   1.00
Br394  Br    0.77217   0.61132   0.17889   0.00000  Uiso   1.00
Br395  Br    0.77282   0.38788   0.17856   0.00000  Uiso   1.00
Br396  Br    0.89422   0.61206   0.32102   0.00000  Uiso   1.00
O397   O     0.10559   0.87154   0.24999   0.00000  Uiso   1.00
O398   O     0.22774   0.79513   0.25000   0.00000  Uiso   1.00
O399   O     0.22774   0.87154   0.25000   0.00000  Uiso   1.00
O400   O     0.10559   0.79513   0.24999   0.00000  Uiso   1.00
C401   C     0.08689   0.83325   0.25474   0.00000  Uiso   1.00
C402   C     0.24646   0.83337   0.24541   0.00000  Uiso   1.00
O403   O     0.16666   0.87156   0.18392   0.00000  Uiso   1.00
O404   O     0.16667   0.79511   0.31607   0.00000  Uiso   1.00
O405   O     0.16667   0.87156   0.31607   0.00000  Uiso   1.00
O406   O     0.16666   0.79511   0.18392   0.00000  Uiso   1.00
C407   C     0.16575   0.83325   0.16366   0.00000  Uiso   1.00
C408   C     0.16766   0.83346   0.33633   0.00000  Uiso   1.00
Zn409  Zn    0.16667   0.88437   0.25000   0.00000  Uiso   1.00
Zn410  Zn    0.16667   0.78229   0.25000   0.00000  Uiso   1.00
C411   C     0.20584   0.83926   0.40798   0.00000  Uiso   1.00
C412   C     0.12764   0.82835   0.09190   0.00000  Uiso   1.00
C413   C     0.16803   0.83380   0.38401   0.00000  Uiso   1.00
C414   C     0.16546   0.83328   0.11597   0.00000  Uiso   1.00
C415   C     0.12986   0.83101   0.40512   0.00000  Uiso   1.00
C416   C     0.20343   0.83870   0.09488   0.00000  Uiso   1.00
C417   C     0.12907   0.83232   0.45161   0.00000  Uiso   1.00
C418   C     0.20414   0.83844   0.04836   0.00000  Uiso   1.00
C419   C     0.16693   0.83556   0.47655   0.00000  Uiso   1.00
C420   C     0.16631   0.83502   0.02342   0.00000  Uiso   1.00
C421   C     0.20542   0.83884   0.45475   0.00000  Uiso   1.00
C422   C     0.12791   0.83069   0.04520   0.00000  Uiso   1.00
C423   C     0.09123   0.82986   0.47362   0.00000  Uiso   1.00
C424   C     0.24201   0.84048   0.02635   0.00000  Uiso   1.00
C425   C     0.09062   0.82951   0.01979   0.00000  Uiso   1.00
C426   C     0.24266   0.84021   0.48020   0.00000  Uiso   1.00
H427   H     0.06174   0.82796   0.45539   0.00000  Uiso   1.00
H428   H     0.27153   0.84152   0.04457   0.00000  Uiso   1.00
H429   H     0.06058   0.82861   0.03515   0.00000  Uiso   1.00
H430   H     0.27275   0.84027   0.46490   0.00000  Uiso   1.00
C431   C     0.02053   0.79183   0.25575   0.00000  Uiso   1.00
C432   C     0.31285   0.87450   0.24410   0.00000  Uiso   1.00
C433   C     0.31246   0.79211   0.24250   0.00000  Uiso   1.00
C434   C     0.02082   0.87424   0.25769   0.00000  Uiso   1.00
C435   C     0.29106   0.83339   0.24114   0.00000  Uiso   1.00
C436   C     0.04228   0.83302   0.25901   0.00000  Uiso   1.00
C437   C     0.19173   0.69073   0.27935   0.00000  Uiso   1.00
C438   C     0.14158   0.97592   0.22067   0.00000  Uiso   1.00
C439   C     0.14166   0.69036   0.22062   0.00000  Uiso   1.00
C440   C     0.19173   0.97630   0.27931   0.00000  Uiso   1.00
N441   N     0.16667   0.95240   0.25000   0.00000  Uiso   1.00
N442   N     0.16667   0.71427   0.25000   0.00000  Uiso   1.00
N443   N     0.24409   0.84647   0.38493   0.00000  Uiso   1.00
O444   O     0.25510   0.81941   0.35317   0.00000  Uiso   1.00
O445   O     0.26749   0.88106   0.39478   0.00000  Uiso   1.00
N446   N     0.08952   0.81992   0.11478   0.00000  Uiso   1.00
O447   O     0.07814   0.84602   0.14717   0.00000  Uiso   1.00
O448   O     0.06651   0.78530   0.10394   0.00000  Uiso   1.00
N449   N     0.09199   0.82711   0.37898   0.00000  Uiso   1.00
O450   O     0.06788   0.86179   0.37352   0.00000  Uiso   1.00
O451   O     0.08085   0.78837   0.36228   0.00000  Uiso   1.00
N452   N     0.24124   0.84343   0.12103   0.00000  Uiso   1.00
O453   O     0.26131   0.88147   0.12172   0.00000  Uiso   1.00
O454   O     0.25708   0.80876   0.14147   0.00000  Uiso   1.00
Br455  Br    0.04379   0.73489   0.27554   0.00000  Uiso   1.00
Br456  Br    0.28981   0.93097   0.22287   0.00000  Uiso   1.00
Br457  Br    0.28851   0.73611   0.22000   0.00000  Uiso   1.00
Br458  Br    0.04452   0.93009   0.28068   0.00000  Uiso   1.00
Br459  Br    0.22766   0.72193   0.32128   0.00000  Uiso   1.00
Br460  Br    0.10550   0.94465   0.17889   0.00000  Uiso   1.00
Br461  Br    0.10615   0.72122   0.17856   0.00000  Uiso   1.00
Br462  Br    0.22755   0.94540   0.32102   0.00000  Uiso   1.00
O463   O     0.43892   0.87154   0.24999   0.00000  Uiso   1.00
O464   O     0.56108   0.79513   0.25000   0.00000  Uiso   1.00
O465   O     0.56108   0.87154   0.25000   0.00000  Uiso   1.00
O466   O     0.43892   0.79513   0.24999   0.00000  Uiso   1.00
C467   C     0.42022   0.83325   0.25474   0.00000  Uiso   1.00
C468   C     0.57980   0.83337   0.24541   0.00000  Uiso   1.00
O469   O     0.49999   0.87156   0.18392   0.00000  Uiso   1.00
O470   O     0.50001   0.79511   0.31607   0.00000  Uiso   1.00
O471   O     0.50001   0.87156   0.31607   0.00000  Uiso   1.00
O472   O     0.49999   0.79511   0.18392   0.00000  Uiso   1.00
C473   C     0.49908   0.83325   0.16366   0.00000  Uiso   1.00
C474   C     0.50100   0.83346   0.33633   0.00000  Uiso   1.00
Zn475  Zn    0.50000   0.88437   0.25000   0.00000  Uiso   1.00
Zn476  Zn    0.50000   0.78229   0.25000   0.00000  Uiso   1.00
C477   C     0.53917   0.83926   0.40798   0.00000  Uiso   1.00
C478   C     0.46097   0.82835   0.09190   0.00000  Uiso   1.00
C479   C     0.50136   0.83380   0.38401   0.00000  Uiso   1.00
C480   C     0.49880   0.83328   0.11597   0.00000  Uiso   1.00
C481   C     0.46319   0.83101   0.40512   0.00000  Uiso   1.00
C482   C     0.53676   0.83870   0.09488   0.00000  Uiso   1.00
C483   C     0.46240   0.83232   0.45161   0.00000  Uiso   1.00
C484   C     0.53748   0.83844   0.04836   0.00000  Uiso   1.00
C485   C     0.50026   0.83556   0.47655   0.00000  Uiso   1.00
C486   C     0.49964   0.83502   0.02342   0.00000  Uiso   1.00
C487   C     0.53875   0.83884   0.45475   0.00000  Uiso   1.00
C488   C     0.46124   0.83069   0.04520   0.00000  Uiso   1.00
C489   C     0.42456   0.82986   0.47362   0.00000  Uiso   1.00
C490   C     0.57535   0.84048   0.02635   0.00000  Uiso   1.00
C491   C     0.42396   0.82951   0.01979   0.00000  Uiso   1.00
C492   C     0.57600   0.84021   0.48020   0.00000  Uiso   1.00
H493   H     0.39508   0.82796   0.45539   0.00000  Uiso   1.00
H494   H     0.60487   0.84152   0.04457   0.00000  Uiso   1.00
H495   H     0.39391   0.82861   0.03515   0.00000  Uiso   1.00
H496   H     0.60608   0.84027   0.46490   0.00000  Uiso   1.00
C497   C     0.35387   0.79183   0.25575   0.00000  Uiso   1.00
C498   C     0.64618   0.87450   0.24410   0.00000  Uiso   1.00
C499   C     0.64580   0.79211   0.24250   0.00000  Uiso   1.00
C500   C     0.35415   0.87424   0.25769   0.00000  Uiso   1.00
C501   C     0.62440   0.83339   0.24114   0.00000  Uiso   1.00
C502   C     0.37561   0.83302   0.25901   0.00000  Uiso   1.00
C503   C     0.52506   0.69073   0.27935   0.00000  Uiso   1.00
C504   C     0.47491   0.97592   0.22067   0.00000  Uiso   1.00
C505   C     0.47500   0.69036   0.22062   0.00000  Uiso   1.00
C506   C     0.52507   0.97630   0.27931   0.00000  Uiso   1.00
N507   N     0.50000   0.95240   0.25000   0.00000  Uiso   1.00
N508   N     0.50000   0.71427   0.25000   0.00000  Uiso   1.00
N509   N     0.57742   0.84647   0.38493   0.00000  Uiso   1.00
O510   O     0.58843   0.81941   0.35317   0.00000  Uiso   1.00
O511   O     0.60082   0.88106   0.39478   0.00000  Uiso   1.00
N512   N     0.42285   0.81992   0.11478   0.00000  Uiso   1.00
O513   O     0.41147   0.84602   0.14717   0.00000  Uiso   1.00
O514   O     0.39984   0.78530   0.10394   0.00000  Uiso   1.00
N515   N     0.42533   0.82711   0.37898   0.00000  Uiso   1.00
O516   O     0.40121   0.86179   0.37352   0.00000  Uiso   1.00
O517   O     0.41418   0.78837   0.36228   0.00000  Uiso   1.00
N518   N     0.57457   0.84343   0.12103   0.00000  Uiso   1.00
O519   O     0.59464   0.88147   0.12172   0.00000  Uiso   1.00
O520   O     0.59042   0.80876   0.14147   0.00000  Uiso   1.00
Br521  Br    0.37713   0.73489   0.27554   0.00000  Uiso   1.00
Br522  Br    0.62314   0.93097   0.22287   0.00000  Uiso   1.00
Br523  Br    0.62184   0.73611   0.22000   0.00000  Uiso   1.00
Br524  Br    0.37785   0.93009   0.28068   0.00000  Uiso   1.00
Br525  Br    0.56099   0.72193   0.32128   0.00000  Uiso   1.00
Br526  Br    0.43884   0.94465   0.17889   0.00000  Uiso   1.00
Br527  Br    0.43948   0.72122   0.17856   0.00000  Uiso   1.00
Br528  Br    0.56089   0.94540   0.32102   0.00000  Uiso   1.00
O529   O     0.77226   0.87154   0.24999   0.00000  Uiso   1.00
O530   O     0.89441   0.79513   0.25000   0.00000  Uiso   1.00
O531   O     0.89441   0.87154   0.25000   0.00000  Uiso   1.00
O532   O     0.77226   0.79513   0.24999   0.00000  Uiso   1.00
C533   C     0.75355   0.83325   0.25474   0.00000  Uiso   1.00
C534   C     0.91313   0.83337   0.24541   0.00000  Uiso   1.00
O535   O     0.83333   0.87156   0.18392   0.00000  Uiso   1.00
O536   O     0.83334   0.79511   0.31607   0.00000  Uiso   1.00
O537   O     0.83334   0.87156   0.31607   0.00000  Uiso   1.00
O538   O     0.83333   0.79511   0.18392   0.00000  Uiso   1.00
C539   C     0.83242   0.83325   0.16366   0.00000  Uiso   1.00
C540   C     0.83433   0.83346   0.33633   0.00000  Uiso   1.00
Zn541  Zn    0.83333   0.88437   0.25000   0.00000  Uiso   1.00
Zn542  Zn    0.83333   0.78229   0.25000   0.00000  Uiso   1.00
C543   C     0.87251   0.83926   0.40798   0.00000  Uiso   1.00
C544   C     0.79430   0.82835   0.09190   0.00000  Uiso   1.00
C545   C     0.83469   0.83380   0.38401   0.00000  Uiso   1.00
C546   C     0.83213   0.83328   0.11597   0.00000  Uiso   1.00
C547   C     0.79653   0.83101   0.40512   0.00000  Uiso   1.00
C548   C     0.87009   0.83870   0.09488   0.00000  Uiso   1.00
C549   C     0.79574   0.83232   0.45161   0.00000  Uiso   1.00
C550   C     0.87081   0.83844   0.04836   0.00000  Uiso   1.00
C551   C     0.83359   0.83556   0.47655   0.00000  Uiso   1.00
C552   C     0.83298   0.83502   0.02342   0.00000  Uiso   1.00
C553   C     0.87208   0.83884   0.45475   0.00000  Uiso   1.00
C554   C     0.79457   0.83069   0.04520   0.00000  Uiso   1.00
C555   C     0.75789   0.82986   0.47362   0.00000  Uiso   1.00
C556   C     0.90868   0.84048   0.02635   0.00000  Uiso   1.00
C557   C     0.75729   0.82951   0.01979   0.00000  Uiso   1.00
C558   C     0.90933   0.84021   0.48020   0.00000  Uiso   1.00
H559   H     0.72841   0.82796   0.45539   0.00000  Uiso   1.00
H560   H     0.93820   0.84152   0.04457   0.00000  Uiso   1.00
H561   H     0.72725   0.82861   0.03515   0.00000  Uiso   1.00
H562   H     0.93941   0.84027   0.46490   0.00000  Uiso   1.00
C563   C     0.68720   0.79183   0.25575   0.00000  Uiso   1.00
C564   C     0.97951   0.87450   0.24410   0.00000  Uiso   1.00
C565   C     0.97913   0.79211   0.24250   0.00000  Uiso   1.00
C566   C     0.68748   0.87424   0.25769   0.00000  Uiso   1.00
C567   C     0.95773   0.83339   0.24114   0.00000  Uiso   1.00
C568   C     0.70894   0.83302   0.25901   0.00000  Uiso   1.00
C569   C     0.85839   0.69073   0.27935   0.00000  Uiso   1.00
C570   C     0.80824   0.97592   0.22067   0.00000  Uiso   1.00
C571   C     0.80833   0.69036   0.22062   0.00000  Uiso   1.00
C572   C     0.85840   0.97630   0.27931   0.00000  Uiso   1.00
N573   N     0.83333   0.95240   0.25000   0.00000  Uiso   1.00
N574   N     0.83333   0.71427   0.25000   0.00000  Uiso   1.00
N575   N     0.91075   0.84647   0.38493   0.00000  Uiso   1.00
O576   O     0.92177   0.81941   0.35317   0.00000  Uiso   1.00
O577   O     0.93415   0.88106   0.39478   0.00000  Uiso   1.00
N578   N     0.75619   0.81992   0.11478   0.00000  Uiso   1.00
O579   O     0.74481   0.84602   0.14717   0.00000  Uiso   1.00
O580   O     0.73318   0.78530   0.10394   0.00000  Uiso   1.00
N581   N     0.75866   0.82711   0.37898   0.00000  Uiso   1.00
O582   O     0.73454   0.86179   0.37352   0.00000  Uiso   1.00
O583   O     0.74751   0.78837   0.36228   0.00000  Uiso   1.00
N584   N     0.90791   0.84343   0.12103   0.00000  Uiso   1.00
O585   O     0.92797   0.88147   0.12172   0.00000  Uiso   1.00
O586   O     0.92375   0.80876   0.14147   0.00000  Uiso   1.00
Br587  Br    0.71046   0.73489   0.27554   0.00000  Uiso   1.00
Br588  Br    0.95648   0.93097   0.22287   0.00000  Uiso   1.00
Br589  Br    0.95518   0.73611   0.22000   0.00000  Uiso   1.00
Br590  Br    0.71119   0.93009   0.28068   0.00000  Uiso   1.00
Br591  Br    0.89433   0.72193   0.32128   0.00000  Uiso   1.00
Br592  Br    0.77217   0.94465   0.17889   0.00000  Uiso   1.00
Br593  Br    0.77282   0.72122   0.17856   0.00000  Uiso   1.00
Br594  Br    0.89422   0.94540   0.32102   0.00000  Uiso   1.00
O595   O     0.10559   0.20487   0.74999   0.00000  Uiso   1.00
O596   O     0.22774   0.12846   0.75000   0.00000  Uiso   1.00
O597   O     0.22774   0.20487   0.75000   0.00000  Uiso   1.00
O598   O     0.10559   0.12846   0.74999   0.00000  Uiso   1.00
C599   C     0.08689   0.16659   0.75474   0.00000  Uiso   1.00
C600   C     0.24646   0.16670   0.74541   0.00000  Uiso   1.00
O601   O     0.16666   0.20489   0.68392   0.00000  Uiso   1.00
O602   O     0.16667   0.12844   0.81607   0.00000  Uiso   1.00
O603   O     0.16667   0.20489   0.81607   0.00000  Uiso   1.00
O604   O     0.16666   0.12844   0.68392   0.00000  Uiso   1.00
C605   C     0.16575   0.16658   0.66366   0.00000  Uiso   1.00
C606   C     0.16766   0.16679   0.83633   0.00000  Uiso   1.00
Zn607  Zn    0.16667   0.21771   0.75000   0.00000  Uiso   1.00
Zn608  Zn    0.16667   0.11563   0.75000   0.00000  Uiso   1.00
C609   C     0.20584   0.17259   0.90798   0.00000  Uiso   1.00
C610   C     0.12764   0.16169   0.59190   0.00000  Uiso   1.00
C611   C     0.16803   0.16713   0.88401   0.00000  Uiso   1.00
C612   C     0.16546   0.16661   0.61597   0.00000  Uiso   1.00
C613   C     0.12986   0.16434   0.90512   0.00000  Uiso   1.00
C614   C     0.20343   0.17203   0.59488   0.00000  Uiso   1.00
C615   C     0.12907   0.16566   0.95161   0.00000  Uiso   1.00
C616   C     0.20414   0.17177   0.54836   0.00000  Uiso   1.00
C617   C     0.16693   0.16889   0.97655   0.00000  Uiso   1.00
C618   C     0.16631   0.16835   0.52342   0.00000  Uiso   1.00
C619   C     0.20542   0.17217   0.95475   0.00000  Uiso   1.00
C620   C     0.12791   0.16402   0.54520   0.00000  Uiso   1.00
C621   C     0.09123   0.16319   0.97362   0.00000  Uiso   1.00
C622   C     0.24201   0.17381   0.52635   0.00000  Uiso   1.00
C623   C     0.09062   0.16284   0.51979   0.00000  Uiso   1.00
C624   C     0.24266   0.17355   0.98020   0.00000  Uiso   1.00
H625   H     0.06174   0.16129   0.95539   0.00000  Uiso   1.00
H626   H     0.27153   0.17485   0.54457   0.00000  Uiso   1.00
H627   H     0.06058   0.16194   0.53515   0.00000  Uiso   1.00
H628   H     0.27275   0.17360   0.96490   0.00000  Uiso   1.00
C629   C     0.02053   0.12516   0.75575   0.00000  Uiso   1.00
C630   C     0.31285   0.20783   0.74410   0.00000  Uiso   1.00
C631   C     0.31246   0.12544   0.74250   0.00000  Uiso   1.00
C632   C     0.02082   0.20757   0.75769   0.00000  Uiso   1.00
C633   C     0.29106   0.16672   0.74114   0.00000  Uiso   1.00
C634   C     0.04228   0.16635   0.75901   0.00000  Uiso   1.00
C635   C     0.19173   0.02406   0.77935   0.00000  Uiso   1.00
C636   C     0.14158   0.30926   0.72067   0.00000  Uiso   1.00
C637   C     0.14166   0.02369   0.72062   0.00000  Uiso   1.00
C638   C     0.19173   0.30963   0.77931   0.00000  Uiso   1.00
N639   N     0.16667   0.28573   0.75000   0.00000  Uiso   1.00
N640   N     0.16667   0.04760   0.75000   0.00000  Uiso   1.00
N641   N     0.24409   0.17980   0.88493   0.00000  Uiso   1.00
O642   O     0.25510   0.15275   0.85317   0.00000  Uiso   1.00
O643   O     0.26749   0.21439   0.89478   0.00000  Uiso   1.00
N644   N     0.08952   0.15326   0.61478   0.00000  Uiso   1.00
O645   O     0.07814   0.17935   0.64717   0.00000  Uiso   1.00
O646   O     0.06651   0.11863   0.60394   0.00000  Uiso   1.00
N647   N     0.09199   0.16044   0.87898   0.00000  Uiso   1.00
O648   O     0.06788   0.19512   0.87352   0.00000  Uiso   1.00
O649   O     0.08085   0.12170   0.86228   0.00000  Uiso   1.00
N650   N     0.24124   0.17677   0.62103   0.00000  Uiso   1.00
O651   O     0.26131   0.21480   0.62172   0.00000  Uiso   1.00
O652   O     0.25708   0.14210   0.64147   0.00000  Uiso   1.00
Br653  Br    0.04379   0.06823   0.77554   0.00000  Uiso   1.00
Br654  Br    0.28981   0.26431   0.72287   0.00000  Uiso   1.00
Br655  Br    0.28851   0.06945   0.72000   0.00000  Uiso   1.00
Br656  Br    0.04452   0.26342   0.78068   0.00000  Uiso   1.00
Br657  Br    0.22766   0.05527   0.82128   0.00000  Uiso   1.00
Br658  Br    0.10550   0.27798   0.67889   0.00000  Uiso   1.00
Br659  Br    0.10615   0.05455   0.67856   0.00000  Uiso   1.00
Br660  Br    0.22755   0.27873   0.82102   0.00000  Uiso   1.00
O661   O     0.43892   0.20487   0.74999   0.00000  Uiso   1.00
O662   O     0.56108   0.12846   0.75000   0.00000  Uiso   1.00
O663   O     0.56108   0.20487   0.75000   0.00000  Uiso   1.00
O664   O     0.43892   0.12846   0.74999   0.00000  Uiso   1.00
C665   C     0.42022   0.16659   0.75474   0.00000  Uiso   1.00
C666   C     0.57980   0.16670   0.74541   0.00000  Uiso   1.00
O667   O     0.49999   0.20489   0.68392   0.00000  Uiso   1.00
O668   O     0.50001   0.12844   0.81607   0.00000  Uiso   1.00
O669   O     0.50001   0.20489   0.81607   0.00000  Uiso   1.00
O670   O     0.49999   0.12844   0.68392   0.00000  Uiso   1.00
C671   C     0.49908   0.16658   0.66366   0.00000  Uiso   1.00
C672   C     0.50100   0.16679   0.83633   0.00000  Uiso   1.00
Zn673  Zn    0.50000   0.21771   0.75000   0.00000  Uiso   1.00
Zn674  Zn    0.50000   0.11563   0.75000   0.00000  Uiso   1.00
C675   C     0.53917   0.17259   0.90798   0.00000  Uiso   1.00
C676   C     0.46097   0.16169   0.59190   0.00000  Uiso   1.00
C677   C     0.50136   0.16713   0.88401   0.00000  Uiso   1.00
C678   C     0.49880   0.16661   0.61597   0.00000  Uiso   1.00
C679   C     0.46319   0.16434   0.90512   0.00000  Uiso   1.00
C680   C     0.53676   0.17203   0.59488   0.00000  Uiso   1.00
C681   C     0.46240   0.16566   0.95161   0.00000  Uiso   1.00
C682   C     0.53748   0.17177   0.54836   0.00000  Uiso   1.00
C683   C     0.50026   0.16889   0.97655   0.00000  Uiso   1.00
C684   C     0.49964   0.16835   0.52342   0.00000  Uiso   1.00
C685   C     0.53875   0.17217   0.95475   0.00000  Uiso   1.00
C686   C     0.46124   0.16402   0.54520   0.00000  Uiso   1.00
C687   C     0.42456   0.16319   0.97362   0.00000  Uiso   1.00
C688   C     0.57535   0.17381   0.52635   0.00000  Uiso   1.00
C689   C     0.42396   0.16284   0.51979   0.00000  Uiso   1.00
C690   C     0.57600   0.17355   0.98020   0.00000  Uiso   1.00
H691   H     0.39508   0.16129   0.95539   0.00000  Uiso   1.00
H692   H     0.60487   0.17485   0.54457   0.00000  Uiso   1.00
H693   H     0.39391   0.16194   0.53515   0.00000  Uiso   1.00
H694   H     0.60608   0.17360   0.96490   0.00000  Uiso   1.00
C695   C     0.35387   0.12516   0.75575   0.00000  Uiso   1.00
C696   C     0.64618   0.20783   0.74410   0.00000  Uiso   1.00
C697   C     0.64580   0.12544   0.74250   0.00000  Uiso   1.00
C698   C     0.35415   0.20757   0.75769   0.00000  Uiso   1.00
C699   C     0.62440   0.16672   0.74114   0.00000  Uiso   1.00
C700   C     0.37561   0.16635   0.75901   0.00000  Uiso   1.00
C701   C     0.52506   0.02406   0.77935   0.00000  Uiso   1.00
C702   C     0.47491   0.30926   0.72067   0.00000  Uiso   1.00
C703   C     0.47500   0.02369   0.72062   0.00000  Uiso   1.00
C704   C     0.52507   0.30963   0.77931   0.00000  Uiso   1.00
N705   N     0.50000   0.28573   0.75000   0.00000  Uiso   1.00
N706   N     0.50000   0.04760   0.75000   0.00000  Uiso   1.00
N707   N     0.57742   0.17980   0.88493   0.00000  Uiso   1.00
O708   O     0.58843   0.15275   0.85317   0.00000  Uiso   1.00
O709   O     0.60082   0.21439   0.89478   0.00000  Uiso   1.00
N710   N     0.42285   0.15326   0.61478   0.00000  Uiso   1.00
O711   O     0.41147   0.17935   0.64717   0.00000  Uiso   1.00
O712   O     0.39984   0.11863   0.60394   0.00000  Uiso   1.00
N713   N     0.42533   0.16044   0.87898   0.00000  Uiso   1.00
O714   O     0.40121   0.19512   0.87352   0.00000  Uiso   1.00
O715   O     0.41418   0.12170   0.86228   0.00000  Uiso   1.00
N716   N     0.57457   0.17677   0.62103   0.00000  Uiso   1.00
O717   O     0.59464   0.21480   0.62172   0.00000  Uiso   1.00
O718   O     0.59042   0.14210   0.64147   0.00000  Uiso   1.00
Br719  Br    0.37713   0.06823   0.77554   0.00000  Uiso   1.00
Br720  Br    0.62314   0.26431   0.72287   0.00000  Uiso   1.00
Br721  Br    0.62184   0.06945   0.72000   0.00000  Uiso   1.00
Br722  Br    0.37785   0.26342   0.78068   0.00000  Uiso   1.00
Br723  Br    0.56099   0.05527   0.82128   0.00000  Uiso   1.00
Br724  Br    0.43884   0.27798   0.67889   0.00000  Uiso   1.00
Br725  Br    0.43948   0.05455   0.67856   0.00000  Uiso   1.00
Br726  Br    0.56089   0.27873   0.82102   0.00000  Uiso   1.00
O727   O     0.77226   0.20487   0.74999   0.00000  Uiso   1.00
O728   O     0.89441   0.12846   0.75000   0.00000  Uiso   1.00
O729   O     0.89441   0.20487   0.75000   0.00000  Uiso   1.00
O730   O     0.77226   0.12846   0.74999   0.00000  Uiso   1.00
C731   C     0.75355   0.16659   0.75474   0.00000  Uiso   1.00
C732   C     0.91313   0.16670   0.74541   0.00000  Uiso   1.00
O733   O     0.83333   0.20489   0.68392   0.00000  Uiso   1.00
O734   O     0.83334   0.12844   0.81607   0.00000  Uiso   1.00
O735   O     0.83334   0.20489   0.81607   0.00000  Uiso   1.00
O736   O     0.83333   0.12844   0.68392   0.00000  Uiso   1.00
C737   C     0.83242   0.16658   0.66366   0.00000  Uiso   1.00
C738   C     0.83433   0.16679   0.83633   0.00000  Uiso   1.00
Zn739  Zn    0.83333   0.21771   0.75000   0.00000  Uiso   1.00
Zn740  Zn    0.83333   0.11563   0.75000   0.00000  Uiso   1.00
C741   C     0.87251   0.17259   0.90798   0.00000  Uiso   1.00
C742   C     0.79430   0.16169   0.59190   0.00000  Uiso   1.00
C743   C     0.83469   0.16713   0.88401   0.00000  Uiso   1.00
C744   C     0.83213   0.16661   0.61597   0.00000  Uiso   1.00
C745   C     0.79653   0.16434   0.90512   0.00000  Uiso   1.00
C746   C     0.87009   0.17203   0.59488   0.00000  Uiso   1.00
C747   C     0.79574   0.16566   0.95161   0.00000  Uiso   1.00
C748   C     0.87081   0.17177   0.54836   0.00000  Uiso   1.00
C749   C     0.83359   0.16889   0.97655   0.00000  Uiso   1.00
C750   C     0.83298   0.16835   0.52342   0.00000  Uiso   1.00
C751   C     0.87208   0.17217   0.95475   0.00000  Uiso   1.00
C752   C     0.79457   0.16402   0.54520   0.00000  Uiso   1.00
C753   C     0.75789   0.16319   0.97362   0.00000  Uiso   1.00
C754   C     0.90868   0.17381   0.52635   0.00000  Uiso   1.00
C755   C     0.75729   0.16284   0.51979   0.00000  Uiso   1.00
C756   C     0.90933   0.17355   0.98020   0.00000  Uiso   1.00
H757   H     0.72841   0.16129   0.95539   0.00000  Uiso   1.00
H758   H     0.93820   0.17485   0.54457   0.00000  Uiso   1.00
H759   H     0.72725   0.16194   0.53515   0.00000  Uiso   1.00
H760   H     0.93941   0.17360   0.96490   0.00000  Uiso   1.00
C761   C     0.68720   0.12516   0.75575   0.00000  Uiso   1.00
C762   C     0.97951   0.20783   0.74410   0.00000  Uiso   1.00
C763   C     0.97913   0.12544   0.74250   0.00000  Uiso   1.00
C764   C     0.68748   0.20757   0.75769   0.00000  Uiso   1.00
C765   C     0.95773   0.16672   0.74114   0.00000  Uiso   1.00
C766   C     0.70894   0.16635   0.75901   0.00000  Uiso   1.00
C767   C     0.85839   0.02406   0.77935   0.00000  Uiso   1.00
C768   C     0.80824   0.30926   0.72067   0.00000  Uiso   1.00
C769   C     0.80833   0.02369   0.72062   0.00000  Uiso   1.00
C770   C     0.85840   0.30963   0.77931   0.00000  Uiso   1.00
N771   N     0.83333   0.28573   0.75000   0.00000  Uiso   1.00
N772   N     0.83333   0.04760   0.75000   0.00000  Uiso   1.00
N773   N     0.91075   0.17980   0.88493   0.00000  Uiso   1.00
O774   O     0.92177   0.15275   0.85317   0.00000  Uiso   1.00
O775   O     0.93415   0.21439   0.89478   0.00000  Uiso   1.00
N776   N     0.75619   0.15326   0.61478   0.00000  Uiso   1.00
O777   O     0.74481   0.17935   0.64717   0.00000  Uiso   1.00
O778   O     0.73318   0.11863   0.60394   0.00000  Uiso   1.00
N779   N     0.75866   0.16044   0.87898   0.00000  Uiso   1.00
O780   O     0.73454   0.19512   0.87352   0.00000  Uiso   1.00
O781   O     0.74751   0.12170   0.86228   0.00000  Uiso   1.00
N782   N     0.90791   0.17677   0.62103   0.00000  Uiso   1.00
O783   O     0.92797   0.21480   0.62172   0.00000  Uiso   1.00
O784   O     0.92375   0.14210   0.64147   0.00000  Uiso   1.00
Br785  Br    0.71046   0.06823   0.77554   0.00000  Uiso   1.00
Br786  Br    0.95648   0.26431   0.72287   0.00000  Uiso   1.00
Br787  Br    0.95518   0.06945   0.72000   0.00000  Uiso   1.00
Br788  Br    0.71119   0.26342   0.78068   0.00000  Uiso   1.00
Br789  Br    0.89433   0.05527   0.82128   0.00000  Uiso   1.00
Br790  Br    0.77217   0.27798   0.67889   0.00000  Uiso   1.00
Br791  Br    0.77282   0.05455   0.67856   0.00000  Uiso   1.00
Br792  Br    0.89422   0.27873   0.82102   0.00000  Uiso   1.00
O793   O     0.10559   0.53821   0.74999   0.00000  Uiso   1.00
O794   O     0.22774   0.46179   0.75000   0.00000  Uiso   1.00
O795   O     0.22774   0.53821   0.75000   0.00000  Uiso   1.00
O796   O     0.10559   0.46179   0.74999   0.00000  Uiso   1.00
C797   C     0.08689   0.49992   0.75474   0.00000  Uiso   1.00
C798   C     0.24646   0.50004   0.74541   0.00000  Uiso   1.00
O799   O     0.16666   0.53823   0.68392   0.00000  Uiso   1.00
O800   O     0.16667   0.46177   0.81607   0.00000  Uiso   1.00
O801   O     0.16667   0.53823   0.81607   0.00000  Uiso   1.00
O802   O     0.16666   0.46177   0.68392   0.00000  Uiso   1.00
C803   C     0.16575   0.49992   0.66366   0.00000  Uiso   1.00
C804   C     0.16766   0.50013   0.83633   0.00000  Uiso   1.00
Zn805  Zn    0.16667   0.55104   0.75000   0.00000  Uiso   1.00
Zn806  Zn    0.16667   0.44896   0.75000   0.00000  Uiso   1.00
C807   C     0.20584   0.50593   0.90798   0.00000  Uiso   1.00
C808   C     0.12764   0.49502   0.59190   0.00000  Uiso   1.00
C809   C     0.16803   0.50046   0.88401   0.00000  Uiso   1.00
C810   C     0.16546   0.49995   0.61597   0.00000  Uiso   1.00
C811   C     0.12986   0.49767   0.90512   0.00000  Uiso   1.00
C812   C     0.20343   0.50537   0.59488   0.00000  Uiso   1.00
C813   C     0.12907   0.49899   0.95161   0.00000  Uiso   1.00
C814   C     0.20414   0.50510   0.54836   0.00000  Uiso   1.00
C815   C     0.16693   0.50223   0.97655   0.00000  Uiso   1.00
C816   C     0.16631   0.50169   0.52342   0.00000  Uiso   1.00
C817   C     0.20542   0.50551   0.95475   0.00000  Uiso   1.00
C818   C     0.12791   0.49736   0.54520   0.00000  Uiso   1.00
C819   C     0.09123   0.49653   0.97362   0.00000  Uiso   1.00
C820   C     0.24201   0.50714   0.52635   0.00000  Uiso   1.00
C821   C     0.09062   0.49617   0.51979   0.00000  Uiso   1.00
C822   C     0.24266   0.50688   0.98020   0.00000  Uiso   1.00
H823   H     0.06174   0.49462   0.95539   0.00000  Uiso   1.00
H824   H     0.27153   0.50819   0.54457   0.00000  Uiso   1.00
H825   H     0.06058   0.49528   0.53515   0.00000  Uiso   1.00
H826   H     0.27275   0.50694   0.96490   0.00000  Uiso   1.00
C827   C     0.02053   0.45849   0.75575   0.00000  Uiso   1.00
C828   C     0.31285   0.54116   0.74410   0.00000  Uiso   1.00
C829   C     0.31246   0.45878   0.74250   0.00000  Uiso   1.00
C830   C     0.02082   0.54091   0.75769   0.00000  Uiso   1.00
C831   C     0.29106   0.50005   0.74114   0.00000  Uiso   1.00
C832   C     0.04228   0.49969   0.75901   0.00000  Uiso   1.00
C833   C     0.19173   0.35739   0.77935   0.00000  Uiso   1.00
C834   C     0.14158   0.64259   0.72067   0.00000  Uiso   1.00
C835   C     0.14166   0.35703   0.72062   0.00000  Uiso   1.00
C836   C     0.19173   0.64296   0.77931   0.00000  Uiso   1.00
N837   N     0.16667   0.61907   0.75000   0.00000  Uiso   1.00
N838   N     0.16667   0.38093   0.75000   0.00000  Uiso   1.00
N839   N     0.24409   0.51313   0.88493   0.00000  Uiso   1.00
O840   O     0.25510   0.48608   0.85317   0.00000  Uiso   1.00
O841   O     0.26749   0.54773   0.89478   0.00000  Uiso   1.00
N842   N     0.08952   0.48659   0.61478   0.00000  Uiso   1.00
O843   O     0.07814   0.51268   0.64717   0.00000  Uiso   1.00
O844   O     0.06651   0.45197   0.60394   0.00000  Uiso   1.00
N845   N     0.09199   0.49378   0.87898   0.00000  Uiso   1.00
O846   O     0.06788   0.52846   0.87352   0.00000  Uiso   1.00
O847   O     0.08085   0.45503   0.86228   0.00000  Uiso   1.00
N848   N     0.24124   0.51010   0.62103   0.00000  Uiso   1.00
O849   O     0.26131   0.54814   0.62172   0.00000  Uiso   1.00
O850   O     0.25708   0.47543   0.64147   0.00000  Uiso   1.00
Br851  Br    0.04379   0.40156   0.77554   0.00000  Uiso   1.00
Br852  Br    0.28981   0.59764   0.72287   0.00000  Uiso   1.00
Br853  Br    0.28851   0.40278   0.72000   0.00000  Uiso   1.00
Br854  Br    0.04452   0.59676   0.78068   0.00000  Uiso   1.00
Br855  Br    0.22766   0.38860   0.82128   0.00000  Uiso   1.00
Br856  Br    0.10550   0.61132   0.67889   0.00000  Uiso   1.00
Br857  Br    0.10615   0.38788   0.67856   0.00000  Uiso   1.00
Br858  Br    0.22755   0.61206   0.82102   0.00000  Uiso   1.00
O859   O     0.43892   0.53821   0.74999   0.00000  Uiso   1.00
O860   O     0.56108   0.46179   0.75000   0.00000  Uiso   1.00
O861   O     0.56108   0.53821   0.75000   0.00000  Uiso   1.00
O862   O     0.43892   0.46179   0.74999   0.00000  Uiso   1.00
C863   C     0.42022   0.49992   0.75474   0.00000  Uiso   1.00
C864   C     0.57980   0.50004   0.74541   0.00000  Uiso   1.00
O865   O     0.49999   0.53823   0.68392   0.00000  Uiso   1.00
O866   O     0.50001   0.46177   0.81607   0.00000  Uiso   1.00
O867   O     0.50001   0.53823   0.81607   0.00000  Uiso   1.00
O868   O     0.49999   0.46177   0.68392   0.00000  Uiso   1.00
C869   C     0.49908   0.49992   0.66366   0.00000  Uiso   1.00
C870   C     0.50100   0.50013   0.83633   0.00000  Uiso   1.00
Zn871  Zn    0.50000   0.55104   0.75000   0.00000  Uiso   1.00
Zn872  Zn    0.50000   0.44896   0.75000   0.00000  Uiso   1.00
C873   C     0.53917   0.50593   0.90798   0.00000  Uiso   1.00
C874   C     0.46097   0.49502   0.59190   0.00000  Uiso   1.00
C875   C     0.50136   0.50046   0.88401   0.00000  Uiso   1.00
C876   C     0.49880   0.49995   0.61597   0.00000  Uiso   1.00
C877   C     0.46319   0.49767   0.90512   0.00000  Uiso   1.00
C878   C     0.53676   0.50537   0.59488   0.00000  Uiso   1.00
C879   C     0.46240   0.49899   0.95161   0.00000  Uiso   1.00
C880   C     0.53748   0.50510   0.54836   0.00000  Uiso   1.00
C881   C     0.50026   0.50223   0.97655   0.00000  Uiso   1.00
C882   C     0.49964   0.50169   0.52342   0.00000  Uiso   1.00
C883   C     0.53875   0.50551   0.95475   0.00000  Uiso   1.00
C884   C     0.46124   0.49736   0.54520   0.00000  Uiso   1.00
C885   C     0.42456   0.49653   0.97362   0.00000  Uiso   1.00
C886   C     0.57535   0.50714   0.52635   0.00000  Uiso   1.00
C887   C     0.42396   0.49617   0.51979   0.00000  Uiso   1.00
C888   C     0.57600   0.50688   0.98020   0.00000  Uiso   1.00
H889   H     0.39508   0.49462   0.95539   0.00000  Uiso   1.00
H890   H     0.60487   0.50819   0.54457   0.00000  Uiso   1.00
H891   H     0.39391   0.49528   0.53515   0.00000  Uiso   1.00
H892   H     0.60608   0.50694   0.96490   0.00000  Uiso   1.00
C893   C     0.35387   0.45849   0.75575   0.00000  Uiso   1.00
C894   C     0.64618   0.54116   0.74410   0.00000  Uiso   1.00
C895   C     0.64580   0.45878   0.74250   0.00000  Uiso   1.00
C896   C     0.35415   0.54091   0.75769   0.00000  Uiso   1.00
C897   C     0.62440   0.50005   0.74114   0.00000  Uiso   1.00
C898   C     0.37561   0.49969   0.75901   0.00000  Uiso   1.00
C899   C     0.52506   0.35739   0.77935   0.00000  Uiso   1.00
C900   C     0.47491   0.64259   0.72067   0.00000  Uiso   1.00
C901   C     0.47500   0.35703   0.72062   0.00000  Uiso   1.00
C902   C     0.52507   0.64296   0.77931   0.00000  Uiso   1.00
N903   N     0.50000   0.61907   0.75000   0.00000  Uiso   1.00
N904   N     0.50000   0.38093   0.75000   0.00000  Uiso   1.00
N905   N     0.57742   0.51313   0.88493   0.00000  Uiso   1.00
O906   O     0.58843   0.48608   0.85317   0.00000  Uiso   1.00
O907   O     0.60082   0.54773   0.89478   0.00000  Uiso   1.00
N908   N     0.42285   0.48659   0.61478   0.00000  Uiso   1.00
O909   O     0.41147   0.51268   0.64717   0.00000  Uiso   1.00
O910   O     0.39984   0.45197   0.60394   0.00000  Uiso   1.00
N911   N     0.42533   0.49378   0.87898   0.00000  Uiso   1.00
O912   O     0.40121   0.52846   0.87352   0.00000  Uiso   1.00
O913   O     0.41418   0.45503   0.86228   0.00000  Uiso   1.00
N914   N     0.57457   0.51010   0.62103   0.00000  Uiso   1.00
O915   O     0.59464   0.54814   0.62172   0.00000  Uiso   1.00
O916   O     0.59042   0.47543   0.64147   0.00000  Uiso   1.00
Br917  Br    0.37713   0.40156   0.77554   0.00000  Uiso   1.00
Br918  Br    0.62314   0.59764   0.72287   0.00000  Uiso   1.00
Br919  Br    0.62184   0.40278   0.72000   0.00000  Uiso   1.00
Br920  Br    0.37785   0.59676   0.78068   0.00000  Uiso   1.00
Br921  Br    0.56099   0.38860   0.82128   0.00000  Uiso   1.00
Br922  Br    0.43884   0.61132   0.67889   0.00000  Uiso   1.00
Br923  Br    0.43948   0.38788   0.67856   0.00000  Uiso   1.00
Br924  Br    0.56089   0.61206   0.82102   0.00000  Uiso   1.00
O925   O     0.77226   0.53821   0.74999   0.00000  Uiso   1.00
O926   O     0.89441   0.46179   0.75000   0.00000  Uiso   1.00
O927   O     0.89441   0.53821   0.75000   0.00000  Uiso   1.00
O928   O     0.77226   0.46179   0.74999   0.00000  Uiso   1.00
C929   C     0.75355   0.49992   0.75474   0.00000  Uiso   1.00
C930   C     0.91313   0.50004   0.74541   0.00000  Uiso   1.00
O931   O     0.83333   0.53823   0.68392   0.00000  Uiso   1.00
O932   O     0.83334   0.46177   0.81607   0.00000  Uiso   1.00
O933   O     0.83334   0.53823   0.81607   0.00000  Uiso   1.00
O934   O     0.83333   0.46177   0.68392   0.00000  Uiso   1.00
C935   C     0.83242   0.49992   0.66366   0.00000  Uiso   1.00
C936   C     0.83433   0.50013   0.83633   0.00000  Uiso   1.00
Zn937  Zn    0.83333   0.55104   0.75000   0.00000  Uiso   1.00
Zn938  Zn    0.83333   0.44896   0.75000   0.00000  Uiso   1.00
C939   C     0.87251   0.50593   0.90798   0.00000  Uiso   1.00
C940   C     0.79430   0.49502   0.59190   0.00000  Uiso   1.00
C941   C     0.83469   0.50046   0.88401   0.00000  Uiso   1.00
C942   C     0.83213   0.49995   0.61597   0.00000  Uiso   1.00
C943   C     0.79653   0.49767   0.90512   0.00000  Uiso   1.00
C944   C     0.87009   0.50537   0.59488   0.00000  Uiso   1.00
C945   C     0.79574   0.49899   0.95161   0.00000  Uiso   1.00
C946   C     0.87081   0.50510   0.54836   0.00000  Uiso   1.00
C947   C     0.83359   0.50223   0.97655   0.00000  Uiso   1.00
C948   C     0.83298   0.50169   0.52342   0.00000  Uiso   1.00
C949   C     0.87208   0.50551   0.95475   0.00000  Uiso   1.00
C950   C     0.79457   0.49736   0.54520   0.00000  Uiso   1.00
C951   C     0.75789   0.49653   0.97362   0.00000  Uiso   1.00
C952   C     0.90868   0.50714   0.52635   0.00000  Uiso   1.00
C953   C     0.75729   0.49617   0.51979   0.00000  Uiso   1.00
C954   C     0.90933   0.50688   0.98020   0.00000  Uiso   1.00
H955   H     0.72841   0.49462   0.95539   0.00000  Uiso   1.00
H956   H     0.93820   0.50819   0.54457   0.00000  Uiso   1.00
H957   H     0.72725   0.49528   0.53515   0.00000  Uiso   1.00
H958   H     0.93941   0.50694   0.96490   0.00000  Uiso   1.00
C959   C     0.68720   0.45849   0.75575   0.00000  Uiso   1.00
C960   C     0.97951   0.54116   0.74410   0.00000  Uiso   1.00
C961   C     0.97913   0.45878   0.74250   0.00000  Uiso   1.00
C962   C     0.68748   0.54091   0.75769   0.00000  Uiso   1.00
C963   C     0.95773   0.50005   0.74114   0.00000  Uiso   1.00
C964   C     0.70894   0.49969   0.75901   0.00000  Uiso   1.00
C965   C     0.85839   0.35739   0.77935   0.00000  Uiso   1.00
C966   C     0.80824   0.64259   0.72067   0.00000  Uiso   1.00
C967   C     0.80833   0.35703   0.72062   0.00000  Uiso   1.00
C968   C     0.85840   0.64296   0.77931   0.00000  Uiso   1.00
N969   N     0.83333   0.61907   0.75000   0.00000  Uiso   1.00
N970   N     0.83333   0.38093   0.75000   0.00000  Uiso   1.00
N971   N     0.91075   0.51313   0.88493   0.00000  Uiso   1.00
O972   O     0.92177   0.48608   0.85317   0.00000  Uiso   1.00
O973   O     0.93415   0.54773   0.89478   0.00000  Uiso   1.00
N974   N     0.75619   0.48659   0.61478   0.00000  Uiso   1.00
O975   O     0.74481   0.51268   0.64717   0.00000  Uiso   1.00
O976   O     0.73318   0.45197   0.60394   0.00000  Uiso   1.00
N977   N     0.75866   0.49378   0.87898   0.00000  Uiso   1.00
O978   O     0.73454   0.52846   0.87352   0.00000  Uiso   1.00
O979   O     0.74751   0.45503   0.86228   0.00000  Uiso   1.00
N980   N     0.90791   0.51010   0.62103   0.00000  Uiso   1.00
O981   O     0.92797   0.54814   0.62172   0.00000  Uiso   1.00
O982   O     0.92375   0.47543   0.64147   0.00000  Uiso   1.00
Br983  Br    0.71046   0.40156   0.77554   0.00000  Uiso   1.00
Br984  Br    0.95648   0.59764   0.72287   0.00000  Uiso   1.00
Br985  Br    0.95518   0.40278   0.72000   0.00000  Uiso   1.00
Br986  Br    0.71119   0.59676   0.78068   0.00000  Uiso   1.00
Br987  Br    0.89433   0.38860   0.82128   0.00000  Uiso   1.00
Br988  Br    0.77217   0.61132   0.67889   0.00000  Uiso   1.00
Br989  Br    0.77282   0.38788   0.67856   0.00000  Uiso   1.00
Br990  Br    0.89422   0.61206   0.82102   0.00000  Uiso   1.00
O991   O     0.10559   0.87154   0.74999   0.00000  Uiso   1.00
O992   O     0.22774   0.79513   0.75000   0.00000  Uiso   1.00
O993   O     0.22774   0.87154   0.75000   0.00000  Uiso   1.00
O994   O     0.10559   0.79513   0.74999   0.00000  Uiso   1.00
C995   C     0.08689   0.83325   0.75474   0.00000  Uiso   1.00
C996   C     0.24646   0.83337   0.74541   0.00000  Uiso   1.00
O997   O     0.16666   0.87156   0.68392   0.00000  Uiso   1.00
O998   O     0.16667   0.79511   0.81607   0.00000  Uiso   1.00
O999   O     0.16667   0.87156   0.81607   0.00000  Uiso   1.00
O1000  O     0.16666   0.79511   0.68392   0.00000  Uiso   1.00
C1001  C     0.16575   0.83325   0.66366   0.00000  Uiso   1.00
C1002  C     0.16766   0.83346   0.83633   0.00000  Uiso   1.00
Zn1003 Zn    0.16667   0.88437   0.75000   0.00000  Uiso   1.00
Zn1004 Zn    0.16667   0.78229   0.75000   0.00000  Uiso   1.00
C1005  C     0.20584   0.83926   0.90798   0.00000  Uiso   1.00
C1006  C     0.12764   0.82835   0.59190   0.00000  Uiso   1.00
C1007  C     0.16803   0.83380   0.88401   0.00000  Uiso   1.00
C1008  C     0.16546   0.83328   0.61597   0.00000  Uiso   1.00
C1009  C     0.12986   0.83101   0.90512   0.00000  Uiso   1.00
C1010  C     0.20343   0.83870   0.59488   0.00000  Uiso   1.00
C1011  C     0.12907   0.83232   0.95161   0.00000  Uiso   1.00
C1012  C     0.20414   0.83844   0.54836   0.00000  Uiso   1.00
C1013  C     0.16693   0.83556   0.97655   0.00000  Uiso   1.00
C1014  C     0.16631   0.83502   0.52342   0.00000  Uiso   1.00
C1015  C     0.20542   0.83884   0.95475   0.00000  Uiso   1.00
C1016  C     0.12791   0.83069   0.54520   0.00000  Uiso   1.00
C1017  C     0.09123   0.82986   0.97362   0.00000  Uiso   1.00
C1018  C     0.24201   0.84048   0.52635   0.00000  Uiso   1.00
C1019  C     0.09062   0.82951   0.51979   0.00000  Uiso   1.00
C1020  C     0.24266   0.84021   0.98020   0.00000  Uiso   1.00
H1021  H     0.06174   0.82796   0.95539   0.00000  Uiso   1.00
H1022  H     0.27153   0.84152   0.54457   0.00000  Uiso   1.00
H1023  H     0.06058   0.82861   0.53515   0.00000  Uiso   1.00
H1024  H     0.27275   0.84027   0.96490   0.00000  Uiso   1.00
C1025  C     0.02053   0.79183   0.75575   0.00000  Uiso   1.00
C1026  C     0.31285   0.87450   0.74410   0.00000  Uiso   1.00
C1027  C     0.31246   0.79211   0.74250   0.00000  Uiso   1.00
C1028  C     0.02082   0.87424   0.75769   0.00000  Uiso   1.00
C1029  C     0.29106   0.83339   0.74114   0.00000  Uiso   1.00
C1030  C     0.04228   0.83302   0.75901   0.00000  Uiso   1.00
C1031  C     0.19173   0.69073   0.77935   0.00000  Uiso   1.00
C1032  C     0.14158   0.97592   0.72067   0.00000  Uiso   1.00
C1033  C     0.14166   0.69036   0.72062   0.00000  Uiso   1.00
C1034  C     0.19173   0.97630   0.77931   0.00000  Uiso   1.00
N1035  N     0.16667   0.95240   0.75000   0.00000  Uiso   1.00
N1036  N     0.16667   0.71427   0.75000   0.00000  Uiso   1.00
N1037  N     0.24409   0.84647   0.88493   0.00000  Uiso   1.00
O1038  O     0.25510   0.81941   0.85317   0.00000  Uiso   1.00
O1039  O     0.26749   0.88106   0.89478   0.00000  Uiso   1.00
N1040  N     0.08952   0.81992   0.61478   0.00000  Uiso   1.00
O1041  O     0.07814   0.84602   0.64717   0.00000  Uiso   1.00
O1042  O     0.06651   0.78530   0.60394   0.00000  Uiso   1.00
N1043  N     0.09199   0.82711   0.87898   0.00000  Uiso   1.00
O1044  O     0.06788   0.86179   0.87352   0.00000  Uiso   1.00
O1045  O     0.08085   0.78837   0.86228   0.00000  Uiso   1.00
N1046  N     0.24124   0.84343   0.62103   0.00000  Uiso   1.00
O1047  O     0.26131   0.88147   0.62172   0.00000  Uiso   1.00
O1048  O     0.25708   0.80876   0.64147   0.00000  Uiso   1.00
Br1049 Br    0.04379   0.73489   0.77554   0.00000  Uiso   1.00
Br1050 Br    0.28981   0.93097   0.72287   0.00000  Uiso   1.00
Br1051 Br    0.28851   0.73611   0.72000   0.00000  Uiso   1.00
Br1052 Br    0.04452   0.93009   0.78068   0.00000  Uiso   1.00
Br1053 Br    0.22766   0.72193   0.82128   0.00000  Uiso   1.00
Br1054 Br    0.10550   0.94465   0.67889   0.00000  Uiso   1.00
Br1055 Br    0.10615   0.72122   0.67856   0.00000  Uiso   1.00
Br1056 Br    0.22755   0.94540   0.82102   0.00000  Uiso   1.00
O1057  O     0.43892   0.87154   0.74999   0.00000  Uiso   1.00
O1058  O     0.56108   0.79513   0.75000   0.00000  Uiso   1.00
O1059  O     0.56108   0.87154   0.75000   0.00000  Uiso   1.00
O1060  O     0.43892   0.79513   0.74999   0.00000  Uiso   1.00
C1061  C     0.42022   0.83325   0.75474   0.00000  Uiso   1.00
C1062  C     0.57980   0.83337   0.74541   0.00000  Uiso   1.00
O1063  O     0.49999   0.87156   0.68392   0.00000  Uiso   1.00
O1064  O     0.50001   0.79511   0.81607   0.00000  Uiso   1.00
O1065  O     0.50001   0.87156   0.81607   0.00000  Uiso   1.00
O1066  O     0.49999   0.79511   0.68392   0.00000  Uiso   1.00
C1067  C     0.49908   0.83325   0.66366   0.00000  Uiso   1.00
C1068  C     0.50100   0.83346   0.83633   0.00000  Uiso   1.00
Zn1069 Zn    0.50000   0.88437   0.75000   0.00000  Uiso   1.00
Zn1070 Zn    0.50000   0.78229   0.75000   0.00000  Uiso   1.00
C1071  C     0.53917   0.83926   0.90798   0.00000  Uiso   1.00
C1072  C     0.46097   0.82835   0.59190   0.00000  Uiso   1.00
C1073  C     0.50136   0.83380   0.88401   0.00000  Uiso   1.00
C1074  C     0.49880   0.83328   0.61597   0.00000  Uiso   1.00
C1075  C     0.46319   0.83101   0.90512   0.00000  Uiso   1.00
C1076  C     0.53676   0.83870   0.59488   0.00000  Uiso   1.00
C1077  C     0.46240   0.83232   0.95161   0.00000  Uiso   1.00
C1078  C     0.53748   0.83844   0.54836   0.00000  Uiso   1.00
C1079  C     0.50026   0.83556   0.97655   0.00000  Uiso   1.00
C1080  C     0.49964   0.83502   0.52342   0.00000  Uiso   1.00
C1081  C     0.53875   0.83884   0.95475   0.00000  Uiso   1.00
C1082  C     0.46124   0.83069   0.54520   0.00000  Uiso   1.00
C1083  C     0.42456   0.82986   0.97362   0.00000  Uiso   1.00
C1084  C     0.57535   0.84048   0.52635   0.00000  Uiso   1.00
C1085  C     0.42396   0.82951   0.51979   0.00000  Uiso   1.00
C1086  C     0.57600   0.84021   0.98020   0.00000  Uiso   1.00
H1087  H     0.39508   0.82796   0.95539   0.00000  Uiso   1.00
H1088  H     0.60487   0.84152   0.54457   0.00000  Uiso   1.00
H1089  H     0.39391   0.82861   0.53515   0.00000  Uiso   1.00
H1090  H     0.60608   0.84027   0.96490   0.00000  Uiso   1.00
C1091  C     0.35387   0.79183   0.75575   0.00000  Uiso   1.00
C1092  C     0.64618   0.87450   0.74410   0.00000  Uiso   1.00
C1093  C     0.64580   0.79211   0.74250   0.00000  Uiso   1.00
C1094  C     0.35415   0.87424   0.75769   0.00000  Uiso   1.00
C1095  C     0.62440   0.83339   0.74114   0.00000  Uiso   1.00
C1096  C     0.37561   0.83302   0.75901   0.00000  Uiso   1.00
C1097  C     0.52506   0.69073   0.77935   0.00000  Uiso   1.00
C1098  C     0.47491   0.97592   0.72067   0.00000  Uiso   1.00
C1099  C     0.47500   0.69036   0.72062   0.00000  Uiso   1.00
C1100  C     0.52507   0.97630   0.77931   0.00000  Uiso   1.00
N1101  N     0.50000   0.95240   0.75000   0.00000  Uiso   1.00
N1102  N     0.50000   0.71427   0.75000   0.00000  Uiso   1.00
N1103  N     0.57742   0.84647   0.88493   0.00000  Uiso   1.00
O1104  O     0.58843   0.81941   0.85317   0.00000  Uiso   1.00
O1105  O     0.60082   0.88106   0.89478   0.00000  Uiso   1.00
N1106  N     0.42285   0.81992   0.61478   0.00000  Uiso   1.00
O1107  O     0.41147   0.84602   0.64717   0.00000  Uiso   1.00
O1108  O     0.39984   0.78530   0.60394   0.00000  Uiso   1.00
N1109  N     0.42533   0.82711   0.87898   0.00000  Uiso   1.00
O1110  O     0.40121   0.86179   0.87352   0.00000  Uiso   1.00
O1111  O     0.41418   0.78837   0.86228   0.00000  Uiso   1.00
N1112  N     0.57457   0.84343   0.62103   0.00000  Uiso   1.00
O1113  O     0.59464   0.88147   0.62172   0.00000  Uiso   1.00
O1114  O     0.59042   0.80876   0.64147   0.00000  Uiso   1.00
Br1115 Br    0.37713   0.73489   0.77554   0.00000  Uiso   1.00
Br1116 Br    0.62314   0.93097   0.72287   0.00000  Uiso   1.00
Br1117 Br    0.62184   0.73611   0.72000   0.00000  Uiso   1.00
Br1118 Br    0.37785   0.93009   0.78068   0.00000  Uiso   1.00
Br1119 Br    0.56099   0.72193   0.82128   0.00000  Uiso   1.00
Br1120 Br    0.43884   0.94465   0.67889   0.00000  Uiso   1.00
Br1121 Br    0.43948   0.72122   0.67856   0.00000  Uiso   1.00
Br1122 Br    0.56089   0.94540   0.82102   0.00000  Uiso   1.00
O1123  O     0.77226   0.87154   0.74999   0.00000  Uiso   1.00
O1124  O     0.89441   0.79513   0.75000   0.00000  Uiso   1.00
O1125  O     0.89441   0.87154   0.75000   0.00000  Uiso   1.00
O1126  O     0.77226   0.79513   0.74999   0.00000  Uiso   1.00
C1127  C     0.75355   0.83325   0.75474   0.00000  Uiso   1.00
C1128  C     0.91313   0.83337   0.74541   0.00000  Uiso   1.00
O1129  O     0.83333   0.87156   0.68392   0.00000  Uiso   1.00
O1130  O     0.83334   0.79511   0.81607   0.00000  Uiso   1.00
O1131  O     0.83334   0.87156   0.81607   0.00000  Uiso   1.00
O1132  O     0.83333   0.79511   0.68392   0.00000  Uiso   1.00
C1133  C     0.83242   0.83325   0.66366   0.00000  Uiso   1.00
C1134  C     0.83433   0.83346   0.83633   0.00000  Uiso   1.00
Zn1135 Zn    0.83333   0.88437   0.75000   0.00000  Uiso   1.00
Zn1136 Zn    0.83333   0.78229   0.75000   0.00000  Uiso   1.00
C1137  C     0.87251   0.83926   0.90798   0.00000  Uiso   1.00
C1138  C     0.79430   0.82835   0.59190   0.00000  Uiso   1.00
C1139  C     0.83469   0.83380   0.88401   0.00000  Uiso   1.00
C1140  C     0.83213   0.83328   0.61597   0.00000  Uiso   1.00
C1141  C     0.79653   0.83101   0.90512   0.00000  Uiso   1.00
C1142  C     0.87009   0.83870   0.59488   0.00000  Uiso   1.00
C1143  C     0.79574   0.83232   0.95161   0.00000  Uiso   1.00
C1144  C     0.87081   0.83844   0.54836   0.00000  Uiso   1.00
C1145  C     0.83359   0.83556   0.97655   0.00000  Uiso   1.00
C1146  C     0.83298   0.83502   0.52342   0.00000  Uiso   1.00
C1147  C     0.87208   0.83884   0.95475   0.00000  Uiso   1.00
C1148  C     0.79457   0.83069   0.54520   0.00000  Uiso   1.00
C1149  C     0.75789   0.82986   0.97362   0.00000  Uiso   1.00
C1150  C     0.90868   0.84048   0.52635   0.00000  Uiso   1.00
C1151  C     0.75729   0.82951   0.51979   0.00000  Uiso   1.00
C1152  C     0.90933   0.84021   0.98020   0.00000  Uiso   1.00
H1153  H     0.72841   0.82796   0.95539   0.00000  Uiso   1.00
H1154  H     0.93820   0.84152   0.54457   0.00000  Uiso   1.00
H1155  H     0.72725   0.82861   0.53515   0.00000  Uiso   1.00
H1156  H     0.93941   0.84027   0.96490   0.00000  Uiso   1.00
C1157  C     0.68720   0.79183   0.75575   0.00000  Uiso   1.00
C1158  C     0.97951   0.87450   0.74410   0.00000  Uiso   1.00
C1159  C     0.97913   0.79211   0.74250   0.00000  Uiso   1.00
C1160  C     0.68748   0.87424   0.75769   0.00000  Uiso   1.00
C1161  C     0.95773   0.83339   0.74114   0.00000  Uiso   1.00
C1162  C     0.70894   0.83302   0.75901   0.00000  Uiso   1.00
C1163  C     0.85839   0.69073   0.77935   0.00000  Uiso   1.00
C1164  C     0.80824   0.97592   0.72067   0.00000  Uiso   1.00
C1165  C     0.80833   0.69036   0.72062   0.00000  Uiso   1.00
C1166  C     0.85840   0.97630   0.77931   0.00000  Uiso   1.00
N1167  N     0.83333   0.95240   0.75000   0.00000  Uiso   1.00
N1168  N     0.83333   0.71427   0.75000   0.00000  Uiso   1.00
N1169  N     0.91075   0.84647   0.88493   0.00000  Uiso   1.00
O1170  O     0.92177   0.81941   0.85317   0.00000  Uiso   1.00
O1171  O     0.93415   0.88106   0.89478   0.00000  Uiso   1.00
N1172  N     0.75619   0.81992   0.61478   0.00000  Uiso   1.00
O1173  O     0.74481   0.84602   0.64717   0.00000  Uiso   1.00
O1174  O     0.73318   0.78530   0.60394   0.00000  Uiso   1.00
N1175  N     0.75866   0.82711   0.87898   0.00000  Uiso   1.00
O1176  O     0.73454   0.86179   0.87352   0.00000  Uiso   1.00
O1177  O     0.74751   0.78837   0.86228   0.00000  Uiso   1.00
N1178  N     0.90791   0.84343   0.62103   0.00000  Uiso   1.00
O1179  O     0.92797   0.88147   0.62172   0.00000  Uiso   1.00
O1180  O     0.92375   0.80876   0.64147   0.00000  Uiso   1.00
Br1181 Br    0.71046   0.73489   0.77554   0.00000  Uiso   1.00
Br1182 Br    0.95648   0.93097   0.72287   0.00000  Uiso   1.00
Br1183 Br    0.95518   0.73611   0.72000   0.00000  Uiso   1.00
Br1184 Br    0.71119   0.93009   0.78068   0.00000  Uiso   1.00
Br1185 Br    0.89433   0.72193   0.82128   0.00000  Uiso   1.00
Br1186 Br    0.77217   0.94465   0.67889   0.00000  Uiso   1.00
Br1187 Br    0.77282   0.72122   0.67856   0.00000  Uiso   1.00
Br1188 Br    0.89422   0.94540   0.82102   0.00000  Uiso   1.00
loop_
_geom_bond_atom_site_label_1
_geom_bond_atom_site_label_2
_geom_bond_distance
_geom_bond_site_symmetry_2
_ccdc_geom_bond_type
O1     C5      1.297   .     A
O1     Zn13    2.000   .     S
O2     C6      1.295   .     A
O2     Zn14    2.000   .     S
O3     Zn13    2.002   .     S
O3     C6      1.295   .     A
O4     Zn14    2.002   .     S
O4     C5      1.294   .     A
C5     C40     1.444   .     S
C6     C39     1.443   .     S
O7     C11     1.289   .     A
O7     Zn13    2.013   .     S
O8     C12     1.290   .     A
O8     Zn14    2.013   .     S
O9     Zn13    2.016   .     S
O9     C12     1.288   .     A
O10    C11     1.289   .     A
O10    Zn14    2.016   .     S
C11    C18     1.427   .     S
C12    C17     1.427   .     S
Zn13   N45     2.024   .     S
Zn14   N46     2.024   .     S
C15    N47     1.442   .     S
C15    C25     1.400   .     A
C15    C17     1.404   .     A
C16    C18     1.404   .     A
C16    C26     1.400   .     A
C16    N50     1.442   .     S
C17    C19     1.398   .     A
C18    C20     1.398   .     A
C19    N53     1.434   .     S
C19    C21     1.393   .     A
C20    N56     1.435   .     S
C20    C22     1.393   .     A
C21    C27     1.401   .     A
C21    C23     1.414   .     A
C22    C28     1.401   .     A
C22    C24     1.414   .     A
C23    C25     1.418   .     A
C23    C618    1.404   .     S
C24    C26     1.417   .     A
C24    C617    1.404   1_554 S
C25    C30     1.403   .     A
C26    C29     1.403   .     A
C27    H31     1.083   .     S
C27    C623    1.383   .     S
C28    H32     1.083   .     S
C28    C624    1.382   1_554 S
C29    H33     1.081   .     S
C29    C621    1.383   1_554 S
C30    H34     1.081   .     S
C30    C622    1.382   .     S
C35    C40     1.411   .     A
C35    Br59    1.942   .     S
C35    C169    1.379   1_455 S
C36    Br60    1.941   .     S
C36    C39     1.409   .     A
C36    C104    1.379   .     S
C37    C39     1.410   .     A
C37    Br61    1.943   .     S
C37    C101    1.379   .     S
C38    C40     1.409   .     A
C38    Br62    1.942   .     S
C38    C168    1.379   1_455 S
C41    N46     1.372   .     A
C41    Br63    1.918   .     S
C41    C440    1.421   1_545 S
C42    Br64    1.919   .     S
C42    N45     1.372   .     A
C42    C241    1.421   .     S
C43    Br65    1.916   .     S
C43    N46     1.371   .     A
C43    C438    1.421   1_545 S
C44    Br66    1.916   .     S
C44    N45     1.371   .     A
C44    C239    1.421   .     S
N47    O48     1.300   .     A
N47    O49     1.301   .     A
N50    O51     1.300   .     A
N50    O52     1.301   .     A
N53    O54     1.301   .     A
N53    O55     1.300   .     A
N56    O58     1.300   .     A
N56    O57     1.301   .     A
O67    C71     1.297   .     A
O67    Zn79    2.000   .     S
O68    C72     1.295   .     A
O68    Zn80    2.000   .     S
O69    Zn79    2.002   .     S
O69    C72     1.295   .     A
O70    Zn80    2.002   .     S
O70    C71     1.294   .     A
C71    C106    1.444   .     S
C72    C105    1.443   .     S
O73    C77     1.289   .     A
O73    Zn79    2.013   .     S
O74    C78     1.290   .     A
O74    Zn80    2.013   .     S
O75    Zn79    2.016   .     S
O75    C78     1.288   .     A
O76    C77     1.289   .     A
O76    Zn80    2.016   .     S
C77    C84     1.427   .     S
C78    C83     1.427   .     S
Zn79   N111    2.024   .     S
Zn80   N112    2.024   .     S
C81    N113    1.442   .     S
C81    C91     1.400   .     A
C81    C83     1.404   .     A
C82    C84     1.404   .     A
C82    C92     1.400   .     A
C82    N116    1.442   .     S
C83    C85     1.398   .     A
C84    C86     1.398   .     A
C85    N119    1.434   .     S
C85    C87     1.393   .     A
C86    N122    1.435   .     S
C86    C88     1.393   .     A
C87    C93     1.401   .     A
C87    C89     1.414   .     A
C88    C94     1.401   .     A
C88    C90     1.414   .     A
C89    C91     1.418   .     A
C89    C684    1.404   .     S
C90    C92     1.417   .     A
C90    C683    1.404   1_554 S
C91    C96     1.403   .     A
C92    C95     1.403   .     A
C93    H97     1.083   .     S
C93    C689    1.383   .     S
C94    H98     1.083   .     S
C94    C690    1.382   1_554 S
C95    H99     1.081   .     S
C95    C687    1.383   1_554 S
C96    H100    1.081   .     S
C96    C688    1.382   .     S
C101   C106    1.411   .     A
C101   Br125   1.942   .     S
C102   Br126   1.941   .     S
C102   C105    1.409   .     A
C102   C170    1.379   .     S
C103   C105    1.410   .     A
C103   Br127   1.943   .     S
C103   C167    1.379   .     S
C104   C106    1.409   .     A
C104   Br128   1.942   .     S
C107   N112    1.372   .     A
C107   Br129   1.918   .     S
C107   C506    1.421   1_545 S
C108   Br130   1.919   .     S
C108   N111    1.372   .     A
C108   C307    1.421   .     S
C109   Br131   1.916   .     S
C109   N112    1.371   .     A
C109   C504    1.421   1_545 S
C110   Br132   1.916   .     S
C110   N111    1.371   .     A
C110   C305    1.421   .     S
N113   O114    1.300   .     A
N113   O115    1.301   .     A
N116   O117    1.300   .     A
N116   O118    1.301   .     A
N119   O120    1.301   .     A
N119   O121    1.300   .     A
N122   O124    1.300   .     A
N122   O123    1.301   .     A
O133   C137    1.297   .     A
O133   Zn145   2.000   .     S
O134   C138    1.295   .     A
O134   Zn146   2.000   .     S
O135   Zn145   2.002   .     S
O135   C138    1.295   .     A
O136   Zn146   2.002   .     S
O136   C137    1.294   .     A
C137   C172    1.444   .     S
C138   C171    1.443   .     S
O139   C143    1.289   .     A
O139   Zn145   2.013   .     S
O140   C144    1.290   .     A
O140   Zn146   2.013   .     S
O141   Zn145   2.016   .     S
O141   C144    1.288   .     A
O142   C143    1.289   .     A
O142   Zn146   2.016   .     S
C143   C150    1.427   .     S
C144   C149    1.427   .     S
Zn145  N177    2.024   .     S
Zn146  N178    2.024   .     S
C147   N179    1.442   .     S
C147   C157    1.400   .     A
C147   C149    1.404   .     A
C148   C150    1.404   .     A
C148   C158    1.400   .     A
C148   N182    1.442   .     S
C149   C151    1.398   .     A
C150   C152    1.398   .     A
C151   N185    1.434   .     S
C151   C153    1.393   .     A
C152   N188    1.435   .     S
C152   C154    1.393   .     A
C153   C159    1.401   .     A
C153   C155    1.414   .     A
C154   C160    1.401   .     A
C154   C156    1.414   .     A
C155   C157    1.418   .     A
C155   C750    1.404   .     S
C156   C158    1.417   .     A
C156   C749    1.404   1_554 S
C157   C162    1.403   .     A
C158   C161    1.403   .     A
C159   H163    1.083   .     S
C159   C755    1.383   .     S
C160   H164    1.083   .     S
C160   C756    1.382   1_554 S
C161   H165    1.081   .     S
C161   C753    1.383   1_554 S
C162   H166    1.081   .     S
C162   C754    1.382   .     S
C167   C172    1.411   .     A
C167   Br191   1.942   .     S
C168   Br192   1.941   .     S
C168   C171    1.409   .     A
C168   C38     1.379   1_655 S
C169   C171    1.410   .     A
C169   Br193   1.943   .     S
C169   C35     1.379   1_655 S
C170   C172    1.409   .     A
C170   Br194   1.942   .     S
C173   N178    1.372   .     A
C173   Br195   1.918   .     S
C173   C572    1.421   1_545 S
C174   Br196   1.919   .     S
C174   N177    1.372   .     A
C174   C373    1.421   .     S
C175   Br197   1.916   .     S
C175   N178    1.371   .     A
C175   C570    1.421   1_545 S
C176   Br198   1.916   .     S
C176   N177    1.371   .     A
C176   C371    1.421   .     S
N179   O180    1.300   .     A
N179   O181    1.301   .     A
N182   O183    1.300   .     A
N182   O184    1.301   .     A
N185   O186    1.301   .     A
N185   O187    1.300   .     A
N188   O190    1.300   .     A
N188   O189    1.301   .     A
O199   C203    1.297   .     A
O199   Zn211   2.000   .     S
O200   C204    1.295   .     A
O200   Zn212   2.000   .     S
O201   Zn211   2.002   .     S
O201   C204    1.295   .     A
O202   Zn212   2.002   .     S
O202   C203    1.294   .     A
C203   C238    1.444   .     S
C204   C237    1.443   .     S
O205   C209    1.289   .     A
O205   Zn211   2.013   .     S
O206   C210    1.290   .     A
O206   Zn212   2.013   .     S
O207   Zn211   2.016   .     S
O207   C210    1.288   .     A
O208   C209    1.289   .     A
O208   Zn212   2.016   .     S
C209   C216    1.427   .     S
C210   C215    1.427   .     S
Zn211  N243    2.024   .     S
Zn212  N244    2.024   .     S
C213   N245    1.442   .     S
C213   C223    1.400   .     A
C213   C215    1.404   .     A
C214   C216    1.404   .     A
C214   C224    1.400   .     A
C214   N248    1.442   .     S
C215   C217    1.398   .     A
C216   C218    1.398   .     A
C217   N251    1.434   .     S
C217   C219    1.393   .     A
C218   N254    1.435   .     S
C218   C220    1.393   .     A
C219   C225    1.401   .     A
C219   C221    1.414   .     A
C220   C226    1.401   .     A
C220   C222    1.414   .     A
C221   C223    1.418   .     A
C221   C816    1.404   .     S
C222   C224    1.417   .     A
C222   C815    1.404   1_554 S
C223   C228    1.403   .     A
C224   C227    1.403   .     A
C225   H229    1.083   .     S
C225   C821    1.383   .     S
C226   H230    1.083   .     S
C226   C822    1.382   1_554 S
C227   H231    1.081   .     S
C227   C819    1.383   1_554 S
C228   H232    1.081   .     S
C228   C820    1.382   .     S
C233   C238    1.411   .     A
C233   Br257   1.942   .     S
C233   C367    1.379   1_455 S
C234   Br258   1.941   .     S
C234   C237    1.409   .     A
C234   C302    1.379   .     S
C235   C237    1.410   .     A
C235   Br259   1.943   .     S
C235   C299    1.379   .     S
C236   C238    1.409   .     A
C236   Br260   1.942   .     S
C236   C366    1.379   1_455 S
C239   N244    1.372   .     A
C239   Br261   1.918   .     S
C240   Br262   1.919   .     S
C240   N243    1.372   .     A
C240   C439    1.421   .     S
C241   Br263   1.916   .     S
C241   N244    1.371   .     A
C242   Br264   1.916   .     S
C242   N243    1.371   .     A
C242   C437    1.421   .     S
N245   O246    1.300   .     A
N245   O247    1.301   .     A
N248   O249    1.300   .     A
N248   O250    1.301   .     A
N251   O252    1.301   .     A
N251   O253    1.300   .     A
N254   O256    1.300   .     A
N254   O255    1.301   .     A
O265   C269    1.297   .     A
O265   Zn277   2.000   .     S
O266   C270    1.295   .     A
O266   Zn278   2.000   .     S
O267   Zn277   2.002   .     S
O267   C270    1.295   .     A
O268   Zn278   2.002   .     S
O268   C269    1.294   .     A
C269   C304    1.444   .     S
C270   C303    1.443   .     S
O271   C275    1.289   .     A
O271   Zn277   2.013   .     S
O272   C276    1.290   .     A
O272   Zn278   2.013   .     S
O273   Zn277   2.016   .     S
O273   C276    1.288   .     A
O274   C275    1.289   .     A
O274   Zn278   2.016   .     S
C275   C282    1.427   .     S
C276   C281    1.427   .     S
Zn277  N309    2.024   .     S
Zn278  N310    2.024   .     S
C279   N311    1.442   .     S
C279   C289    1.400   .     A
C279   C281    1.404   .     A
C280   C282    1.404   .     A
C280   C290    1.400   .     A
C280   N314    1.442   .     S
C281   C283    1.398   .     A
C282   C284    1.398   .     A
C283   N317    1.434   .     S
C283   C285    1.393   .     A
C284   N320    1.435   .     S
C284   C286    1.393   .     A
C285   C291    1.401   .     A
C285   C287    1.414   .     A
C286   C292    1.401   .     A
C286   C288    1.414   .     A
C287   C289    1.418   .     A
C287   C882    1.404   .     S
C288   C290    1.417   .     A
C288   C881    1.404   1_554 S
C289   C294    1.403   .     A
C290   C293    1.403   .     A
C291   H295    1.083   .     S
C291   C887    1.383   .     S
C292   H296    1.083   .     S
C292   C888    1.382   1_554 S
C293   H297    1.081   .     S
C293   C885    1.383   1_554 S
C294   H298    1.081   .     S
C294   C886    1.382   .     S
C299   C304    1.411   .     A
C299   Br323   1.942   .     S
C300   Br324   1.941   .     S
C300   C303    1.409   .     A
C300   C368    1.379   .     S
C301   C303    1.410   .     A
C301   Br325   1.943   .     S
C301   C365    1.379   .     S
C302   C304    1.409   .     A
C302   Br326   1.942   .     S
C305   N310    1.372   .     A
C305   Br327   1.918   .     S
C306   Br328   1.919   .     S
C306   N309    1.372   .     A
C306   C505    1.421   .     S
C307   Br329   1.916   .     S
C307   N310    1.371   .     A
C308   Br330   1.916   .     S
C308   N309    1.371   .     A
C308   C503    1.421   .     S
N311   O312    1.300   .     A
N311   O313    1.301   .     A
N314   O315    1.300   .     A
N314   O316    1.301   .     A
N317   O318    1.301   .     A
N317   O319    1.300   .     A
N320   O322    1.300   .     A
N320   O321    1.301   .     A
O331   C335    1.297   .     A
O331   Zn343   2.000   .     S
O332   C336    1.295   .     A
O332   Zn344   2.000   .     S
O333   Zn343   2.002   .     S
O333   C336    1.295   .     A
O334   Zn344   2.002   .     S
O334   C335    1.294   .     A
C335   C370    1.444   .     S
C336   C369    1.443   .     S
O337   C341    1.289   .     A
O337   Zn343   2.013   .     S
O338   C342    1.290   .     A
O338   Zn344   2.013   .     S
O339   Zn343   2.016   .     S
O339   C342    1.288   .     A
O340   C341    1.289   .     A
O340   Zn344   2.016   .     S
C341   C348    1.427   .     S
C342   C347    1.427   .     S
Zn343  N375    2.024   .     S
Zn344  N376    2.024   .     S
C345   N377    1.442   .     S
C345   C355    1.400   .     A
C345   C347    1.404   .     A
C346   C348    1.404   .     A
C346   C356    1.400   .     A
C346   N380    1.442   .     S
C347   C349    1.398   .     A
C348   C350    1.398   .     A
C349   N383    1.434   .     S
C349   C351    1.393   .     A
C350   N386    1.435   .     S
C350   C352    1.393   .     A
C351   C357    1.401   .     A
C351   C353    1.414   .     A
C352   C358    1.401   .     A
C352   C354    1.414   .     A
C353   C355    1.418   .     A
C353   C948    1.404   .     S
C354   C356    1.417   .     A
C354   C947    1.404   1_554 S
C355   C360    1.403   .     A
C356   C359    1.403   .     A
C357   H361    1.083   .     S
C357   C953    1.383   .     S
C358   H362    1.083   .     S
C358   C954    1.382   1_554 S
C359   H363    1.081   .     S
C359   C951    1.383   1_554 S
C360   H364    1.081   .     S
C360   C952    1.382   .     S
C365   C370    1.411   .     A
C365   Br389   1.942   .     S
C366   Br390   1.941   .     S
C366   C369    1.409   .     A
C366   C236    1.379   1_655 S
C367   C369    1.410   .     A
C367   Br391   1.943   .     S
C367   C233    1.379   1_655 S
C368   C370    1.409   .     A
C368   Br392   1.942   .     S
C371   N376    1.372   .     A
C371   Br393   1.918   .     S
C372   Br394   1.919   .     S
C372   N375    1.372   .     A
C372   C571    1.421   .     S
C373   Br395   1.916   .     S
C373   N376    1.371   .     A
C374   Br396   1.916   .     S
C374   N375    1.371   .     A
C374   C569    1.421   .     S
N377   O378    1.300   .     A
N377   O379    1.301   .     A
N380   O381    1.300   .     A
N380   O382    1.301   .     A
N383   O384    1.301   .     A
N383   O385    1.300   .     A
N386   O388    1.300   .     A
N386   O387    1.301   .     A
O397   C401    1.297   .     A
O397   Zn409   2.000   .     S
O398   C402    1.295   .     A
O398   Zn410   2.000   .     S
O399   Zn409   2.002   .     S
O399   C402    1.295   .     A
O400   Zn410   2.002   .     S
O400   C401    1.294   .     A
C401   C436    1.444   .     S
C402   C435    1.443   .     S
O403   C407    1.289   .     A
O403   Zn409   2.013   .     S
O404   C408    1.290   .     A
O404   Zn410   2.013   .     S
O405   Zn409   2.016   .     S
O405   C408    1.288   .     A
O406   C407    1.289   .     A
O406   Zn410   2.016   .     S
C407   C414    1.427   .     S
C408   C413    1.427   .     S
Zn409  N441    2.024   .     S
Zn410  N442    2.024   .     S
C411   N443    1.442   .     S
C411   C421    1.400   .     A
C411   C413    1.404   .     A
C412   C414    1.404   .     A
C412   C422    1.400   .     A
C412   N446    1.442   .     S
C413   C415    1.398   .     A
C414   C416    1.398   .     A
C415   N449    1.434   .     S
C415   C417    1.393   .     A
C416   N452    1.435   .     S
C416   C418    1.393   .     A
C417   C423    1.401   .     A
C417   C419    1.414   .     A
C418   C424    1.401   .     A
C418   C420    1.414   .     A
C419   C421    1.418   .     A
C419   C1014   1.404   .     S
C420   C422    1.417   .     A
C420   C1013   1.404   1_554 S
C421   C426    1.403   .     A
C422   C425    1.403   .     A
C423   H427    1.083   .     S
C423   C1019   1.383   .     S
C424   H428    1.083   .     S
C424   C1020   1.382   1_554 S
C425   H429    1.081   .     S
C425   C1017   1.383   1_554 S
C426   H430    1.081   .     S
C426   C1018   1.382   .     S
C431   C436    1.411   .     A
C431   Br455   1.942   .     S
C431   C565    1.379   1_455 S
C432   Br456   1.941   .     S
C432   C435    1.409   .     A
C432   C500    1.379   .     S
C433   C435    1.410   .     A
C433   Br457   1.943   .     S
C433   C497    1.379   .     S
C434   C436    1.409   .     A
C434   Br458   1.942   .     S
C434   C564    1.379   1_455 S
C437   N442    1.372   .     A
C437   Br459   1.918   .     S
C438   Br460   1.919   .     S
C438   N441    1.372   .     A
C438   C43     1.421   1_565 S
C439   Br461   1.916   .     S
C439   N442    1.371   .     A
C440   Br462   1.916   .     S
C440   N441    1.371   .     A
C440   C41     1.421   1_565 S
N443   O444    1.300   .     A
N443   O445    1.301   .     A
N446   O447    1.300   .     A
N446   O448    1.301   .     A
N449   O450    1.301   .     A
N449   O451    1.300   .     A
N452   O454    1.300   .     A
N452   O453    1.301   .     A
O463   C467    1.297   .     A
O463   Zn475   2.000   .     S
O464   C468    1.295   .     A
O464   Zn476   2.000   .     S
O465   Zn475   2.002   .     S
O465   C468    1.295   .     A
O466   Zn476   2.002   .     S
O466   C467    1.294   .     A
C467   C502    1.444   .     S
C468   C501    1.443   .     S
O469   C473    1.289   .     A
O469   Zn475   2.013   .     S
O470   C474    1.290   .     A
O470   Zn476   2.013   .     S
O471   Zn475   2.016   .     S
O471   C474    1.288   .     A
O472   C473    1.289   .     A
O472   Zn476   2.016   .     S
C473   C480    1.427   .     S
C474   C479    1.427   .     S
Zn475  N507    2.024   .     S
Zn476  N508    2.024   .     S
C477   N509    1.442   .     S
C477   C487    1.400   .     A
C477   C479    1.404   .     A
C478   C480    1.404   .     A
C478   C488    1.400   .     A
C478   N512    1.442   .     S
C479   C481    1.398   .     A
C480   C482    1.398   .     A
C481   N515    1.434   .     S
C481   C483    1.393   .     A
C482   N518    1.435   .     S
C482   C484    1.393   .     A
C483   C489    1.401   .     A
C483   C485    1.414   .     A
C484   C490    1.401   .     A
C484   C486    1.414   .     A
C485   C487    1.418   .     A
C485   C1080   1.404   .     S
C486   C488    1.417   .     A
C486   C1079   1.404   1_554 S
C487   C492    1.403   .     A
C488   C491    1.403   .     A
C489   H493    1.083   .     S
C489   C1085   1.383   .     S
C490   H494    1.083   .     S
C490   C1086   1.382   1_554 S
C491   H495    1.081   .     S
C491   C1083   1.383   1_554 S
C492   H496    1.081   .     S
C492   C1084   1.382   .     S
C497   C502    1.411   .     A
C497   Br521   1.942   .     S
C498   Br522   1.941   .     S
C498   C501    1.409   .     A
C498   C566    1.379   .     S
C499   C501    1.410   .     A
C499   Br523   1.943   .     S
C499   C563    1.379   .     S
C500   C502    1.409   .     A
C500   Br524   1.942   .     S
C503   N508    1.372   .     A
C503   Br525   1.918   .     S
C504   Br526   1.919   .     S
C504   N507    1.372   .     A
C504   C109    1.421   1_565 S
C505   Br527   1.916   .     S
C505   N508    1.371   .     A
C506   Br528   1.916   .     S
C506   N507    1.371   .     A
C506   C107    1.421   1_565 S
N509   O510    1.300   .     A
N509   O511    1.301   .     A
N512   O513    1.300   .     A
N512   O514    1.301   .     A
N515   O516    1.301   .     A
N515   O517    1.300   .     A
N518   O520    1.300   .     A
N518   O519    1.301   .     A
O529   C533    1.297   .     A
O529   Zn541   2.000   .     S
O530   C534    1.295   .     A
O530   Zn542   2.000   .     S
O531   Zn541   2.002   .     S
O531   C534    1.295   .     A
O532   Zn542   2.002   .     S
O532   C533    1.294   .     A
C533   C568    1.444   .     S
C534   C567    1.443   .     S
O535   C539    1.289   .     A
O535   Zn541   2.013   .     S
O536   C540    1.290   .     A
O536   Zn542   2.013   .     S
O537   Zn541   2.016   .     S
O537   C540    1.288   .     A
O538   C539    1.289   .     A
O538   Zn542   2.016   .     S
C539   C546    1.427   .     S
C540   C545    1.427   .     S
Zn541  N573    2.024   .     S
Zn542  N574    2.024   .     S
C543   N575    1.442   .     S
C543   C553    1.400   .     A
C543   C545    1.404   .     A
C544   C546    1.404   .     A
C544   C554    1.400   .     A
C544   N578    1.442   .     S
C545   C547    1.398   .     A
C546   C548    1.398   .     A
C547   N581    1.434   .     S
C547   C549    1.393   .     A
C548   N584    1.435   .     S
C548   C550    1.393   .     A
C549   C555    1.401   .     A
C549   C551    1.414   .     A
C550   C556    1.401   .     A
C550   C552    1.414   .     A
C551   C553    1.418   .     A
C551   C1146   1.404   .     S
C552   C554    1.417   .     A
C552   C1145   1.404   1_554 S
C553   C558    1.403   .     A
C554   C557    1.403   .     A
C555   H559    1.083   .     S
C555   C1151   1.383   .     S
C556   H560    1.083   .     S
C556   C1152   1.382   1_554 S
C557   H561    1.081   .     S
C557   C1149   1.383   1_554 S
C558   H562    1.081   .     S
C558   C1150   1.382   .     S
C563   C568    1.411   .     A
C563   Br587   1.942   .     S
C564   Br588   1.941   .     S
C564   C567    1.409   .     A
C564   C434    1.379   1_655 S
C565   C567    1.410   .     A
C565   Br589   1.943   .     S
C565   C431    1.379   1_655 S
C566   C568    1.409   .     A
C566   Br590   1.942   .     S
C569   N574    1.372   .     A
C569   Br591   1.918   .     S
C570   Br592   1.919   .     S
C570   N573    1.372   .     A
C570   C175    1.421   1_565 S
C571   Br593   1.916   .     S
C571   N574    1.371   .     A
C572   Br594   1.916   .     S
C572   N573    1.371   .     A
C572   C173    1.421   1_565 S
N575   O576    1.300   .     A
N575   O577    1.301   .     A
N578   O579    1.300   .     A
N578   O580    1.301   .     A
N581   O582    1.301   .     A
N581   O583    1.300   .     A
N584   O586    1.300   .     A
N584   O585    1.301   .     A
O595   C599    1.297   .     A
O595   Zn607   2.000   .     S
O596   C600    1.295   .     A
O596   Zn608   2.000   .     S
O597   Zn607   2.002   .     S
O597   C600    1.295   .     A
O598   Zn608   2.002   .     S
O598   C599    1.294   .     A
C599   C634    1.444   .     S
C600   C633    1.443   .     S
O601   C605    1.289   .     A
O601   Zn607   2.013   .     S
O602   C606    1.290   .     A
O602   Zn608   2.013   .     S
O603   Zn607   2.016   .     S
O603   C606    1.288   .     A
O604   C605    1.289   .     A
O604   Zn608   2.016   .     S
C605   C612    1.427   .     S
C606   C611    1.427   .     S
Zn607  N639    2.024   .     S
Zn608  N640    2.024   .     S
C609   N641    1.442   .     S
C609   C619    1.400   .     A
C609   C611    1.404   .     A
C610   C612    1.404   .     A
C610   C620    1.400   .     A
C610   N644    1.442   .     S
C611   C613    1.398   .     A
C612   C614    1.398   .     A
C613   N647    1.434   .     S
C613   C615    1.393   .     A
C614   N650    1.435   .     S
C614   C616    1.393   .     A
C615   C621    1.401   .     A
C615   C617    1.414   .     A
C616   C622    1.401   .     A
C616   C618    1.414   .     A
C617   C619    1.418   .     A
C617   C24     1.404   1_556 S
C618   C620    1.417   .     A
C619   C624    1.403   .     A
C620   C623    1.403   .     A
C621   H625    1.083   .     S
C621   C29     1.383   1_556 S
C622   H626    1.083   .     S
C623   H627    1.081   .     S
C624   H628    1.081   .     S
C624   C28     1.382   1_556 S
C629   C634    1.411   .     A
C629   Br653   1.942   .     S
C629   C763    1.379   1_455 S
C630   Br654   1.941   .     S
C630   C633    1.409   .     A
C630   C698    1.379   .     S
C631   C633    1.410   .     A
C631   Br655   1.943   .     S
C631   C695    1.379   .     S
C632   C634    1.409   .     A
C632   Br656   1.942   .     S
C632   C762    1.379   1_455 S
C635   N640    1.372   .     A
C635   Br657   1.918   .     S
C635   C1034   1.421   1_545 S
C636   Br658   1.919   .     S
C636   N639    1.372   .     A
C636   C835    1.421   .     S
C637   Br659   1.916   .     S
C637   N640    1.371   .     A
C637   C1032   1.421   1_545 S
C638   Br660   1.916   .     S
C638   N639    1.371   .     A
C638   C833    1.421   .     S
N641   O642    1.300   .     A
N641   O643    1.301   .     A
N644   O645    1.300   .     A
N644   O646    1.301   .     A
N647   O648    1.301   .     A
N647   O649    1.300   .     A
N650   O652    1.300   .     A
N650   O651    1.301   .     A
O661   C665    1.297   .     A
O661   Zn673   2.000   .     S
O662   C666    1.295   .     A
O662   Zn674   2.000   .     S
O663   Zn673   2.002   .     S
O663   C666    1.295   .     A
O664   Zn674   2.002   .     S
O664   C665    1.294   .     A
C665   C700    1.444   .     S
C666   C699    1.443   .     S
O667   C671    1.289   .     A
O667   Zn673   2.013   .     S
O668   C672    1.290   .     A
O668   Zn674   2.013   .     S
O669   Zn673   2.016   .     S
O669   C672    1.288   .     A
O670   C671    1.289   .     A
O670   Zn674   2.016   .     S
C671   C678    1.427   .     S
C672   C677    1.427   .     S
Zn673  N705    2.024   .     S
Zn674  N706    2.024   .     S
C675   N707    1.442   .     S
C675   C685    1.400   .     A
C675   C677    1.404   .     A
C676   C678    1.404   .     A
C676   C686    1.400   .     A
C676   N710    1.442   .     S
C677   C679    1.398   .     A
C678   C680    1.398   .     A
C679   N713    1.434   .     S
C679   C681    1.393   .     A
C680   N716    1.435   .     S
C680   C682    1.393   .     A
C681   C687    1.401   .     A
C681   C683    1.414   .     A
C682   C688    1.401   .     A
C682   C684    1.414   .     A
C683   C685    1.418   .     A
C683   C90     1.404   1_556 S
C684   C686    1.417   .     A
C685   C690    1.403   .     A
C686   C689    1.403   .     A
C687   H691    1.083   .     S
C687   C95     1.383   1_556 S
C688   H692    1.083   .     S
C689   H693    1.081   .     S
C690   H694    1.081   .     S
C690   C94     1.382   1_556 S
C695   C700    1.411   .     A
C695   Br719   1.942   .     S
C696   Br720   1.941   .     S
C696   C699    1.409   .     A
C696   C764    1.379   .     S
C697   C699    1.410   .     A
C697   Br721   1.943   .     S
C697   C761    1.379   .     S
C698   C700    1.409   .     A
C698   Br722   1.942   .     S
C701   N706    1.372   .     A
C701   Br723   1.918   .     S
C701   C1100   1.421   1_545 S
C702   Br724   1.919   .     S
C702   N705    1.372   .     A
C702   C901    1.421   .     S
C703   Br725   1.916   .     S
C703   N706    1.371   .     A
C703   C1098   1.421   1_545 S
C704   Br726   1.916   .     S
C704   N705    1.371   .     A
C704   C899    1.421   .     S
N707   O708    1.300   .     A
N707   O709    1.301   .     A
N710   O711    1.300   .     A
N710   O712    1.301   .     A
N713   O714    1.301   .     A
N713   O715    1.300   .     A
N716   O718    1.300   .     A
N716   O717    1.301   .     A
O727   C731    1.297   .     A
O727   Zn739   2.000   .     S
O728   C732    1.295   .     A
O728   Zn740   2.000   .     S
O729   Zn739   2.002   .     S
O729   C732    1.295   .     A
O730   Zn740   2.002   .     S
O730   C731    1.294   .     A
C731   C766    1.444   .     S
C732   C765    1.443   .     S
O733   C737    1.289   .     A
O733   Zn739   2.013   .     S
O734   C738    1.290   .     A
O734   Zn740   2.013   .     S
O735   Zn739   2.016   .     S
O735   C738    1.288   .     A
O736   C737    1.289   .     A
O736   Zn740   2.016   .     S
C737   C744    1.427   .     S
C738   C743    1.427   .     S
Zn739  N771    2.024   .     S
Zn740  N772    2.024   .     S
C741   N773    1.442   .     S
C741   C751    1.400   .     A
C741   C743    1.404   .     A
C742   C744    1.404   .     A
C742   C752    1.400   .     A
C742   N776    1.442   .     S
C743   C745    1.398   .     A
C744   C746    1.398   .     A
C745   N779    1.434   .     S
C745   C747    1.393   .     A
C746   N782    1.435   .     S
C746   C748    1.393   .     A
C747   C753    1.401   .     A
C747   C749    1.414   .     A
C748   C754    1.401   .     A
C748   C750    1.414   .     A
C749   C751    1.418   .     A
C749   C156    1.404   1_556 S
C750   C752    1.417   .     A
C751   C756    1.403   .     A
C752   C755    1.403   .     A
C753   H757    1.083   .     S
C753   C161    1.383   1_556 S
C754   H758    1.083   .     S
C755   H759    1.081   .     S
C756   H760    1.081   .     S
C756   C160    1.382   1_556 S
C761   C766    1.411   .     A
C761   Br785   1.942   .     S
C762   Br786   1.941   .     S
C762   C765    1.409   .     A
C762   C632    1.379   1_655 S
C763   C765    1.410   .     A
C763   Br787   1.943   .     S
C763   C629    1.379   1_655 S
C764   C766    1.409   .     A
C764   Br788   1.942   .     S
C767   N772    1.372   .     A
C767   Br789   1.918   .     S
C767   C1166   1.421   1_545 S
C768   Br790   1.919   .     S
C768   N771    1.372   .     A
C768   C967    1.421   .     S
C769   Br791   1.916   .     S
C769   N772    1.371   .     A
C769   C1164   1.421   1_545 S
C770   Br792   1.916   .     S
C770   N771    1.371   .     A
C770   C965    1.421   .     S
N773   O774    1.300   .     A
N773   O775    1.301   .     A
N776   O777    1.300   .     A
N776   O778    1.301   .     A
N779   O780    1.301   .     A
N779   O781    1.300   .     A
N782   O784    1.300   .     A
N782   O783    1.301   .     A
O793   C797    1.297   .     A
O793   Zn805   2.000   .     S
O794   C798    1.295   .     A
O794   Zn806   2.000   .     S
O795   Zn805   2.002   .     S
O795   C798    1.295   .     A
O796   Zn806   2.002   .     S
O796   C797    1.294   .     A
C797   C832    1.444   .     S
C798   C831    1.443   .     S
O799   C803    1.289   .     A
O799   Zn805   2.013   .     S
O800   C804    1.290   .     A
O800   Zn806   2.013   .     S
O801   Zn805   2.016   .     S
O801   C804    1.288   .     A
O802   C803    1.289   .     A
O802   Zn806   2.016   .     S
C803   C810    1.427   .     S
C804   C809    1.427   .     S
Zn805  N837    2.024   .     S
Zn806  N838    2.024   .     S
C807   N839    1.442   .     S
C807   C817    1.400   .     A
C807   C809    1.404   .     A
C808   C810    1.404   .     A
C808   C818    1.400   .     A
C808   N842    1.442   .     S
C809   C811    1.398   .     A
C810   C812    1.398   .     A
C811   N845    1.434   .     S
C811   C813    1.393   .     A
C812   N848    1.435   .     S
C812   C814    1.393   .     A
C813   C819    1.401   .     A
C813   C815    1.414   .     A
C814   C820    1.401   .     A
C814   C816    1.414   .     A
C815   C817    1.418   .     A
C815   C222    1.404   1_556 S
C816   C818    1.417   .     A
C817   C822    1.403   .     A
C818   C821    1.403   .     A
C819   H823    1.083   .     S
C819   C227    1.383   1_556 S
C820   H824    1.083   .     S
C821   H825    1.081   .     S
C822   H826    1.081   .     S
C822   C226    1.382   1_556 S
C827   C832    1.411   .     A
C827   Br851   1.942   .     S
C827   C961    1.379   1_455 S
C828   Br852   1.941   .     S
C828   C831    1.409   .     A
C828   C896    1.379   .     S
C829   C831    1.410   .     A
C829   Br853   1.943   .     S
C829   C893    1.379   .     S
C830   C832    1.409   .     A
C830   Br854   1.942   .     S
C830   C960    1.379   1_455 S
C833   N838    1.372   .     A
C833   Br855   1.918   .     S
C834   Br856   1.919   .     S
C834   N837    1.372   .     A
C834   C1033   1.421   .     S
C835   Br857   1.916   .     S
C835   N838    1.371   .     A
C836   Br858   1.916   .     S
C836   N837    1.371   .     A
C836   C1031   1.421   .     S
N839   O840    1.300   .     A
N839   O841    1.301   .     A
N842   O843    1.300   .     A
N842   O844    1.301   .     A
N845   O846    1.301   .     A
N845   O847    1.300   .     A
N848   O850    1.300   .     A
N848   O849    1.301   .     A
O859   C863    1.297   .     A
O859   Zn871   2.000   .     S
O860   C864    1.295   .     A
O860   Zn872   2.000   .     S
O861   Zn871   2.002   .     S
O861   C864    1.295   .     A
O862   Zn872   2.002   .     S
O862   C863    1.294   .     A
C863   C898    1.444   .     S
C864   C897    1.443   .     S
O865   C869    1.289   .     A
O865   Zn871   2.013   .     S
O866   C870    1.290   .     A
O866   Zn872   2.013   .     S
O867   Zn871   2.016   .     S
O867   C870    1.288   .     A
O868   C869    1.289   .     A
O868   Zn872   2.016   .     S
C869   C876    1.427   .     S
C870   C875    1.427   .     S
Zn871  N903    2.024   .     S
Zn872  N904    2.024   .     S
C873   N905    1.442   .     S
C873   C883    1.400   .     A
C873   C875    1.404   .     A
C874   C876    1.404   .     A
C874   C884    1.400   .     A
C874   N908    1.442   .     S
C875   C877    1.398   .     A
C876   C878    1.398   .     A
C877   N911    1.434   .     S
C877   C879    1.393   .     A
C878   N914    1.435   .     S
C878   C880    1.393   .     A
C879   C885    1.401   .     A
C879   C881    1.414   .     A
C880   C886    1.401   .     A
C880   C882    1.414   .     A
C881   C883    1.418   .     A
C881   C288    1.404   1_556 S
C882   C884    1.417   .     A
C883   C888    1.403   .     A
C884   C887    1.403   .     A
C885   H889    1.083   .     S
C885   C293    1.383   1_556 S
C886   H890    1.083   .     S
C887   H891    1.081   .     S
C888   H892    1.081   .     S
C888   C292    1.382   1_556 S
C893   C898    1.411   .     A
C893   Br917   1.942   .     S
C894   Br918   1.941   .     S
C894   C897    1.409   .     A
C894   C962    1.379   .     S
C895   C897    1.410   .     A
C895   Br919   1.943   .     S
C895   C959    1.379   .     S
C896   C898    1.409   .     A
C896   Br920   1.942   .     S
C899   N904    1.372   .     A
C899   Br921   1.918   .     S
C900   Br922   1.919   .     S
C900   N903    1.372   .     A
C900   C1099   1.421   .     S
C901   Br923   1.916   .     S
C901   N904    1.371   .     A
C902   Br924   1.916   .     S
C902   N903    1.371   .     A
C902   C1097   1.421   .     S
N905   O906    1.300   .     A
N905   O907    1.301   .     A
N908   O909    1.300   .     A
N908   O910    1.301   .     A
N911   O912    1.301   .     A
N911   O913    1.300   .     A
N914   O916    1.300   .     A
N914   O915    1.301   .     A
O925   C929    1.297   .     A
O925   Zn937   2.000   .     S
O926   C930    1.295   .     A
O926   Zn938   2.000   .     S
O927   Zn937   2.002   .     S
O927   C930    1.295   .     A
O928   Zn938   2.002   .     S
O928   C929    1.294   .     A
C929   C964    1.444   .     S
C930   C963    1.443   .     S
O931   C935    1.289   .     A
O931   Zn937   2.013   .     S
O932   C936    1.290   .     A
O932   Zn938   2.013   .     S
O933   Zn937   2.016   .     S
O933   C936    1.288   .     A
O934   C935    1.289   .     A
O934   Zn938   2.016   .     S
C935   C942    1.427   .     S
C936   C941    1.427   .     S
Zn937  N969    2.024   .     S
Zn938  N970    2.024   .     S
C939   N971    1.442   .     S
C939   C949    1.400   .     A
C939   C941    1.404   .     A
C940   C942    1.404   .     A
C940   C950    1.400   .     A
C940   N974    1.442   .     S
C941   C943    1.398   .     A
C942   C944    1.398   .     A
C943   N977    1.434   .     S
C943   C945    1.393   .     A
C944   N980    1.435   .     S
C944   C946    1.393   .     A
C945   C951    1.401   .     A
C945   C947    1.414   .     A
C946   C952    1.401   .     A
C946   C948    1.414   .     A
C947   C949    1.418   .     A
C947   C354    1.404   1_556 S
C948   C950    1.417   .     A
C949   C954    1.403   .     A
C950   C953    1.403   .     A
C951   H955    1.083   .     S
C951   C359    1.383   1_556 S
C952   H956    1.083   .     S
C953   H957    1.081   .     S
C954   H958    1.081   .     S
C954   C358    1.382   1_556 S
C959   C964    1.411   .     A
C959   Br983   1.942   .     S
C960   Br984   1.941   .     S
C960   C963    1.409   .     A
C960   C830    1.379   1_655 S
C961   C963    1.410   .     A
C961   Br985   1.943   .     S
C961   C827    1.379   1_655 S
C962   C964    1.409   .     A
C962   Br986   1.942   .     S
C965   N970    1.372   .     A
C965   Br987   1.918   .     S
C966   Br988   1.919   .     S
C966   N969    1.372   .     A
C966   C1165   1.421   .     S
C967   Br989   1.916   .     S
C967   N970    1.371   .     A
C968   Br990   1.916   .     S
C968   N969    1.371   .     A
C968   C1163   1.421   .     S
N971   O972    1.300   .     A
N971   O973    1.301   .     A
N974   O975    1.300   .     A
N974   O976    1.301   .     A
N977   O978    1.301   .     A
N977   O979    1.300   .     A
N980   O982    1.300   .     A
N980   O981    1.301   .     A
O991   C995    1.297   .     A
O991   Zn1003  2.000   .     S
O992   C996    1.295   .     A
O992   Zn1004  2.000   .     S
O993   Zn1003  2.002   .     S
O993   C996    1.295   .     A
O994   Zn1004  2.002   .     S
O994   C995    1.294   .     A
C995   C1030   1.444   .     S
C996   C1029   1.443   .     S
O997   C1001   1.289   .     A
O997   Zn1003  2.013   .     S
O998   C1002   1.290   .     A
O998   Zn1004  2.013   .     S
O999   Zn1003  2.016   .     S
O999   C1002   1.288   .     A
O1000  C1001   1.289   .     A
O1000  Zn1004  2.016   .     S
C1001  C1008   1.427   .     S
C1002  C1007   1.427   .     S
Zn1003 N1035   2.024   .     S
Zn1004 N1036   2.024   .     S
C1005  N1037   1.442   .     S
C1005  C1015   1.400   .     A
C1005  C1007   1.404   .     A
C1006  C1008   1.404   .     A
C1006  C1016   1.400   .     A
C1006  N1040   1.442   .     S
C1007  C1009   1.398   .     A
C1008  C1010   1.398   .     A
C1009  N1043   1.434   .     S
C1009  C1011   1.393   .     A
C1010  N1046   1.435   .     S
C1010  C1012   1.393   .     A
C1011  C1017   1.401   .     A
C1011  C1013   1.414   .     A
C1012  C1018   1.401   .     A
C1012  C1014   1.414   .     A
C1013  C1015   1.418   .     A
C1013  C420    1.404   1_556 S
C1014  C1016   1.417   .     A
C1015  C1020   1.403   .     A
C1016  C1019   1.403   .     A
C1017  H1021   1.083   .     S
C1017  C425    1.383   1_556 S
C1018  H1022   1.083   .     S
C1019  H1023   1.081   .     S
C1020  H1024   1.081   .     S
C1020  C424    1.382   1_556 S
C1025  C1030   1.411   .     A
C1025  Br1049  1.942   .     S
C1025  C1159   1.379   1_455 S
C1026  Br1050  1.941   .     S
C1026  C1029   1.409   .     A
C1026  C1094   1.379   .     S
C1027  C1029   1.410   .     A
C1027  Br1051  1.943   .     S
C1027  C1091   1.379   .     S
C1028  C1030   1.409   .     A
C1028  Br1052  1.942   .     S
C1028  C1158   1.379   1_455 S
C1031  N1036   1.372   .     A
C1031  Br1053  1.918   .     S
C1032  Br1054  1.919   .     S
C1032  N1035   1.372   .     A
C1032  C637    1.421   1_565 S
C1033  Br1055  1.916   .     S
C1033  N1036   1.371   .     A
C1034  Br1056  1.916   .     S
C1034  N1035   1.371   .     A
C1034  C635    1.421   1_565 S
N1037  O1038   1.300   .     A
N1037  O1039   1.301   .     A
N1040  O1041   1.300   .     A
N1040  O1042   1.301   .     A
N1043  O1044   1.301   .     A
N1043  O1045   1.300   .     A
N1046  O1048   1.300   .     A
N1046  O1047   1.301   .     A
O1057  C1061   1.297   .     A
O1057  Zn1069  2.000   .     S
O1058  C1062   1.295   .     A
O1058  Zn1070  2.000   .     S
O1059  Zn1069  2.002   .     S
O1059  C1062   1.295   .     A
O1060  Zn1070  2.002   .     S
O1060  C1061   1.294   .     A
C1061  C1096   1.444   .     S
C1062  C1095   1.443   .     S
O1063  C1067   1.289   .     A
O1063  Zn1069  2.013   .     S
O1064  C1068   1.290   .     A
O1064  Zn1070  2.013   .     S
O1065  Zn1069  2.016   .     S
O1065  C1068   1.288   .     A
O1066  C1067   1.289   .     A
O1066  Zn1070  2.016   .     S
C1067  C1074   1.427   .     S
C1068  C1073   1.427   .     S
Zn1069 N1101   2.024   .     S
Zn1070 N1102   2.024   .     S
C1071  N1103   1.442   .     S
C1071  C1081   1.400   .     A
C1071  C1073   1.404   .     A
C1072  C1074   1.404   .     A
C1072  C1082   1.400   .     A
C1072  N1106   1.442   .     S
C1073  C1075   1.398   .     A
C1074  C1076   1.398   .     A
C1075  N1109   1.434   .     S
C1075  C1077   1.393   .     A
C1076  N1112   1.435   .     S
C1076  C1078   1.393   .     A
C1077  C1083   1.401   .     A
C1077  C1079   1.414   .     A
C1078  C1084   1.401   .     A
C1078  C1080   1.414   .     A
C1079  C1081   1.418   .     A
C1079  C486    1.404   1_556 S
C1080  C1082   1.417   .     A
C1081  C1086   1.403   .     A
C1082  C1085   1.403   .     A
C1083  H1087   1.083   .     S
C1083  C491    1.383   1_556 S
C1084  H1088   1.083   .     S
C1085  H1089   1.081   .     S
C1086  H1090   1.081   .     S
C1086  C490    1.382   1_556 S
C1091  C1096   1.411   .     A
C1091  Br1115  1.942   .     S
C1092  Br1116  1.941   .     S
C1092  C1095   1.409   .     A
C1092  C1160   1.379   .     S
C1093  C1095   1.410   .     A
C1093  Br1117  1.943   .     S
C1093  C1157   1.379   .     S
C1094  C1096   1.409   .     A
C1094  Br1118  1.942   .     S
C1097  N1102   1.372   .     A
C1097  Br1119  1.918   .     S
C1098  Br1120  1.919   .     S
C1098  N1101   1.372   .     A
C1098  C703    1.421   1_565 S
C1099  Br1121  1.916   .     S
C1099  N1102   1.371   .     A
C1100  Br1122  1.916   .     S
C1100  N1101   1.371   .     A
C1100  C701    1.421   1_565 S
N1103  O1104   1.300   .     A
N1103  O1105   1.301   .     A
N1106  O1107   1.300   .     A
N1106  O1108   1.301   .     A
N1109  O1110   1.301   .     A
N1109  O1111   1.300   .     A
N1112  O1114   1.300   .     A
N1112  O1113   1.301   .     A
O1123  C1127   1.297   .     A
O1123  Zn1135  2.000   .     S
O1124  C1128   1.295   .     A
O1124  Zn1136  2.000   .     S
O1125  Zn1135  2.002   .     S
O1125  C1128   1.295   .     A
O1126  Zn1136  2.002   .     S
O1126  C1127   1.294   .     A
C1127  C1162   1.444   .     S
C1128  C1161   1.443   .     S
O1129  C1133   1.289   .     A
O1129  Zn1135  2.013   .     S
O1130  C1134   1.290   .     A
O1130  Zn1136  2.013   .     S
O1131  Zn1135  2.016   .     S
O1131  C1134   1.288   .     A
O1132  C1133   1.289   .     A
O1132  Zn1136  2.016   .     S
C1133  C1140   1.427   .     S
C1134  C1139   1.427   .     S
Zn1135 N1167   2.024   .     S
Zn1136 N1168   2.024   .     S
C1137  N1169   1.442   .     S
C1137  C1147   1.400   .     A
C1137  C1139   1.404   .     A
C1138  C1140   1.404   .     A
C1138  C1148   1.400   .     A
C1138  N1172   1.442   .     S
C1139  C1141   1.398   .     A
C1140  C1142   1.398   .     A
C1141  N1175   1.434   .     S
C1141  C1143   1.393   .     A
C1142  N1178   1.435   .     S
C1142  C1144   1.393   .     A
C1143  C1149   1.401   .     A
C1143  C1145   1.414   .     A
C1144  C1150   1.401   .     A
C1144  C1146   1.414   .     A
C1145  C1147   1.418   .     A
C1145  C552    1.404   1_556 S
C1146  C1148   1.417   .     A
C1147  C1152   1.403   .     A
C1148  C1151   1.403   .     A
C1149  H1153   1.083   .     S
C1149  C557    1.383   1_556 S
C1150  H1154   1.083   .     S
C1151  H1155   1.081   .     S
C1152  H1156   1.081   .     S
C1152  C556    1.382   1_556 S
C1157  C1162   1.411   .     A
C1157  Br1181  1.942   .     S
C1158  Br1182  1.941   .     S
C1158  C1161   1.409   .     A
C1158  C1028   1.379   1_655 S
C1159  C1161   1.410   .     A
C1159  Br1183  1.943   .     S
C1159  C1025   1.379   1_655 S
C1160  C1162   1.409   .     A
C1160  Br1184  1.942   .     S
C1163  N1168   1.372   .     A
C1163  Br1185  1.918   .     S
C1164  Br1186  1.919   .     S
C1164  N1167   1.372   .     A
C1164  C769    1.421   1_565 S
C1165  Br1187  1.916   .     S
C1165  N1168   1.371   .     A
C1166  Br1188  1.916   .     S
C1166  N1167   1.371   .     A
C1166  C767    1.421   1_565 S
N1169  O1170   1.300   .     A
N1169  O1171   1.301   .     A
N1172  O1173   1.300   .     A
N1172  O1174   1.301   .     A
N1175  O1176   1.301   .     A
N1175  O1177   1.300   .     A
N1178  O1180   1.300   .     A
N1178  O1179   1.301   .     A
