data_str_m3_o1_o10_pcu_sym.37
_audit_creation_date              2020-01-03
_audit_creation_method            'Materials Studio'
_symmetry_space_group_name_H-M    'P1'
_symmetry_Int_Tables_number       1
_symmetry_cell_setting            triclinic
loop_
_symmetry_equiv_pos_as_xyz
  x,y,z
_cell_length_a                    25.6781
_cell_length_b                    31.8311
_cell_length_c                    29.8915
_cell_angle_alpha                 89.3781
_cell_angle_beta                  98.4036
_cell_angle_gamma                 90.9095
loop_
_atom_site_label
_atom_site_type_symbol
_atom_site_fract_x
_atom_site_fract_y
_atom_site_fract_z
_atom_site_U_iso_or_equiv
_atom_site_adp_type
_atom_site_occupancy
C1     C     0.16825   0.08694   0.16710   0.00000  Uiso   1.00
C2     C     0.12328   0.02238   0.17660   0.00000  Uiso   1.00
C3     C     0.16402   0.29060   0.16580   0.00000  Uiso   1.00
C4     C     0.16923   0.04274   0.16804   0.00000  Uiso   1.00
C5     C     0.20006   0.19274   0.02752   0.00000  Uiso   1.00
C6     C     0.13490   0.13956   0.30572   0.00000  Uiso   1.00
C7     C     0.19937   0.19325   0.31278   0.00000  Uiso   1.00
C8     C     0.13225   0.14142   0.01965   0.00000  Uiso   1.00
C9     C     0.26423   0.04155   0.15199   0.00000  Uiso   1.00
C10    C     0.06945   0.29174   0.18305   0.00000  Uiso   1.00
C11    C     0.23535   0.22237   0.05493   0.00000  Uiso   1.00
C12    C     0.16492   0.24640   0.16629   0.00000  Uiso   1.00
C13    C     0.10705   0.10487   0.27958   0.00000  Uiso   1.00
C14    C     0.22246   0.26345   0.28805   0.00000  Uiso   1.00
C15    C     0.03813   0.12778   0.02062   0.00000  Uiso   1.00
C16    C     0.06723   0.16547   0.15491   0.00000  Uiso   1.00
C17    C     0.26612   0.16761   0.17853   0.00000  Uiso   1.00
C18    C     0.01214   0.16306   0.14913   0.00000  Uiso   1.00
C19    C     0.32126   0.16931   0.18479   0.00000  Uiso   1.00
C20    C     0.21373   0.02088   0.15912   0.00000  Uiso   1.00
C21    C     0.11976   0.31245   0.17539   0.00000  Uiso   1.00
C22    C     0.21037   0.31096   0.15836   0.00000  Uiso   1.00
H23    H     0.32487   0.15545   0.11588   0.00000  Uiso   1.00
H24    H     0.17918   0.26820   0.28349   0.00000  Uiso   1.00
H25    H     0.23810   0.27669   0.25811   0.00000  Uiso   1.00
H26    H     0.24133   0.28100   0.31812   0.00000  Uiso   1.00
H27    H     0.09899   0.10706   0.06988   0.00000  Uiso   1.00
H28    H     0.01853   0.13877   0.04884   0.00000  Uiso   1.00
H29    H     0.01684   0.09935   0.00601   0.00000  Uiso   1.00
H30    H     0.03500   0.15305   0.32775   0.00000  Uiso   1.00
H31    H     0.00835   0.17636   0.21842   0.00000  Uiso   1.00
H32    H     0.24447   0.29277   0.15359   0.00000  Uiso   1.00
H33    H     0.08967   0.04058   0.18274   0.00000  Uiso   1.00
H34    H     0.33115   0.03845   0.12422   0.00000  Uiso   1.00
H35    H     0.00299   0.29485   0.21150   0.00000  Uiso   1.00
H36    H     0.24677   0.28164   0.07719   0.00000  Uiso   1.00
H37    H     0.10323   0.04250   0.26820   0.00000  Uiso   1.00
H38    H     0.27424   0.21420   0.30494   0.00000  Uiso   1.00
N39    N     0.16665   0.16666   0.28573   0.00000  Uiso   1.00
N40    N     0.16668   0.16668   0.04760   0.00000  Uiso   1.00
N41    N     0.23520   0.21928   0.29257   0.00000  Uiso   1.00
N42    N     0.09240   0.11724   0.03705   0.00000  Uiso   1.00
O43    O     0.16666   0.10558   0.20487   0.00000  Uiso   1.00
O44    O     0.29773   0.02158   0.12627   0.00000  Uiso   1.00
O45    O     0.05614   0.25793   0.16579   0.00000  Uiso   1.00
O46    O     0.03630   0.31174   0.20909   0.00000  Uiso   1.00
O47    O     0.28151   0.21360   0.06644   0.00000  Uiso   1.00
O48    O     0.21731   0.26228   0.06316   0.00000  Uiso   1.00
O49    O     0.06547   0.11096   0.25507   0.00000  Uiso   1.00
O50    O     0.12686   0.06426   0.28583   0.00000  Uiso   1.00
O51    O     0.16667   0.22775   0.12846   0.00000  Uiso   1.00
O52    O     0.16666   0.10559   0.12843   0.00000  Uiso   1.00
O53    O     0.16667   0.22774   0.20490   0.00000  Uiso   1.00
O54    O     0.09058   0.16666   0.19595   0.00000  Uiso   1.00
O55    O     0.24275   0.16667   0.13739   0.00000  Uiso   1.00
O56    O     0.09058   0.16667   0.11950   0.00000  Uiso   1.00
O57    O     0.24275   0.16666   0.21383   0.00000  Uiso   1.00
O58    O     0.27740   0.07529   0.16948   0.00000  Uiso   1.00
Zn59   Zn    0.16667   0.16666   0.21771   0.00000  Uiso   1.00
Zn60   Zn    0.16667   0.16667   0.11563   0.00000  Uiso   1.00
C61    C     0.50158   0.08694   0.16710   0.00000  Uiso   1.00
C62    C     0.45661   0.02238   0.17660   0.00000  Uiso   1.00
C63    C     0.49735   0.29060   0.16580   0.00000  Uiso   1.00
C64    C     0.50256   0.04274   0.16804   0.00000  Uiso   1.00
C65    C     0.53339   0.19274   0.02752   0.00000  Uiso   1.00
C66    C     0.46823   0.13956   0.30572   0.00000  Uiso   1.00
C67    C     0.53270   0.19325   0.31278   0.00000  Uiso   1.00
C68    C     0.46558   0.14142   0.01965   0.00000  Uiso   1.00
C69    C     0.59756   0.04155   0.15199   0.00000  Uiso   1.00
C70    C     0.40279   0.29174   0.18305   0.00000  Uiso   1.00
C71    C     0.56869   0.22237   0.05493   0.00000  Uiso   1.00
C72    C     0.49825   0.24640   0.16629   0.00000  Uiso   1.00
C73    C     0.44039   0.10487   0.27958   0.00000  Uiso   1.00
C74    C     0.55580   0.26345   0.28805   0.00000  Uiso   1.00
C75    C     0.37146   0.12778   0.02062   0.00000  Uiso   1.00
C76    C     0.40056   0.16547   0.15491   0.00000  Uiso   1.00
C77    C     0.59946   0.16761   0.17853   0.00000  Uiso   1.00
C78    C     0.34548   0.16306   0.14913   0.00000  Uiso   1.00
C79    C     0.65459   0.16931   0.18479   0.00000  Uiso   1.00
C80    C     0.54706   0.02088   0.15912   0.00000  Uiso   1.00
C81    C     0.45309   0.31245   0.17539   0.00000  Uiso   1.00
C82    C     0.54370   0.31096   0.15836   0.00000  Uiso   1.00
H83    H     0.65820   0.15545   0.11588   0.00000  Uiso   1.00
H84    H     0.51251   0.26820   0.28349   0.00000  Uiso   1.00
H85    H     0.57143   0.27669   0.25811   0.00000  Uiso   1.00
H86    H     0.57466   0.28100   0.31812   0.00000  Uiso   1.00
H87    H     0.43232   0.10706   0.06988   0.00000  Uiso   1.00
H88    H     0.35186   0.13877   0.04884   0.00000  Uiso   1.00
H89    H     0.35017   0.09935   0.00601   0.00000  Uiso   1.00
H90    H     0.36833   0.15305   0.32775   0.00000  Uiso   1.00
H91    H     0.34168   0.17636   0.21842   0.00000  Uiso   1.00
H92    H     0.57781   0.29277   0.15359   0.00000  Uiso   1.00
H93    H     0.42300   0.04058   0.18274   0.00000  Uiso   1.00
H94    H     0.66448   0.03845   0.12422   0.00000  Uiso   1.00
H95    H     0.33632   0.29485   0.21150   0.00000  Uiso   1.00
H96    H     0.58010   0.28164   0.07719   0.00000  Uiso   1.00
H97    H     0.43657   0.04250   0.26820   0.00000  Uiso   1.00
H98    H     0.60757   0.21420   0.30494   0.00000  Uiso   1.00
N99    N     0.49999   0.16666   0.28573   0.00000  Uiso   1.00
N100   N     0.50001   0.16668   0.04760   0.00000  Uiso   1.00
N101   N     0.56853   0.21928   0.29257   0.00000  Uiso   1.00
N102   N     0.42573   0.11724   0.03705   0.00000  Uiso   1.00
O103   O     0.50000   0.10558   0.20487   0.00000  Uiso   1.00
O104   O     0.63107   0.02158   0.12627   0.00000  Uiso   1.00
O105   O     0.38947   0.25793   0.16579   0.00000  Uiso   1.00
O106   O     0.36963   0.31174   0.20909   0.00000  Uiso   1.00
O107   O     0.61484   0.21360   0.06644   0.00000  Uiso   1.00
O108   O     0.55064   0.26228   0.06316   0.00000  Uiso   1.00
O109   O     0.39881   0.11096   0.25507   0.00000  Uiso   1.00
O110   O     0.46019   0.06426   0.28583   0.00000  Uiso   1.00
O111   O     0.50000   0.22775   0.12846   0.00000  Uiso   1.00
O112   O     0.50000   0.10559   0.12843   0.00000  Uiso   1.00
O113   O     0.50000   0.22774   0.20490   0.00000  Uiso   1.00
O114   O     0.42392   0.16666   0.19595   0.00000  Uiso   1.00
O115   O     0.57608   0.16667   0.13739   0.00000  Uiso   1.00
O116   O     0.42392   0.16667   0.11950   0.00000  Uiso   1.00
O117   O     0.57608   0.16666   0.21383   0.00000  Uiso   1.00
O118   O     0.61073   0.07529   0.16948   0.00000  Uiso   1.00
Zn119  Zn    0.50000   0.16666   0.21771   0.00000  Uiso   1.00
Zn120  Zn    0.50000   0.16667   0.11563   0.00000  Uiso   1.00
C121   C     0.83492   0.08694   0.16710   0.00000  Uiso   1.00
C122   C     0.78995   0.02238   0.17660   0.00000  Uiso   1.00
C123   C     0.83068   0.29060   0.16580   0.00000  Uiso   1.00
C124   C     0.83589   0.04274   0.16804   0.00000  Uiso   1.00
C125   C     0.86673   0.19274   0.02752   0.00000  Uiso   1.00
C126   C     0.80157   0.13956   0.30572   0.00000  Uiso   1.00
C127   C     0.86603   0.19325   0.31278   0.00000  Uiso   1.00
C128   C     0.79892   0.14142   0.01965   0.00000  Uiso   1.00
C129   C     0.93089   0.04155   0.15199   0.00000  Uiso   1.00
C130   C     0.73612   0.29174   0.18305   0.00000  Uiso   1.00
C131   C     0.90202   0.22237   0.05493   0.00000  Uiso   1.00
C132   C     0.83158   0.24640   0.16629   0.00000  Uiso   1.00
C133   C     0.77372   0.10487   0.27958   0.00000  Uiso   1.00
C134   C     0.88913   0.26345   0.28805   0.00000  Uiso   1.00
C135   C     0.70480   0.12778   0.02062   0.00000  Uiso   1.00
C136   C     0.73389   0.16547   0.15491   0.00000  Uiso   1.00
C137   C     0.93279   0.16761   0.17853   0.00000  Uiso   1.00
C138   C     0.67881   0.16306   0.14913   0.00000  Uiso   1.00
C139   C     0.98793   0.16931   0.18479   0.00000  Uiso   1.00
C140   C     0.88039   0.02088   0.15912   0.00000  Uiso   1.00
C141   C     0.78642   0.31245   0.17539   0.00000  Uiso   1.00
C142   C     0.87704   0.31096   0.15836   0.00000  Uiso   1.00
H143   H     0.99153   0.15545   0.11588   0.00000  Uiso   1.00
H144   H     0.84585   0.26820   0.28349   0.00000  Uiso   1.00
H145   H     0.90477   0.27669   0.25811   0.00000  Uiso   1.00
H146   H     0.90799   0.28100   0.31812   0.00000  Uiso   1.00
H147   H     0.76565   0.10706   0.06988   0.00000  Uiso   1.00
H148   H     0.68520   0.13877   0.04884   0.00000  Uiso   1.00
H149   H     0.68351   0.09935   0.00601   0.00000  Uiso   1.00
H150   H     0.70166   0.15305   0.32775   0.00000  Uiso   1.00
H151   H     0.67502   0.17636   0.21842   0.00000  Uiso   1.00
H152   H     0.91114   0.29277   0.15359   0.00000  Uiso   1.00
H153   H     0.75633   0.04058   0.18274   0.00000  Uiso   1.00
H154   H     0.99781   0.03845   0.12422   0.00000  Uiso   1.00
H155   H     0.66965   0.29485   0.21150   0.00000  Uiso   1.00
H156   H     0.91344   0.28164   0.07719   0.00000  Uiso   1.00
H157   H     0.76990   0.04250   0.26820   0.00000  Uiso   1.00
H158   H     0.94091   0.21420   0.30494   0.00000  Uiso   1.00
N159   N     0.83332   0.16666   0.28573   0.00000  Uiso   1.00
N160   N     0.83335   0.16668   0.04760   0.00000  Uiso   1.00
N161   N     0.90186   0.21928   0.29257   0.00000  Uiso   1.00
N162   N     0.75906   0.11724   0.03705   0.00000  Uiso   1.00
O163   O     0.83333   0.10558   0.20487   0.00000  Uiso   1.00
O164   O     0.96440   0.02158   0.12627   0.00000  Uiso   1.00
O165   O     0.72281   0.25793   0.16579   0.00000  Uiso   1.00
O166   O     0.70297   0.31174   0.20909   0.00000  Uiso   1.00
O167   O     0.94818   0.21360   0.06644   0.00000  Uiso   1.00
O168   O     0.88398   0.26228   0.06316   0.00000  Uiso   1.00
O169   O     0.73214   0.11096   0.25507   0.00000  Uiso   1.00
O170   O     0.79353   0.06426   0.28583   0.00000  Uiso   1.00
O171   O     0.83334   0.22775   0.12846   0.00000  Uiso   1.00
O172   O     0.83333   0.10559   0.12843   0.00000  Uiso   1.00
O173   O     0.83334   0.22774   0.20490   0.00000  Uiso   1.00
O174   O     0.75725   0.16666   0.19595   0.00000  Uiso   1.00
O175   O     0.90942   0.16667   0.13739   0.00000  Uiso   1.00
O176   O     0.75725   0.16667   0.11950   0.00000  Uiso   1.00
O177   O     0.90942   0.16666   0.21383   0.00000  Uiso   1.00
O178   O     0.94407   0.07529   0.16948   0.00000  Uiso   1.00
Zn179  Zn    0.83333   0.16666   0.21771   0.00000  Uiso   1.00
Zn180  Zn    0.83333   0.16667   0.11563   0.00000  Uiso   1.00
C181   C     0.16825   0.42027   0.16710   0.00000  Uiso   1.00
C182   C     0.12328   0.35571   0.17660   0.00000  Uiso   1.00
C183   C     0.16402   0.62394   0.16580   0.00000  Uiso   1.00
C184   C     0.16923   0.37608   0.16804   0.00000  Uiso   1.00
C185   C     0.20006   0.52607   0.02752   0.00000  Uiso   1.00
C186   C     0.13490   0.47289   0.30572   0.00000  Uiso   1.00
C187   C     0.19937   0.52658   0.31278   0.00000  Uiso   1.00
C188   C     0.13225   0.47476   0.01965   0.00000  Uiso   1.00
C189   C     0.26423   0.37488   0.15199   0.00000  Uiso   1.00
C190   C     0.06945   0.62508   0.18305   0.00000  Uiso   1.00
C191   C     0.23535   0.55571   0.05493   0.00000  Uiso   1.00
C192   C     0.16492   0.57973   0.16629   0.00000  Uiso   1.00
C193   C     0.10705   0.43820   0.27958   0.00000  Uiso   1.00
C194   C     0.22246   0.59679   0.28805   0.00000  Uiso   1.00
C195   C     0.03813   0.46111   0.02062   0.00000  Uiso   1.00
C196   C     0.06723   0.49880   0.15491   0.00000  Uiso   1.00
C197   C     0.26612   0.50094   0.17853   0.00000  Uiso   1.00
C198   C     0.01214   0.49639   0.14913   0.00000  Uiso   1.00
C199   C     0.32126   0.50264   0.18479   0.00000  Uiso   1.00
C200   C     0.21373   0.35421   0.15912   0.00000  Uiso   1.00
C201   C     0.11976   0.64578   0.17539   0.00000  Uiso   1.00
C202   C     0.21037   0.64430   0.15836   0.00000  Uiso   1.00
H203   H     0.32487   0.48878   0.11588   0.00000  Uiso   1.00
H204   H     0.17918   0.60153   0.28349   0.00000  Uiso   1.00
H205   H     0.23810   0.61002   0.25811   0.00000  Uiso   1.00
H206   H     0.24133   0.61434   0.31812   0.00000  Uiso   1.00
H207   H     0.09899   0.44040   0.06988   0.00000  Uiso   1.00
H208   H     0.01853   0.47211   0.04884   0.00000  Uiso   1.00
H209   H     0.01684   0.43268   0.00601   0.00000  Uiso   1.00
H210   H     0.03500   0.48638   0.32775   0.00000  Uiso   1.00
H211   H     0.00835   0.50970   0.21842   0.00000  Uiso   1.00
H212   H     0.24447   0.62611   0.15359   0.00000  Uiso   1.00
H213   H     0.08967   0.37392   0.18274   0.00000  Uiso   1.00
H214   H     0.33115   0.37179   0.12422   0.00000  Uiso   1.00
H215   H     0.00299   0.62819   0.21150   0.00000  Uiso   1.00
H216   H     0.24677   0.61497   0.07719   0.00000  Uiso   1.00
H217   H     0.10323   0.37583   0.26820   0.00000  Uiso   1.00
H218   H     0.27424   0.54753   0.30494   0.00000  Uiso   1.00
N219   N     0.16665   0.49999   0.28573   0.00000  Uiso   1.00
N220   N     0.16668   0.50001   0.04760   0.00000  Uiso   1.00
N221   N     0.23520   0.55262   0.29257   0.00000  Uiso   1.00
N222   N     0.09240   0.45057   0.03705   0.00000  Uiso   1.00
O223   O     0.16666   0.43892   0.20487   0.00000  Uiso   1.00
O224   O     0.29773   0.35492   0.12627   0.00000  Uiso   1.00
O225   O     0.05614   0.59126   0.16579   0.00000  Uiso   1.00
O226   O     0.03630   0.64507   0.20909   0.00000  Uiso   1.00
O227   O     0.28151   0.54693   0.06644   0.00000  Uiso   1.00
O228   O     0.21731   0.59562   0.06316   0.00000  Uiso   1.00
O229   O     0.06547   0.44429   0.25507   0.00000  Uiso   1.00
O230   O     0.12686   0.39760   0.28583   0.00000  Uiso   1.00
O231   O     0.16667   0.56108   0.12846   0.00000  Uiso   1.00
O232   O     0.16666   0.43893   0.12843   0.00000  Uiso   1.00
O233   O     0.16667   0.56107   0.20490   0.00000  Uiso   1.00
O234   O     0.09058   0.50000   0.19595   0.00000  Uiso   1.00
O235   O     0.24275   0.50000   0.13739   0.00000  Uiso   1.00
O236   O     0.09058   0.50000   0.11950   0.00000  Uiso   1.00
O237   O     0.24275   0.50000   0.21383   0.00000  Uiso   1.00
O238   O     0.27740   0.40862   0.16948   0.00000  Uiso   1.00
Zn239  Zn    0.16667   0.49999   0.21771   0.00000  Uiso   1.00
Zn240  Zn    0.16667   0.50001   0.11563   0.00000  Uiso   1.00
C241   C     0.50158   0.42027   0.16710   0.00000  Uiso   1.00
C242   C     0.45661   0.35571   0.17660   0.00000  Uiso   1.00
C243   C     0.49735   0.62394   0.16580   0.00000  Uiso   1.00
C244   C     0.50256   0.37608   0.16804   0.00000  Uiso   1.00
C245   C     0.53339   0.52607   0.02752   0.00000  Uiso   1.00
C246   C     0.46823   0.47289   0.30572   0.00000  Uiso   1.00
C247   C     0.53270   0.52658   0.31278   0.00000  Uiso   1.00
C248   C     0.46558   0.47476   0.01965   0.00000  Uiso   1.00
C249   C     0.59756   0.37488   0.15199   0.00000  Uiso   1.00
C250   C     0.40279   0.62508   0.18305   0.00000  Uiso   1.00
C251   C     0.56869   0.55571   0.05493   0.00000  Uiso   1.00
C252   C     0.49825   0.57973   0.16629   0.00000  Uiso   1.00
C253   C     0.44039   0.43820   0.27958   0.00000  Uiso   1.00
C254   C     0.55580   0.59679   0.28805   0.00000  Uiso   1.00
C255   C     0.37146   0.46111   0.02062   0.00000  Uiso   1.00
C256   C     0.40056   0.49880   0.15491   0.00000  Uiso   1.00
C257   C     0.59946   0.50094   0.17853   0.00000  Uiso   1.00
C258   C     0.34548   0.49639   0.14913   0.00000  Uiso   1.00
C259   C     0.65459   0.50264   0.18479   0.00000  Uiso   1.00
C260   C     0.54706   0.35421   0.15912   0.00000  Uiso   1.00
C261   C     0.45309   0.64578   0.17539   0.00000  Uiso   1.00
C262   C     0.54370   0.64430   0.15836   0.00000  Uiso   1.00
H263   H     0.65820   0.48878   0.11588   0.00000  Uiso   1.00
H264   H     0.51251   0.60153   0.28349   0.00000  Uiso   1.00
H265   H     0.57143   0.61002   0.25811   0.00000  Uiso   1.00
H266   H     0.57466   0.61434   0.31812   0.00000  Uiso   1.00
H267   H     0.43232   0.44040   0.06988   0.00000  Uiso   1.00
H268   H     0.35186   0.47211   0.04884   0.00000  Uiso   1.00
H269   H     0.35017   0.43268   0.00601   0.00000  Uiso   1.00
H270   H     0.36833   0.48638   0.32775   0.00000  Uiso   1.00
H271   H     0.34168   0.50970   0.21842   0.00000  Uiso   1.00
H272   H     0.57781   0.62611   0.15359   0.00000  Uiso   1.00
H273   H     0.42300   0.37392   0.18274   0.00000  Uiso   1.00
H274   H     0.66448   0.37179   0.12422   0.00000  Uiso   1.00
H275   H     0.33632   0.62819   0.21150   0.00000  Uiso   1.00
H276   H     0.58010   0.61497   0.07719   0.00000  Uiso   1.00
H277   H     0.43657   0.37583   0.26820   0.00000  Uiso   1.00
H278   H     0.60757   0.54753   0.30494   0.00000  Uiso   1.00
N279   N     0.49999   0.49999   0.28573   0.00000  Uiso   1.00
N280   N     0.50001   0.50001   0.04760   0.00000  Uiso   1.00
N281   N     0.56853   0.55262   0.29257   0.00000  Uiso   1.00
N282   N     0.42573   0.45057   0.03705   0.00000  Uiso   1.00
O283   O     0.50000   0.43892   0.20487   0.00000  Uiso   1.00
O284   O     0.63107   0.35492   0.12627   0.00000  Uiso   1.00
O285   O     0.38947   0.59126   0.16579   0.00000  Uiso   1.00
O286   O     0.36963   0.64507   0.20909   0.00000  Uiso   1.00
O287   O     0.61484   0.54693   0.06644   0.00000  Uiso   1.00
O288   O     0.55064   0.59562   0.06316   0.00000  Uiso   1.00
O289   O     0.39881   0.44429   0.25507   0.00000  Uiso   1.00
O290   O     0.46019   0.39760   0.28583   0.00000  Uiso   1.00
O291   O     0.50000   0.56108   0.12846   0.00000  Uiso   1.00
O292   O     0.50000   0.43893   0.12843   0.00000  Uiso   1.00
O293   O     0.50000   0.56107   0.20490   0.00000  Uiso   1.00
O294   O     0.42392   0.50000   0.19595   0.00000  Uiso   1.00
O295   O     0.57608   0.50000   0.13739   0.00000  Uiso   1.00
O296   O     0.42392   0.50000   0.11950   0.00000  Uiso   1.00
O297   O     0.57608   0.50000   0.21383   0.00000  Uiso   1.00
O298   O     0.61073   0.40862   0.16948   0.00000  Uiso   1.00
Zn299  Zn    0.50000   0.49999   0.21771   0.00000  Uiso   1.00
Zn300  Zn    0.50000   0.50001   0.11563   0.00000  Uiso   1.00
C301   C     0.83492   0.42027   0.16710   0.00000  Uiso   1.00
C302   C     0.78995   0.35571   0.17660   0.00000  Uiso   1.00
C303   C     0.83068   0.62394   0.16580   0.00000  Uiso   1.00
C304   C     0.83589   0.37608   0.16804   0.00000  Uiso   1.00
C305   C     0.86673   0.52607   0.02752   0.00000  Uiso   1.00
C306   C     0.80157   0.47289   0.30572   0.00000  Uiso   1.00
C307   C     0.86603   0.52658   0.31278   0.00000  Uiso   1.00
C308   C     0.79892   0.47476   0.01965   0.00000  Uiso   1.00
C309   C     0.93089   0.37488   0.15199   0.00000  Uiso   1.00
C310   C     0.73612   0.62508   0.18305   0.00000  Uiso   1.00
C311   C     0.90202   0.55571   0.05493   0.00000  Uiso   1.00
C312   C     0.83158   0.57973   0.16629   0.00000  Uiso   1.00
C313   C     0.77372   0.43820   0.27958   0.00000  Uiso   1.00
C314   C     0.88913   0.59679   0.28805   0.00000  Uiso   1.00
C315   C     0.70480   0.46111   0.02062   0.00000  Uiso   1.00
C316   C     0.73389   0.49880   0.15491   0.00000  Uiso   1.00
C317   C     0.93279   0.50094   0.17853   0.00000  Uiso   1.00
C318   C     0.67881   0.49639   0.14913   0.00000  Uiso   1.00
C319   C     0.98793   0.50264   0.18479   0.00000  Uiso   1.00
C320   C     0.88039   0.35421   0.15912   0.00000  Uiso   1.00
C321   C     0.78642   0.64578   0.17539   0.00000  Uiso   1.00
C322   C     0.87704   0.64430   0.15836   0.00000  Uiso   1.00
H323   H     0.99153   0.48878   0.11588   0.00000  Uiso   1.00
H324   H     0.84585   0.60153   0.28349   0.00000  Uiso   1.00
H325   H     0.90477   0.61002   0.25811   0.00000  Uiso   1.00
H326   H     0.90799   0.61434   0.31812   0.00000  Uiso   1.00
H327   H     0.76565   0.44040   0.06988   0.00000  Uiso   1.00
H328   H     0.68520   0.47211   0.04884   0.00000  Uiso   1.00
H329   H     0.68351   0.43268   0.00601   0.00000  Uiso   1.00
H330   H     0.70166   0.48638   0.32775   0.00000  Uiso   1.00
H331   H     0.67502   0.50970   0.21842   0.00000  Uiso   1.00
H332   H     0.91114   0.62611   0.15359   0.00000  Uiso   1.00
H333   H     0.75633   0.37392   0.18274   0.00000  Uiso   1.00
H334   H     0.99781   0.37179   0.12422   0.00000  Uiso   1.00
H335   H     0.66965   0.62819   0.21150   0.00000  Uiso   1.00
H336   H     0.91344   0.61497   0.07719   0.00000  Uiso   1.00
H337   H     0.76990   0.37583   0.26820   0.00000  Uiso   1.00
H338   H     0.94091   0.54753   0.30494   0.00000  Uiso   1.00
N339   N     0.83332   0.49999   0.28573   0.00000  Uiso   1.00
N340   N     0.83335   0.50001   0.04760   0.00000  Uiso   1.00
N341   N     0.90186   0.55262   0.29257   0.00000  Uiso   1.00
N342   N     0.75906   0.45057   0.03705   0.00000  Uiso   1.00
O343   O     0.83333   0.43892   0.20487   0.00000  Uiso   1.00
O344   O     0.96440   0.35492   0.12627   0.00000  Uiso   1.00
O345   O     0.72281   0.59126   0.16579   0.00000  Uiso   1.00
O346   O     0.70297   0.64507   0.20909   0.00000  Uiso   1.00
O347   O     0.94818   0.54693   0.06644   0.00000  Uiso   1.00
O348   O     0.88398   0.59562   0.06316   0.00000  Uiso   1.00
O349   O     0.73214   0.44429   0.25507   0.00000  Uiso   1.00
O350   O     0.79353   0.39760   0.28583   0.00000  Uiso   1.00
O351   O     0.83334   0.56108   0.12846   0.00000  Uiso   1.00
O352   O     0.83333   0.43893   0.12843   0.00000  Uiso   1.00
O353   O     0.83334   0.56107   0.20490   0.00000  Uiso   1.00
O354   O     0.75725   0.50000   0.19595   0.00000  Uiso   1.00
O355   O     0.90942   0.50000   0.13739   0.00000  Uiso   1.00
O356   O     0.75725   0.50000   0.11950   0.00000  Uiso   1.00
O357   O     0.90942   0.50000   0.21383   0.00000  Uiso   1.00
O358   O     0.94407   0.40862   0.16948   0.00000  Uiso   1.00
Zn359  Zn    0.83333   0.49999   0.21771   0.00000  Uiso   1.00
Zn360  Zn    0.83333   0.50001   0.11563   0.00000  Uiso   1.00
C361   C     0.16825   0.75360   0.16710   0.00000  Uiso   1.00
C362   C     0.12328   0.68905   0.17660   0.00000  Uiso   1.00
C363   C     0.16402   0.95727   0.16580   0.00000  Uiso   1.00
C364   C     0.16923   0.70941   0.16804   0.00000  Uiso   1.00
C365   C     0.20006   0.85940   0.02752   0.00000  Uiso   1.00
C366   C     0.13490   0.80622   0.30572   0.00000  Uiso   1.00
C367   C     0.19937   0.85992   0.31278   0.00000  Uiso   1.00
C368   C     0.13225   0.80809   0.01965   0.00000  Uiso   1.00
C369   C     0.26423   0.70821   0.15199   0.00000  Uiso   1.00
C370   C     0.06945   0.95841   0.18305   0.00000  Uiso   1.00
C371   C     0.23535   0.88904   0.05493   0.00000  Uiso   1.00
C372   C     0.16492   0.91306   0.16629   0.00000  Uiso   1.00
C373   C     0.10705   0.77154   0.27958   0.00000  Uiso   1.00
C374   C     0.22246   0.93012   0.28805   0.00000  Uiso   1.00
C375   C     0.03813   0.79444   0.02062   0.00000  Uiso   1.00
C376   C     0.06723   0.83213   0.15491   0.00000  Uiso   1.00
C377   C     0.26612   0.83427   0.17853   0.00000  Uiso   1.00
C378   C     0.01214   0.82972   0.14913   0.00000  Uiso   1.00
C379   C     0.32126   0.83597   0.18479   0.00000  Uiso   1.00
C380   C     0.21373   0.68755   0.15912   0.00000  Uiso   1.00
C381   C     0.11976   0.97911   0.17539   0.00000  Uiso   1.00
C382   C     0.21037   0.97763   0.15836   0.00000  Uiso   1.00
H383   H     0.32487   0.82212   0.11588   0.00000  Uiso   1.00
H384   H     0.17918   0.93487   0.28349   0.00000  Uiso   1.00
H385   H     0.23810   0.94336   0.25811   0.00000  Uiso   1.00
H386   H     0.24133   0.94767   0.31812   0.00000  Uiso   1.00
H387   H     0.09899   0.77373   0.06988   0.00000  Uiso   1.00
H388   H     0.01853   0.80544   0.04884   0.00000  Uiso   1.00
H389   H     0.01684   0.76602   0.00601   0.00000  Uiso   1.00
H390   H     0.03500   0.81972   0.32775   0.00000  Uiso   1.00
H391   H     0.00835   0.84303   0.21842   0.00000  Uiso   1.00
H392   H     0.24447   0.95944   0.15359   0.00000  Uiso   1.00
H393   H     0.08967   0.70725   0.18274   0.00000  Uiso   1.00
H394   H     0.33115   0.70512   0.12422   0.00000  Uiso   1.00
H395   H     0.00299   0.96152   0.21150   0.00000  Uiso   1.00
H396   H     0.24677   0.94831   0.07719   0.00000  Uiso   1.00
H397   H     0.10323   0.70916   0.26820   0.00000  Uiso   1.00
H398   H     0.27424   0.88086   0.30494   0.00000  Uiso   1.00
N399   N     0.16665   0.83332   0.28573   0.00000  Uiso   1.00
N400   N     0.16668   0.83334   0.04760   0.00000  Uiso   1.00
N401   N     0.23520   0.88595   0.29257   0.00000  Uiso   1.00
N402   N     0.09240   0.78391   0.03705   0.00000  Uiso   1.00
O403   O     0.16666   0.77225   0.20487   0.00000  Uiso   1.00
O404   O     0.29773   0.68825   0.12627   0.00000  Uiso   1.00
O405   O     0.05614   0.92460   0.16579   0.00000  Uiso   1.00
O406   O     0.03630   0.97841   0.20909   0.00000  Uiso   1.00
O407   O     0.28151   0.88027   0.06644   0.00000  Uiso   1.00
O408   O     0.21731   0.92895   0.06316   0.00000  Uiso   1.00
O409   O     0.06547   0.77762   0.25507   0.00000  Uiso   1.00
O410   O     0.12686   0.73093   0.28583   0.00000  Uiso   1.00
O411   O     0.16667   0.89442   0.12846   0.00000  Uiso   1.00
O412   O     0.16666   0.77226   0.12843   0.00000  Uiso   1.00
O413   O     0.16667   0.89441   0.20490   0.00000  Uiso   1.00
O414   O     0.09058   0.83333   0.19595   0.00000  Uiso   1.00
O415   O     0.24275   0.83334   0.13739   0.00000  Uiso   1.00
O416   O     0.09058   0.83334   0.11950   0.00000  Uiso   1.00
O417   O     0.24275   0.83333   0.21383   0.00000  Uiso   1.00
O418   O     0.27740   0.74195   0.16948   0.00000  Uiso   1.00
Zn419  Zn    0.16667   0.83333   0.21771   0.00000  Uiso   1.00
Zn420  Zn    0.16667   0.83334   0.11563   0.00000  Uiso   1.00
C421   C     0.50158   0.75360   0.16710   0.00000  Uiso   1.00
C422   C     0.45661   0.68905   0.17660   0.00000  Uiso   1.00
C423   C     0.49735   0.95727   0.16580   0.00000  Uiso   1.00
C424   C     0.50256   0.70941   0.16804   0.00000  Uiso   1.00
C425   C     0.53339   0.85940   0.02752   0.00000  Uiso   1.00
C426   C     0.46823   0.80622   0.30572   0.00000  Uiso   1.00
C427   C     0.53270   0.85992   0.31278   0.00000  Uiso   1.00
C428   C     0.46558   0.80809   0.01965   0.00000  Uiso   1.00
C429   C     0.59756   0.70821   0.15199   0.00000  Uiso   1.00
C430   C     0.40279   0.95841   0.18305   0.00000  Uiso   1.00
C431   C     0.56869   0.88904   0.05493   0.00000  Uiso   1.00
C432   C     0.49825   0.91306   0.16629   0.00000  Uiso   1.00
C433   C     0.44039   0.77154   0.27958   0.00000  Uiso   1.00
C434   C     0.55580   0.93012   0.28805   0.00000  Uiso   1.00
C435   C     0.37146   0.79444   0.02062   0.00000  Uiso   1.00
C436   C     0.40056   0.83213   0.15491   0.00000  Uiso   1.00
C437   C     0.59946   0.83427   0.17853   0.00000  Uiso   1.00
C438   C     0.34548   0.82972   0.14913   0.00000  Uiso   1.00
C439   C     0.65459   0.83597   0.18479   0.00000  Uiso   1.00
C440   C     0.54706   0.68755   0.15912   0.00000  Uiso   1.00
C441   C     0.45309   0.97911   0.17539   0.00000  Uiso   1.00
C442   C     0.54370   0.97763   0.15836   0.00000  Uiso   1.00
H443   H     0.65820   0.82212   0.11588   0.00000  Uiso   1.00
H444   H     0.51251   0.93487   0.28349   0.00000  Uiso   1.00
H445   H     0.57143   0.94336   0.25811   0.00000  Uiso   1.00
H446   H     0.57466   0.94767   0.31812   0.00000  Uiso   1.00
H447   H     0.43232   0.77373   0.06988   0.00000  Uiso   1.00
H448   H     0.35186   0.80544   0.04884   0.00000  Uiso   1.00
H449   H     0.35017   0.76602   0.00601   0.00000  Uiso   1.00
H450   H     0.36833   0.81972   0.32775   0.00000  Uiso   1.00
H451   H     0.34168   0.84303   0.21842   0.00000  Uiso   1.00
H452   H     0.57781   0.95944   0.15359   0.00000  Uiso   1.00
H453   H     0.42300   0.70725   0.18274   0.00000  Uiso   1.00
H454   H     0.66448   0.70512   0.12422   0.00000  Uiso   1.00
H455   H     0.33632   0.96152   0.21150   0.00000  Uiso   1.00
H456   H     0.58010   0.94831   0.07719   0.00000  Uiso   1.00
H457   H     0.43657   0.70916   0.26820   0.00000  Uiso   1.00
H458   H     0.60757   0.88086   0.30494   0.00000  Uiso   1.00
N459   N     0.49999   0.83332   0.28573   0.00000  Uiso   1.00
N460   N     0.50001   0.83334   0.04760   0.00000  Uiso   1.00
N461   N     0.56853   0.88595   0.29257   0.00000  Uiso   1.00
N462   N     0.42573   0.78391   0.03705   0.00000  Uiso   1.00
O463   O     0.50000   0.77225   0.20487   0.00000  Uiso   1.00
O464   O     0.63107   0.68825   0.12627   0.00000  Uiso   1.00
O465   O     0.38947   0.92460   0.16579   0.00000  Uiso   1.00
O466   O     0.36963   0.97841   0.20909   0.00000  Uiso   1.00
O467   O     0.61484   0.88027   0.06644   0.00000  Uiso   1.00
O468   O     0.55064   0.92895   0.06316   0.00000  Uiso   1.00
O469   O     0.39881   0.77762   0.25507   0.00000  Uiso   1.00
O470   O     0.46019   0.73093   0.28583   0.00000  Uiso   1.00
O471   O     0.50000   0.89442   0.12846   0.00000  Uiso   1.00
O472   O     0.50000   0.77226   0.12843   0.00000  Uiso   1.00
O473   O     0.50000   0.89441   0.20490   0.00000  Uiso   1.00
O474   O     0.42392   0.83333   0.19595   0.00000  Uiso   1.00
O475   O     0.57608   0.83334   0.13739   0.00000  Uiso   1.00
O476   O     0.42392   0.83334   0.11950   0.00000  Uiso   1.00
O477   O     0.57608   0.83333   0.21383   0.00000  Uiso   1.00
O478   O     0.61073   0.74195   0.16948   0.00000  Uiso   1.00
Zn479  Zn    0.50000   0.83333   0.21771   0.00000  Uiso   1.00
Zn480  Zn    0.50000   0.83334   0.11563   0.00000  Uiso   1.00
C481   C     0.83492   0.75360   0.16710   0.00000  Uiso   1.00
C482   C     0.78995   0.68905   0.17660   0.00000  Uiso   1.00
C483   C     0.83068   0.95727   0.16580   0.00000  Uiso   1.00
C484   C     0.83589   0.70941   0.16804   0.00000  Uiso   1.00
C485   C     0.86673   0.85940   0.02752   0.00000  Uiso   1.00
C486   C     0.80157   0.80622   0.30572   0.00000  Uiso   1.00
C487   C     0.86603   0.85992   0.31278   0.00000  Uiso   1.00
C488   C     0.79892   0.80809   0.01965   0.00000  Uiso   1.00
C489   C     0.93089   0.70821   0.15199   0.00000  Uiso   1.00
C490   C     0.73612   0.95841   0.18305   0.00000  Uiso   1.00
C491   C     0.90202   0.88904   0.05493   0.00000  Uiso   1.00
C492   C     0.83158   0.91306   0.16629   0.00000  Uiso   1.00
C493   C     0.77372   0.77154   0.27958   0.00000  Uiso   1.00
C494   C     0.88913   0.93012   0.28805   0.00000  Uiso   1.00
C495   C     0.70480   0.79444   0.02062   0.00000  Uiso   1.00
C496   C     0.73389   0.83213   0.15491   0.00000  Uiso   1.00
C497   C     0.93279   0.83427   0.17853   0.00000  Uiso   1.00
C498   C     0.67881   0.82972   0.14913   0.00000  Uiso   1.00
C499   C     0.98793   0.83597   0.18479   0.00000  Uiso   1.00
C500   C     0.88039   0.68755   0.15912   0.00000  Uiso   1.00
C501   C     0.78642   0.97911   0.17539   0.00000  Uiso   1.00
C502   C     0.87704   0.97763   0.15836   0.00000  Uiso   1.00
H503   H     0.99153   0.82212   0.11588   0.00000  Uiso   1.00
H504   H     0.84585   0.93487   0.28349   0.00000  Uiso   1.00
H505   H     0.90477   0.94336   0.25811   0.00000  Uiso   1.00
H506   H     0.90799   0.94767   0.31812   0.00000  Uiso   1.00
H507   H     0.76565   0.77373   0.06988   0.00000  Uiso   1.00
H508   H     0.68520   0.80544   0.04884   0.00000  Uiso   1.00
H509   H     0.68351   0.76602   0.00601   0.00000  Uiso   1.00
H510   H     0.70166   0.81972   0.32775   0.00000  Uiso   1.00
H511   H     0.67502   0.84303   0.21842   0.00000  Uiso   1.00
H512   H     0.91114   0.95944   0.15359   0.00000  Uiso   1.00
H513   H     0.75633   0.70725   0.18274   0.00000  Uiso   1.00
H514   H     0.99781   0.70512   0.12422   0.00000  Uiso   1.00
H515   H     0.66965   0.96152   0.21150   0.00000  Uiso   1.00
H516   H     0.91344   0.94831   0.07719   0.00000  Uiso   1.00
H517   H     0.76990   0.70916   0.26820   0.00000  Uiso   1.00
H518   H     0.94091   0.88086   0.30494   0.00000  Uiso   1.00
N519   N     0.83332   0.83332   0.28573   0.00000  Uiso   1.00
N520   N     0.83335   0.83334   0.04760   0.00000  Uiso   1.00
N521   N     0.90186   0.88595   0.29257   0.00000  Uiso   1.00
N522   N     0.75906   0.78391   0.03705   0.00000  Uiso   1.00
O523   O     0.83333   0.77225   0.20487   0.00000  Uiso   1.00
O524   O     0.96440   0.68825   0.12627   0.00000  Uiso   1.00
O525   O     0.72281   0.92460   0.16579   0.00000  Uiso   1.00
O526   O     0.70297   0.97841   0.20909   0.00000  Uiso   1.00
O527   O     0.94818   0.88027   0.06644   0.00000  Uiso   1.00
O528   O     0.88398   0.92895   0.06316   0.00000  Uiso   1.00
O529   O     0.73214   0.77762   0.25507   0.00000  Uiso   1.00
O530   O     0.79353   0.73093   0.28583   0.00000  Uiso   1.00
O531   O     0.83334   0.89442   0.12846   0.00000  Uiso   1.00
O532   O     0.83333   0.77226   0.12843   0.00000  Uiso   1.00
O533   O     0.83334   0.89441   0.20490   0.00000  Uiso   1.00
O534   O     0.75725   0.83333   0.19595   0.00000  Uiso   1.00
O535   O     0.90942   0.83334   0.13739   0.00000  Uiso   1.00
O536   O     0.75725   0.83334   0.11950   0.00000  Uiso   1.00
O537   O     0.90942   0.83333   0.21383   0.00000  Uiso   1.00
O538   O     0.94407   0.74195   0.16948   0.00000  Uiso   1.00
Zn539  Zn    0.83333   0.83333   0.21771   0.00000  Uiso   1.00
Zn540  Zn    0.83333   0.83334   0.11563   0.00000  Uiso   1.00
C541   C     0.16825   0.08694   0.50043   0.00000  Uiso   1.00
C542   C     0.12328   0.02238   0.50993   0.00000  Uiso   1.00
C543   C     0.16402   0.29060   0.49913   0.00000  Uiso   1.00
C544   C     0.16923   0.04274   0.50138   0.00000  Uiso   1.00
C545   C     0.20006   0.19274   0.36085   0.00000  Uiso   1.00
C546   C     0.13490   0.13956   0.63905   0.00000  Uiso   1.00
C547   C     0.19937   0.19325   0.64611   0.00000  Uiso   1.00
C548   C     0.13225   0.14142   0.35298   0.00000  Uiso   1.00
C549   C     0.26423   0.04155   0.48533   0.00000  Uiso   1.00
C550   C     0.06945   0.29174   0.51639   0.00000  Uiso   1.00
C551   C     0.23535   0.22237   0.38826   0.00000  Uiso   1.00
C552   C     0.16492   0.24640   0.49962   0.00000  Uiso   1.00
C553   C     0.10705   0.10487   0.61292   0.00000  Uiso   1.00
C554   C     0.22246   0.26345   0.62139   0.00000  Uiso   1.00
C555   C     0.03813   0.12778   0.35395   0.00000  Uiso   1.00
C556   C     0.06723   0.16547   0.48824   0.00000  Uiso   1.00
C557   C     0.26612   0.16761   0.51186   0.00000  Uiso   1.00
C558   C     0.01214   0.16306   0.48246   0.00000  Uiso   1.00
C559   C     0.32126   0.16931   0.51812   0.00000  Uiso   1.00
C560   C     0.21373   0.02088   0.49245   0.00000  Uiso   1.00
C561   C     0.11976   0.31245   0.50872   0.00000  Uiso   1.00
C562   C     0.21037   0.31096   0.49169   0.00000  Uiso   1.00
H563   H     0.32487   0.15545   0.44922   0.00000  Uiso   1.00
H564   H     0.17918   0.26820   0.61682   0.00000  Uiso   1.00
H565   H     0.23810   0.27669   0.59144   0.00000  Uiso   1.00
H566   H     0.24133   0.28100   0.65145   0.00000  Uiso   1.00
H567   H     0.09899   0.10706   0.40322   0.00000  Uiso   1.00
H568   H     0.01853   0.13877   0.38218   0.00000  Uiso   1.00
H569   H     0.01684   0.09935   0.33935   0.00000  Uiso   1.00
H570   H     0.03500   0.15305   0.66108   0.00000  Uiso   1.00
H571   H     0.00835   0.17636   0.55175   0.00000  Uiso   1.00
H572   H     0.24447   0.29277   0.48692   0.00000  Uiso   1.00
H573   H     0.08967   0.04058   0.51608   0.00000  Uiso   1.00
H574   H     0.33115   0.03845   0.45755   0.00000  Uiso   1.00
H575   H     0.00299   0.29485   0.54484   0.00000  Uiso   1.00
H576   H     0.24677   0.28164   0.41052   0.00000  Uiso   1.00
H577   H     0.10323   0.04250   0.60154   0.00000  Uiso   1.00
H578   H     0.27424   0.21420   0.63827   0.00000  Uiso   1.00
N579   N     0.16665   0.16666   0.61907   0.00000  Uiso   1.00
N580   N     0.16668   0.16668   0.38093   0.00000  Uiso   1.00
N581   N     0.23520   0.21928   0.62590   0.00000  Uiso   1.00
N582   N     0.09240   0.11724   0.37038   0.00000  Uiso   1.00
O583   O     0.16666   0.10558   0.53821   0.00000  Uiso   1.00
O584   O     0.29773   0.02158   0.45960   0.00000  Uiso   1.00
O585   O     0.05614   0.25793   0.49913   0.00000  Uiso   1.00
O586   O     0.03630   0.31174   0.54243   0.00000  Uiso   1.00
O587   O     0.28151   0.21360   0.39977   0.00000  Uiso   1.00
O588   O     0.21731   0.26228   0.39649   0.00000  Uiso   1.00
O589   O     0.06547   0.11096   0.58840   0.00000  Uiso   1.00
O590   O     0.12686   0.06426   0.61917   0.00000  Uiso   1.00
O591   O     0.16667   0.22775   0.46179   0.00000  Uiso   1.00
O592   O     0.16666   0.10559   0.46176   0.00000  Uiso   1.00
O593   O     0.16667   0.22774   0.53824   0.00000  Uiso   1.00
O594   O     0.09058   0.16666   0.52928   0.00000  Uiso   1.00
O595   O     0.24275   0.16667   0.47072   0.00000  Uiso   1.00
O596   O     0.09058   0.16667   0.45284   0.00000  Uiso   1.00
O597   O     0.24275   0.16666   0.54716   0.00000  Uiso   1.00
O598   O     0.27740   0.07529   0.50281   0.00000  Uiso   1.00
Zn599  Zn    0.16667   0.16666   0.55104   0.00000  Uiso   1.00
Zn600  Zn    0.16667   0.16667   0.44896   0.00000  Uiso   1.00
C601   C     0.50158   0.08694   0.50043   0.00000  Uiso   1.00
C602   C     0.45661   0.02238   0.50993   0.00000  Uiso   1.00
C603   C     0.49735   0.29060   0.49913   0.00000  Uiso   1.00
C604   C     0.50256   0.04274   0.50138   0.00000  Uiso   1.00
C605   C     0.53339   0.19274   0.36085   0.00000  Uiso   1.00
C606   C     0.46823   0.13956   0.63905   0.00000  Uiso   1.00
C607   C     0.53270   0.19325   0.64611   0.00000  Uiso   1.00
C608   C     0.46558   0.14142   0.35298   0.00000  Uiso   1.00
C609   C     0.59756   0.04155   0.48533   0.00000  Uiso   1.00
C610   C     0.40279   0.29174   0.51639   0.00000  Uiso   1.00
C611   C     0.56869   0.22237   0.38826   0.00000  Uiso   1.00
C612   C     0.49825   0.24640   0.49962   0.00000  Uiso   1.00
C613   C     0.44039   0.10487   0.61292   0.00000  Uiso   1.00
C614   C     0.55580   0.26345   0.62139   0.00000  Uiso   1.00
C615   C     0.37146   0.12778   0.35395   0.00000  Uiso   1.00
C616   C     0.40056   0.16547   0.48824   0.00000  Uiso   1.00
C617   C     0.59946   0.16761   0.51186   0.00000  Uiso   1.00
C618   C     0.34548   0.16306   0.48246   0.00000  Uiso   1.00
C619   C     0.65459   0.16931   0.51812   0.00000  Uiso   1.00
C620   C     0.54706   0.02088   0.49245   0.00000  Uiso   1.00
C621   C     0.45309   0.31245   0.50872   0.00000  Uiso   1.00
C622   C     0.54370   0.31096   0.49169   0.00000  Uiso   1.00
H623   H     0.65820   0.15545   0.44922   0.00000  Uiso   1.00
H624   H     0.51251   0.26820   0.61682   0.00000  Uiso   1.00
H625   H     0.57143   0.27669   0.59144   0.00000  Uiso   1.00
H626   H     0.57466   0.28100   0.65145   0.00000  Uiso   1.00
H627   H     0.43232   0.10706   0.40322   0.00000  Uiso   1.00
H628   H     0.35186   0.13877   0.38218   0.00000  Uiso   1.00
H629   H     0.35017   0.09935   0.33935   0.00000  Uiso   1.00
H630   H     0.36833   0.15305   0.66108   0.00000  Uiso   1.00
H631   H     0.34168   0.17636   0.55175   0.00000  Uiso   1.00
H632   H     0.57781   0.29277   0.48692   0.00000  Uiso   1.00
H633   H     0.42300   0.04058   0.51608   0.00000  Uiso   1.00
H634   H     0.66448   0.03845   0.45755   0.00000  Uiso   1.00
H635   H     0.33632   0.29485   0.54484   0.00000  Uiso   1.00
H636   H     0.58010   0.28164   0.41052   0.00000  Uiso   1.00
H637   H     0.43657   0.04250   0.60154   0.00000  Uiso   1.00
H638   H     0.60757   0.21420   0.63827   0.00000  Uiso   1.00
N639   N     0.49999   0.16666   0.61907   0.00000  Uiso   1.00
N640   N     0.50001   0.16668   0.38093   0.00000  Uiso   1.00
N641   N     0.56853   0.21928   0.62590   0.00000  Uiso   1.00
N642   N     0.42573   0.11724   0.37038   0.00000  Uiso   1.00
O643   O     0.50000   0.10558   0.53821   0.00000  Uiso   1.00
O644   O     0.63107   0.02158   0.45960   0.00000  Uiso   1.00
O645   O     0.38947   0.25793   0.49913   0.00000  Uiso   1.00
O646   O     0.36963   0.31174   0.54243   0.00000  Uiso   1.00
O647   O     0.61484   0.21360   0.39977   0.00000  Uiso   1.00
O648   O     0.55064   0.26228   0.39649   0.00000  Uiso   1.00
O649   O     0.39881   0.11096   0.58840   0.00000  Uiso   1.00
O650   O     0.46019   0.06426   0.61917   0.00000  Uiso   1.00
O651   O     0.50000   0.22775   0.46179   0.00000  Uiso   1.00
O652   O     0.50000   0.10559   0.46176   0.00000  Uiso   1.00
O653   O     0.50000   0.22774   0.53824   0.00000  Uiso   1.00
O654   O     0.42392   0.16666   0.52928   0.00000  Uiso   1.00
O655   O     0.57608   0.16667   0.47072   0.00000  Uiso   1.00
O656   O     0.42392   0.16667   0.45284   0.00000  Uiso   1.00
O657   O     0.57608   0.16666   0.54716   0.00000  Uiso   1.00
O658   O     0.61073   0.07529   0.50281   0.00000  Uiso   1.00
Zn659  Zn    0.50000   0.16666   0.55104   0.00000  Uiso   1.00
Zn660  Zn    0.50000   0.16667   0.44896   0.00000  Uiso   1.00
C661   C     0.83492   0.08694   0.50043   0.00000  Uiso   1.00
C662   C     0.78995   0.02238   0.50993   0.00000  Uiso   1.00
C663   C     0.83068   0.29060   0.49913   0.00000  Uiso   1.00
C664   C     0.83589   0.04274   0.50138   0.00000  Uiso   1.00
C665   C     0.86673   0.19274   0.36085   0.00000  Uiso   1.00
C666   C     0.80157   0.13956   0.63905   0.00000  Uiso   1.00
C667   C     0.86603   0.19325   0.64611   0.00000  Uiso   1.00
C668   C     0.79892   0.14142   0.35298   0.00000  Uiso   1.00
C669   C     0.93089   0.04155   0.48533   0.00000  Uiso   1.00
C670   C     0.73612   0.29174   0.51639   0.00000  Uiso   1.00
C671   C     0.90202   0.22237   0.38826   0.00000  Uiso   1.00
C672   C     0.83158   0.24640   0.49962   0.00000  Uiso   1.00
C673   C     0.77372   0.10487   0.61292   0.00000  Uiso   1.00
C674   C     0.88913   0.26345   0.62139   0.00000  Uiso   1.00
C675   C     0.70480   0.12778   0.35395   0.00000  Uiso   1.00
C676   C     0.73389   0.16547   0.48824   0.00000  Uiso   1.00
C677   C     0.93279   0.16761   0.51186   0.00000  Uiso   1.00
C678   C     0.67881   0.16306   0.48246   0.00000  Uiso   1.00
C679   C     0.98793   0.16931   0.51812   0.00000  Uiso   1.00
C680   C     0.88039   0.02088   0.49245   0.00000  Uiso   1.00
C681   C     0.78642   0.31245   0.50872   0.00000  Uiso   1.00
C682   C     0.87704   0.31096   0.49169   0.00000  Uiso   1.00
H683   H     0.99153   0.15545   0.44922   0.00000  Uiso   1.00
H684   H     0.84585   0.26820   0.61682   0.00000  Uiso   1.00
H685   H     0.90477   0.27669   0.59144   0.00000  Uiso   1.00
H686   H     0.90799   0.28100   0.65145   0.00000  Uiso   1.00
H687   H     0.76565   0.10706   0.40322   0.00000  Uiso   1.00
H688   H     0.68520   0.13877   0.38218   0.00000  Uiso   1.00
H689   H     0.68351   0.09935   0.33935   0.00000  Uiso   1.00
H690   H     0.70166   0.15305   0.66108   0.00000  Uiso   1.00
H691   H     0.67502   0.17636   0.55175   0.00000  Uiso   1.00
H692   H     0.91114   0.29277   0.48692   0.00000  Uiso   1.00
H693   H     0.75633   0.04058   0.51608   0.00000  Uiso   1.00
H694   H     0.99781   0.03845   0.45755   0.00000  Uiso   1.00
H695   H     0.66965   0.29485   0.54484   0.00000  Uiso   1.00
H696   H     0.91344   0.28164   0.41052   0.00000  Uiso   1.00
H697   H     0.76990   0.04250   0.60154   0.00000  Uiso   1.00
H698   H     0.94091   0.21420   0.63827   0.00000  Uiso   1.00
N699   N     0.83332   0.16666   0.61907   0.00000  Uiso   1.00
N700   N     0.83335   0.16668   0.38093   0.00000  Uiso   1.00
N701   N     0.90186   0.21928   0.62590   0.00000  Uiso   1.00
N702   N     0.75906   0.11724   0.37038   0.00000  Uiso   1.00
O703   O     0.83333   0.10558   0.53821   0.00000  Uiso   1.00
O704   O     0.96440   0.02158   0.45960   0.00000  Uiso   1.00
O705   O     0.72281   0.25793   0.49913   0.00000  Uiso   1.00
O706   O     0.70297   0.31174   0.54243   0.00000  Uiso   1.00
O707   O     0.94818   0.21360   0.39977   0.00000  Uiso   1.00
O708   O     0.88398   0.26228   0.39649   0.00000  Uiso   1.00
O709   O     0.73214   0.11096   0.58840   0.00000  Uiso   1.00
O710   O     0.79353   0.06426   0.61917   0.00000  Uiso   1.00
O711   O     0.83334   0.22775   0.46179   0.00000  Uiso   1.00
O712   O     0.83333   0.10559   0.46176   0.00000  Uiso   1.00
O713   O     0.83334   0.22774   0.53824   0.00000  Uiso   1.00
O714   O     0.75725   0.16666   0.52928   0.00000  Uiso   1.00
O715   O     0.90942   0.16667   0.47072   0.00000  Uiso   1.00
O716   O     0.75725   0.16667   0.45284   0.00000  Uiso   1.00
O717   O     0.90942   0.16666   0.54716   0.00000  Uiso   1.00
O718   O     0.94407   0.07529   0.50281   0.00000  Uiso   1.00
Zn719  Zn    0.83333   0.16666   0.55104   0.00000  Uiso   1.00
Zn720  Zn    0.83333   0.16667   0.44896   0.00000  Uiso   1.00
C721   C     0.16825   0.42027   0.50043   0.00000  Uiso   1.00
C722   C     0.12328   0.35571   0.50993   0.00000  Uiso   1.00
C723   C     0.16402   0.62394   0.49913   0.00000  Uiso   1.00
C724   C     0.16923   0.37608   0.50138   0.00000  Uiso   1.00
C725   C     0.20006   0.52607   0.36085   0.00000  Uiso   1.00
C726   C     0.13490   0.47289   0.63905   0.00000  Uiso   1.00
C727   C     0.19937   0.52658   0.64611   0.00000  Uiso   1.00
C728   C     0.13225   0.47476   0.35298   0.00000  Uiso   1.00
C729   C     0.26423   0.37488   0.48533   0.00000  Uiso   1.00
C730   C     0.06945   0.62508   0.51639   0.00000  Uiso   1.00
C731   C     0.23535   0.55571   0.38826   0.00000  Uiso   1.00
C732   C     0.16492   0.57973   0.49962   0.00000  Uiso   1.00
C733   C     0.10705   0.43820   0.61292   0.00000  Uiso   1.00
C734   C     0.22246   0.59679   0.62139   0.00000  Uiso   1.00
C735   C     0.03813   0.46111   0.35395   0.00000  Uiso   1.00
C736   C     0.06723   0.49880   0.48824   0.00000  Uiso   1.00
C737   C     0.26612   0.50094   0.51186   0.00000  Uiso   1.00
C738   C     0.01214   0.49639   0.48246   0.00000  Uiso   1.00
C739   C     0.32126   0.50264   0.51812   0.00000  Uiso   1.00
C740   C     0.21373   0.35421   0.49245   0.00000  Uiso   1.00
C741   C     0.11976   0.64578   0.50872   0.00000  Uiso   1.00
C742   C     0.21037   0.64430   0.49169   0.00000  Uiso   1.00
H743   H     0.32487   0.48878   0.44922   0.00000  Uiso   1.00
H744   H     0.17918   0.60153   0.61682   0.00000  Uiso   1.00
H745   H     0.23810   0.61002   0.59144   0.00000  Uiso   1.00
H746   H     0.24133   0.61434   0.65145   0.00000  Uiso   1.00
H747   H     0.09899   0.44040   0.40322   0.00000  Uiso   1.00
H748   H     0.01853   0.47211   0.38218   0.00000  Uiso   1.00
H749   H     0.01684   0.43268   0.33935   0.00000  Uiso   1.00
H750   H     0.03500   0.48638   0.66108   0.00000  Uiso   1.00
H751   H     0.00835   0.50970   0.55175   0.00000  Uiso   1.00
H752   H     0.24447   0.62611   0.48692   0.00000  Uiso   1.00
H753   H     0.08967   0.37392   0.51608   0.00000  Uiso   1.00
H754   H     0.33115   0.37179   0.45755   0.00000  Uiso   1.00
H755   H     0.00299   0.62819   0.54484   0.00000  Uiso   1.00
H756   H     0.24677   0.61497   0.41052   0.00000  Uiso   1.00
H757   H     0.10323   0.37583   0.60154   0.00000  Uiso   1.00
H758   H     0.27424   0.54753   0.63827   0.00000  Uiso   1.00
N759   N     0.16665   0.49999   0.61907   0.00000  Uiso   1.00
N760   N     0.16668   0.50001   0.38093   0.00000  Uiso   1.00
N761   N     0.23520   0.55262   0.62590   0.00000  Uiso   1.00
N762   N     0.09240   0.45057   0.37038   0.00000  Uiso   1.00
O763   O     0.16666   0.43892   0.53821   0.00000  Uiso   1.00
O764   O     0.29773   0.35492   0.45960   0.00000  Uiso   1.00
O765   O     0.05614   0.59126   0.49913   0.00000  Uiso   1.00
O766   O     0.03630   0.64507   0.54243   0.00000  Uiso   1.00
O767   O     0.28151   0.54693   0.39977   0.00000  Uiso   1.00
O768   O     0.21731   0.59562   0.39649   0.00000  Uiso   1.00
O769   O     0.06547   0.44429   0.58840   0.00000  Uiso   1.00
O770   O     0.12686   0.39760   0.61917   0.00000  Uiso   1.00
O771   O     0.16667   0.56108   0.46179   0.00000  Uiso   1.00
O772   O     0.16666   0.43893   0.46176   0.00000  Uiso   1.00
O773   O     0.16667   0.56107   0.53824   0.00000  Uiso   1.00
O774   O     0.09058   0.50000   0.52928   0.00000  Uiso   1.00
O775   O     0.24275   0.50000   0.47072   0.00000  Uiso   1.00
O776   O     0.09058   0.50000   0.45284   0.00000  Uiso   1.00
O777   O     0.24275   0.50000   0.54716   0.00000  Uiso   1.00
O778   O     0.27740   0.40862   0.50281   0.00000  Uiso   1.00
Zn779  Zn    0.16667   0.49999   0.55104   0.00000  Uiso   1.00
Zn780  Zn    0.16667   0.50001   0.44896   0.00000  Uiso   1.00
C781   C     0.50158   0.42027   0.50043   0.00000  Uiso   1.00
C782   C     0.45661   0.35571   0.50993   0.00000  Uiso   1.00
C783   C     0.49735   0.62394   0.49913   0.00000  Uiso   1.00
C784   C     0.50256   0.37608   0.50138   0.00000  Uiso   1.00
C785   C     0.53339   0.52607   0.36085   0.00000  Uiso   1.00
C786   C     0.46823   0.47289   0.63905   0.00000  Uiso   1.00
C787   C     0.53270   0.52658   0.64611   0.00000  Uiso   1.00
C788   C     0.46558   0.47476   0.35298   0.00000  Uiso   1.00
C789   C     0.59756   0.37488   0.48533   0.00000  Uiso   1.00
C790   C     0.40279   0.62508   0.51639   0.00000  Uiso   1.00
C791   C     0.56869   0.55571   0.38826   0.00000  Uiso   1.00
C792   C     0.49825   0.57973   0.49962   0.00000  Uiso   1.00
C793   C     0.44039   0.43820   0.61292   0.00000  Uiso   1.00
C794   C     0.55580   0.59679   0.62139   0.00000  Uiso   1.00
C795   C     0.37146   0.46111   0.35395   0.00000  Uiso   1.00
C796   C     0.40056   0.49880   0.48824   0.00000  Uiso   1.00
C797   C     0.59946   0.50094   0.51186   0.00000  Uiso   1.00
C798   C     0.34548   0.49639   0.48246   0.00000  Uiso   1.00
C799   C     0.65459   0.50264   0.51812   0.00000  Uiso   1.00
C800   C     0.54706   0.35421   0.49245   0.00000  Uiso   1.00
C801   C     0.45309   0.64578   0.50872   0.00000  Uiso   1.00
C802   C     0.54370   0.64430   0.49169   0.00000  Uiso   1.00
H803   H     0.65820   0.48878   0.44922   0.00000  Uiso   1.00
H804   H     0.51251   0.60153   0.61682   0.00000  Uiso   1.00
H805   H     0.57143   0.61002   0.59144   0.00000  Uiso   1.00
H806   H     0.57466   0.61434   0.65145   0.00000  Uiso   1.00
H807   H     0.43232   0.44040   0.40322   0.00000  Uiso   1.00
H808   H     0.35186   0.47211   0.38218   0.00000  Uiso   1.00
H809   H     0.35017   0.43268   0.33935   0.00000  Uiso   1.00
H810   H     0.36833   0.48638   0.66108   0.00000  Uiso   1.00
H811   H     0.34168   0.50970   0.55175   0.00000  Uiso   1.00
H812   H     0.57781   0.62611   0.48692   0.00000  Uiso   1.00
H813   H     0.42300   0.37392   0.51608   0.00000  Uiso   1.00
H814   H     0.66448   0.37179   0.45755   0.00000  Uiso   1.00
H815   H     0.33632   0.62819   0.54484   0.00000  Uiso   1.00
H816   H     0.58010   0.61497   0.41052   0.00000  Uiso   1.00
H817   H     0.43657   0.37583   0.60154   0.00000  Uiso   1.00
H818   H     0.60757   0.54753   0.63827   0.00000  Uiso   1.00
N819   N     0.49999   0.49999   0.61907   0.00000  Uiso   1.00
N820   N     0.50001   0.50001   0.38093   0.00000  Uiso   1.00
N821   N     0.56853   0.55262   0.62590   0.00000  Uiso   1.00
N822   N     0.42573   0.45057   0.37038   0.00000  Uiso   1.00
O823   O     0.50000   0.43892   0.53821   0.00000  Uiso   1.00
O824   O     0.63107   0.35492   0.45960   0.00000  Uiso   1.00
O825   O     0.38947   0.59126   0.49913   0.00000  Uiso   1.00
O826   O     0.36963   0.64507   0.54243   0.00000  Uiso   1.00
O827   O     0.61484   0.54693   0.39977   0.00000  Uiso   1.00
O828   O     0.55064   0.59562   0.39649   0.00000  Uiso   1.00
O829   O     0.39881   0.44429   0.58840   0.00000  Uiso   1.00
O830   O     0.46019   0.39760   0.61917   0.00000  Uiso   1.00
O831   O     0.50000   0.56108   0.46179   0.00000  Uiso   1.00
O832   O     0.50000   0.43893   0.46176   0.00000  Uiso   1.00
O833   O     0.50000   0.56107   0.53824   0.00000  Uiso   1.00
O834   O     0.42392   0.50000   0.52928   0.00000  Uiso   1.00
O835   O     0.57608   0.50000   0.47072   0.00000  Uiso   1.00
O836   O     0.42392   0.50000   0.45284   0.00000  Uiso   1.00
O837   O     0.57608   0.50000   0.54716   0.00000  Uiso   1.00
O838   O     0.61073   0.40862   0.50281   0.00000  Uiso   1.00
Zn839  Zn    0.50000   0.49999   0.55104   0.00000  Uiso   1.00
Zn840  Zn    0.50000   0.50001   0.44896   0.00000  Uiso   1.00
C841   C     0.83492   0.42027   0.50043   0.00000  Uiso   1.00
C842   C     0.78995   0.35571   0.50993   0.00000  Uiso   1.00
C843   C     0.83068   0.62394   0.49913   0.00000  Uiso   1.00
C844   C     0.83589   0.37608   0.50138   0.00000  Uiso   1.00
C845   C     0.86673   0.52607   0.36085   0.00000  Uiso   1.00
C846   C     0.80157   0.47289   0.63905   0.00000  Uiso   1.00
C847   C     0.86603   0.52658   0.64611   0.00000  Uiso   1.00
C848   C     0.79892   0.47476   0.35298   0.00000  Uiso   1.00
C849   C     0.93089   0.37488   0.48533   0.00000  Uiso   1.00
C850   C     0.73612   0.62508   0.51639   0.00000  Uiso   1.00
C851   C     0.90202   0.55571   0.38826   0.00000  Uiso   1.00
C852   C     0.83158   0.57973   0.49962   0.00000  Uiso   1.00
C853   C     0.77372   0.43820   0.61292   0.00000  Uiso   1.00
C854   C     0.88913   0.59679   0.62139   0.00000  Uiso   1.00
C855   C     0.70480   0.46111   0.35395   0.00000  Uiso   1.00
C856   C     0.73389   0.49880   0.48824   0.00000  Uiso   1.00
C857   C     0.93279   0.50094   0.51186   0.00000  Uiso   1.00
C858   C     0.67881   0.49639   0.48246   0.00000  Uiso   1.00
C859   C     0.98793   0.50264   0.51812   0.00000  Uiso   1.00
C860   C     0.88039   0.35421   0.49245   0.00000  Uiso   1.00
C861   C     0.78642   0.64578   0.50872   0.00000  Uiso   1.00
C862   C     0.87704   0.64430   0.49169   0.00000  Uiso   1.00
H863   H     0.99153   0.48878   0.44922   0.00000  Uiso   1.00
H864   H     0.84585   0.60153   0.61682   0.00000  Uiso   1.00
H865   H     0.90477   0.61002   0.59144   0.00000  Uiso   1.00
H866   H     0.90799   0.61434   0.65145   0.00000  Uiso   1.00
H867   H     0.76565   0.44040   0.40322   0.00000  Uiso   1.00
H868   H     0.68520   0.47211   0.38218   0.00000  Uiso   1.00
H869   H     0.68351   0.43268   0.33935   0.00000  Uiso   1.00
H870   H     0.70166   0.48638   0.66108   0.00000  Uiso   1.00
H871   H     0.67502   0.50970   0.55175   0.00000  Uiso   1.00
H872   H     0.91114   0.62611   0.48692   0.00000  Uiso   1.00
H873   H     0.75633   0.37392   0.51608   0.00000  Uiso   1.00
H874   H     0.99781   0.37179   0.45755   0.00000  Uiso   1.00
H875   H     0.66965   0.62819   0.54484   0.00000  Uiso   1.00
H876   H     0.91344   0.61497   0.41052   0.00000  Uiso   1.00
H877   H     0.76990   0.37583   0.60154   0.00000  Uiso   1.00
H878   H     0.94091   0.54753   0.63827   0.00000  Uiso   1.00
N879   N     0.83332   0.49999   0.61907   0.00000  Uiso   1.00
N880   N     0.83335   0.50001   0.38093   0.00000  Uiso   1.00
N881   N     0.90186   0.55262   0.62590   0.00000  Uiso   1.00
N882   N     0.75906   0.45057   0.37038   0.00000  Uiso   1.00
O883   O     0.83333   0.43892   0.53821   0.00000  Uiso   1.00
O884   O     0.96440   0.35492   0.45960   0.00000  Uiso   1.00
O885   O     0.72281   0.59126   0.49913   0.00000  Uiso   1.00
O886   O     0.70297   0.64507   0.54243   0.00000  Uiso   1.00
O887   O     0.94818   0.54693   0.39977   0.00000  Uiso   1.00
O888   O     0.88398   0.59562   0.39649   0.00000  Uiso   1.00
O889   O     0.73214   0.44429   0.58840   0.00000  Uiso   1.00
O890   O     0.79353   0.39760   0.61917   0.00000  Uiso   1.00
O891   O     0.83334   0.56108   0.46179   0.00000  Uiso   1.00
O892   O     0.83333   0.43893   0.46176   0.00000  Uiso   1.00
O893   O     0.83334   0.56107   0.53824   0.00000  Uiso   1.00
O894   O     0.75725   0.50000   0.52928   0.00000  Uiso   1.00
O895   O     0.90942   0.50000   0.47072   0.00000  Uiso   1.00
O896   O     0.75725   0.50000   0.45284   0.00000  Uiso   1.00
O897   O     0.90942   0.50000   0.54716   0.00000  Uiso   1.00
O898   O     0.94407   0.40862   0.50281   0.00000  Uiso   1.00
Zn899  Zn    0.83333   0.49999   0.55104   0.00000  Uiso   1.00
Zn900  Zn    0.83333   0.50001   0.44896   0.00000  Uiso   1.00
C901   C     0.16825   0.75360   0.50043   0.00000  Uiso   1.00
C902   C     0.12328   0.68905   0.50993   0.00000  Uiso   1.00
C903   C     0.16402   0.95727   0.49913   0.00000  Uiso   1.00
C904   C     0.16923   0.70941   0.50138   0.00000  Uiso   1.00
C905   C     0.20006   0.85940   0.36085   0.00000  Uiso   1.00
C906   C     0.13490   0.80622   0.63905   0.00000  Uiso   1.00
C907   C     0.19937   0.85992   0.64611   0.00000  Uiso   1.00
C908   C     0.13225   0.80809   0.35298   0.00000  Uiso   1.00
C909   C     0.26423   0.70821   0.48533   0.00000  Uiso   1.00
C910   C     0.06945   0.95841   0.51639   0.00000  Uiso   1.00
C911   C     0.23535   0.88904   0.38826   0.00000  Uiso   1.00
C912   C     0.16492   0.91306   0.49962   0.00000  Uiso   1.00
C913   C     0.10705   0.77154   0.61292   0.00000  Uiso   1.00
C914   C     0.22246   0.93012   0.62139   0.00000  Uiso   1.00
C915   C     0.03813   0.79444   0.35395   0.00000  Uiso   1.00
C916   C     0.06723   0.83213   0.48824   0.00000  Uiso   1.00
C917   C     0.26612   0.83427   0.51186   0.00000  Uiso   1.00
C918   C     0.01214   0.82972   0.48246   0.00000  Uiso   1.00
C919   C     0.32126   0.83597   0.51812   0.00000  Uiso   1.00
C920   C     0.21373   0.68755   0.49245   0.00000  Uiso   1.00
C921   C     0.11976   0.97911   0.50872   0.00000  Uiso   1.00
C922   C     0.21037   0.97763   0.49169   0.00000  Uiso   1.00
H923   H     0.32487   0.82212   0.44922   0.00000  Uiso   1.00
H924   H     0.17918   0.93487   0.61682   0.00000  Uiso   1.00
H925   H     0.23810   0.94336   0.59144   0.00000  Uiso   1.00
H926   H     0.24133   0.94767   0.65145   0.00000  Uiso   1.00
H927   H     0.09899   0.77373   0.40322   0.00000  Uiso   1.00
H928   H     0.01853   0.80544   0.38218   0.00000  Uiso   1.00
H929   H     0.01684   0.76602   0.33935   0.00000  Uiso   1.00
H930   H     0.03500   0.81972   0.66108   0.00000  Uiso   1.00
H931   H     0.00835   0.84303   0.55175   0.00000  Uiso   1.00
H932   H     0.24447   0.95944   0.48692   0.00000  Uiso   1.00
H933   H     0.08967   0.70725   0.51608   0.00000  Uiso   1.00
H934   H     0.33115   0.70512   0.45755   0.00000  Uiso   1.00
H935   H     0.00299   0.96152   0.54484   0.00000  Uiso   1.00
H936   H     0.24677   0.94831   0.41052   0.00000  Uiso   1.00
H937   H     0.10323   0.70916   0.60154   0.00000  Uiso   1.00
H938   H     0.27424   0.88086   0.63827   0.00000  Uiso   1.00
N939   N     0.16665   0.83332   0.61907   0.00000  Uiso   1.00
N940   N     0.16668   0.83334   0.38093   0.00000  Uiso   1.00
N941   N     0.23520   0.88595   0.62590   0.00000  Uiso   1.00
N942   N     0.09240   0.78391   0.37038   0.00000  Uiso   1.00
O943   O     0.16666   0.77225   0.53821   0.00000  Uiso   1.00
O944   O     0.29773   0.68825   0.45960   0.00000  Uiso   1.00
O945   O     0.05614   0.92460   0.49913   0.00000  Uiso   1.00
O946   O     0.03630   0.97841   0.54243   0.00000  Uiso   1.00
O947   O     0.28151   0.88027   0.39977   0.00000  Uiso   1.00
O948   O     0.21731   0.92895   0.39649   0.00000  Uiso   1.00
O949   O     0.06547   0.77762   0.58840   0.00000  Uiso   1.00
O950   O     0.12686   0.73093   0.61917   0.00000  Uiso   1.00
O951   O     0.16667   0.89442   0.46179   0.00000  Uiso   1.00
O952   O     0.16666   0.77226   0.46176   0.00000  Uiso   1.00
O953   O     0.16667   0.89441   0.53824   0.00000  Uiso   1.00
O954   O     0.09058   0.83333   0.52928   0.00000  Uiso   1.00
O955   O     0.24275   0.83334   0.47072   0.00000  Uiso   1.00
O956   O     0.09058   0.83334   0.45284   0.00000  Uiso   1.00
O957   O     0.24275   0.83333   0.54716   0.00000  Uiso   1.00
O958   O     0.27740   0.74195   0.50281   0.00000  Uiso   1.00
Zn959  Zn    0.16667   0.83333   0.55104   0.00000  Uiso   1.00
Zn960  Zn    0.16667   0.83334   0.44896   0.00000  Uiso   1.00
C961   C     0.50158   0.75360   0.50043   0.00000  Uiso   1.00
C962   C     0.45661   0.68905   0.50993   0.00000  Uiso   1.00
C963   C     0.49735   0.95727   0.49913   0.00000  Uiso   1.00
C964   C     0.50256   0.70941   0.50138   0.00000  Uiso   1.00
C965   C     0.53339   0.85940   0.36085   0.00000  Uiso   1.00
C966   C     0.46823   0.80622   0.63905   0.00000  Uiso   1.00
C967   C     0.53270   0.85992   0.64611   0.00000  Uiso   1.00
C968   C     0.46558   0.80809   0.35298   0.00000  Uiso   1.00
C969   C     0.59756   0.70821   0.48533   0.00000  Uiso   1.00
C970   C     0.40279   0.95841   0.51639   0.00000  Uiso   1.00
C971   C     0.56869   0.88904   0.38826   0.00000  Uiso   1.00
C972   C     0.49825   0.91306   0.49962   0.00000  Uiso   1.00
C973   C     0.44039   0.77154   0.61292   0.00000  Uiso   1.00
C974   C     0.55580   0.93012   0.62139   0.00000  Uiso   1.00
C975   C     0.37146   0.79444   0.35395   0.00000  Uiso   1.00
C976   C     0.40056   0.83213   0.48824   0.00000  Uiso   1.00
C977   C     0.59946   0.83427   0.51186   0.00000  Uiso   1.00
C978   C     0.34548   0.82972   0.48246   0.00000  Uiso   1.00
C979   C     0.65459   0.83597   0.51812   0.00000  Uiso   1.00
C980   C     0.54706   0.68755   0.49245   0.00000  Uiso   1.00
C981   C     0.45309   0.97911   0.50872   0.00000  Uiso   1.00
C982   C     0.54370   0.97763   0.49169   0.00000  Uiso   1.00
H983   H     0.65820   0.82212   0.44922   0.00000  Uiso   1.00
H984   H     0.51251   0.93487   0.61682   0.00000  Uiso   1.00
H985   H     0.57143   0.94336   0.59144   0.00000  Uiso   1.00
H986   H     0.57466   0.94767   0.65145   0.00000  Uiso   1.00
H987   H     0.43232   0.77373   0.40322   0.00000  Uiso   1.00
H988   H     0.35186   0.80544   0.38218   0.00000  Uiso   1.00
H989   H     0.35017   0.76602   0.33935   0.00000  Uiso   1.00
H990   H     0.36833   0.81972   0.66108   0.00000  Uiso   1.00
H991   H     0.34168   0.84303   0.55175   0.00000  Uiso   1.00
H992   H     0.57781   0.95944   0.48692   0.00000  Uiso   1.00
H993   H     0.42300   0.70725   0.51608   0.00000  Uiso   1.00
H994   H     0.66448   0.70512   0.45755   0.00000  Uiso   1.00
H995   H     0.33632   0.96152   0.54484   0.00000  Uiso   1.00
H996   H     0.58010   0.94831   0.41052   0.00000  Uiso   1.00
H997   H     0.43657   0.70916   0.60154   0.00000  Uiso   1.00
H998   H     0.60757   0.88086   0.63827   0.00000  Uiso   1.00
N999   N     0.49999   0.83332   0.61907   0.00000  Uiso   1.00
N1000  N     0.50001   0.83334   0.38093   0.00000  Uiso   1.00
N1001  N     0.56853   0.88595   0.62590   0.00000  Uiso   1.00
N1002  N     0.42573   0.78391   0.37038   0.00000  Uiso   1.00
O1003  O     0.50000   0.77225   0.53821   0.00000  Uiso   1.00
O1004  O     0.63107   0.68825   0.45960   0.00000  Uiso   1.00
O1005  O     0.38947   0.92460   0.49913   0.00000  Uiso   1.00
O1006  O     0.36963   0.97841   0.54243   0.00000  Uiso   1.00
O1007  O     0.61484   0.88027   0.39977   0.00000  Uiso   1.00
O1008  O     0.55064   0.92895   0.39649   0.00000  Uiso   1.00
O1009  O     0.39881   0.77762   0.58840   0.00000  Uiso   1.00
O1010  O     0.46019   0.73093   0.61917   0.00000  Uiso   1.00
O1011  O     0.50000   0.89442   0.46179   0.00000  Uiso   1.00
O1012  O     0.50000   0.77226   0.46176   0.00000  Uiso   1.00
O1013  O     0.50000   0.89441   0.53824   0.00000  Uiso   1.00
O1014  O     0.42392   0.83333   0.52928   0.00000  Uiso   1.00
O1015  O     0.57608   0.83334   0.47072   0.00000  Uiso   1.00
O1016  O     0.42392   0.83334   0.45284   0.00000  Uiso   1.00
O1017  O     0.57608   0.83333   0.54716   0.00000  Uiso   1.00
O1018  O     0.61073   0.74195   0.50281   0.00000  Uiso   1.00
Zn1019 Zn    0.50000   0.83333   0.55104   0.00000  Uiso   1.00
Zn1020 Zn    0.50000   0.83334   0.44896   0.00000  Uiso   1.00
C1021  C     0.83492   0.75360   0.50043   0.00000  Uiso   1.00
C1022  C     0.78995   0.68905   0.50993   0.00000  Uiso   1.00
C1023  C     0.83068   0.95727   0.49913   0.00000  Uiso   1.00
C1024  C     0.83589   0.70941   0.50138   0.00000  Uiso   1.00
C1025  C     0.86673   0.85940   0.36085   0.00000  Uiso   1.00
C1026  C     0.80157   0.80622   0.63905   0.00000  Uiso   1.00
C1027  C     0.86603   0.85992   0.64611   0.00000  Uiso   1.00
C1028  C     0.79892   0.80809   0.35298   0.00000  Uiso   1.00
C1029  C     0.93089   0.70821   0.48533   0.00000  Uiso   1.00
C1030  C     0.73612   0.95841   0.51639   0.00000  Uiso   1.00
C1031  C     0.90202   0.88904   0.38826   0.00000  Uiso   1.00
C1032  C     0.83158   0.91306   0.49962   0.00000  Uiso   1.00
C1033  C     0.77372   0.77154   0.61292   0.00000  Uiso   1.00
C1034  C     0.88913   0.93012   0.62139   0.00000  Uiso   1.00
C1035  C     0.70480   0.79444   0.35395   0.00000  Uiso   1.00
C1036  C     0.73389   0.83213   0.48824   0.00000  Uiso   1.00
C1037  C     0.93279   0.83427   0.51186   0.00000  Uiso   1.00
C1038  C     0.67881   0.82972   0.48246   0.00000  Uiso   1.00
C1039  C     0.98793   0.83597   0.51812   0.00000  Uiso   1.00
C1040  C     0.88039   0.68755   0.49245   0.00000  Uiso   1.00
C1041  C     0.78642   0.97911   0.50872   0.00000  Uiso   1.00
C1042  C     0.87704   0.97763   0.49169   0.00000  Uiso   1.00
H1043  H     0.99153   0.82212   0.44922   0.00000  Uiso   1.00
H1044  H     0.84585   0.93487   0.61682   0.00000  Uiso   1.00
H1045  H     0.90477   0.94336   0.59144   0.00000  Uiso   1.00
H1046  H     0.90799   0.94767   0.65145   0.00000  Uiso   1.00
H1047  H     0.76565   0.77373   0.40322   0.00000  Uiso   1.00
H1048  H     0.68520   0.80544   0.38218   0.00000  Uiso   1.00
H1049  H     0.68351   0.76602   0.33935   0.00000  Uiso   1.00
H1050  H     0.70166   0.81972   0.66108   0.00000  Uiso   1.00
H1051  H     0.67502   0.84303   0.55175   0.00000  Uiso   1.00
H1052  H     0.91114   0.95944   0.48692   0.00000  Uiso   1.00
H1053  H     0.75633   0.70725   0.51608   0.00000  Uiso   1.00
H1054  H     0.99781   0.70512   0.45755   0.00000  Uiso   1.00
H1055  H     0.66965   0.96152   0.54484   0.00000  Uiso   1.00
H1056  H     0.91344   0.94831   0.41052   0.00000  Uiso   1.00
H1057  H     0.76990   0.70916   0.60154   0.00000  Uiso   1.00
H1058  H     0.94091   0.88086   0.63827   0.00000  Uiso   1.00
N1059  N     0.83332   0.83332   0.61907   0.00000  Uiso   1.00
N1060  N     0.83335   0.83334   0.38093   0.00000  Uiso   1.00
N1061  N     0.90186   0.88595   0.62590   0.00000  Uiso   1.00
N1062  N     0.75906   0.78391   0.37038   0.00000  Uiso   1.00
O1063  O     0.83333   0.77225   0.53821   0.00000  Uiso   1.00
O1064  O     0.96440   0.68825   0.45960   0.00000  Uiso   1.00
O1065  O     0.72281   0.92460   0.49913   0.00000  Uiso   1.00
O1066  O     0.70297   0.97841   0.54243   0.00000  Uiso   1.00
O1067  O     0.94818   0.88027   0.39977   0.00000  Uiso   1.00
O1068  O     0.88398   0.92895   0.39649   0.00000  Uiso   1.00
O1069  O     0.73214   0.77762   0.58840   0.00000  Uiso   1.00
O1070  O     0.79353   0.73093   0.61917   0.00000  Uiso   1.00
O1071  O     0.83334   0.89442   0.46179   0.00000  Uiso   1.00
O1072  O     0.83333   0.77226   0.46176   0.00000  Uiso   1.00
O1073  O     0.83334   0.89441   0.53824   0.00000  Uiso   1.00
O1074  O     0.75725   0.83333   0.52928   0.00000  Uiso   1.00
O1075  O     0.90942   0.83334   0.47072   0.00000  Uiso   1.00
O1076  O     0.75725   0.83334   0.45284   0.00000  Uiso   1.00
O1077  O     0.90942   0.83333   0.54716   0.00000  Uiso   1.00
O1078  O     0.94407   0.74195   0.50281   0.00000  Uiso   1.00
Zn1079 Zn    0.83333   0.83333   0.55104   0.00000  Uiso   1.00
Zn1080 Zn    0.83333   0.83334   0.44896   0.00000  Uiso   1.00
C1081  C     0.16825   0.08694   0.83377   0.00000  Uiso   1.00
C1082  C     0.12328   0.02238   0.84327   0.00000  Uiso   1.00
C1083  C     0.16402   0.29060   0.83246   0.00000  Uiso   1.00
C1084  C     0.16923   0.04274   0.83471   0.00000  Uiso   1.00
C1085  C     0.20006   0.19274   0.69419   0.00000  Uiso   1.00
C1086  C     0.13490   0.13956   0.97238   0.00000  Uiso   1.00
C1087  C     0.19937   0.19325   0.97945   0.00000  Uiso   1.00
C1088  C     0.13225   0.14142   0.68631   0.00000  Uiso   1.00
C1089  C     0.26423   0.04155   0.81866   0.00000  Uiso   1.00
C1090  C     0.06945   0.29174   0.84972   0.00000  Uiso   1.00
C1091  C     0.23535   0.22237   0.72160   0.00000  Uiso   1.00
C1092  C     0.16492   0.24640   0.83295   0.00000  Uiso   1.00
C1093  C     0.10705   0.10487   0.94625   0.00000  Uiso   1.00
C1094  C     0.22246   0.26345   0.95472   0.00000  Uiso   1.00
C1095  C     0.03813   0.12778   0.68729   0.00000  Uiso   1.00
C1096  C     0.06723   0.16547   0.82158   0.00000  Uiso   1.00
C1097  C     0.26612   0.16761   0.84519   0.00000  Uiso   1.00
C1098  C     0.01214   0.16306   0.81579   0.00000  Uiso   1.00
C1099  C     0.32126   0.16931   0.85145   0.00000  Uiso   1.00
C1100  C     0.21373   0.02088   0.82579   0.00000  Uiso   1.00
C1101  C     0.11976   0.31245   0.84205   0.00000  Uiso   1.00
C1102  C     0.21037   0.31096   0.82503   0.00000  Uiso   1.00
H1103  H     0.32487   0.15545   0.78255   0.00000  Uiso   1.00
H1104  H     0.17918   0.26820   0.95015   0.00000  Uiso   1.00
H1105  H     0.23810   0.27669   0.92477   0.00000  Uiso   1.00
H1106  H     0.24133   0.28100   0.98479   0.00000  Uiso   1.00
H1107  H     0.09899   0.10706   0.73655   0.00000  Uiso   1.00
H1108  H     0.01853   0.13877   0.71551   0.00000  Uiso   1.00
H1109  H     0.01684   0.09935   0.67268   0.00000  Uiso   1.00
H1110  H     0.03500   0.15305   0.99441   0.00000  Uiso   1.00
H1111  H     0.00835   0.17636   0.88509   0.00000  Uiso   1.00
H1112  H     0.24447   0.29277   0.82025   0.00000  Uiso   1.00
H1113  H     0.08967   0.04058   0.84941   0.00000  Uiso   1.00
H1114  H     0.33115   0.03845   0.79088   0.00000  Uiso   1.00
H1115  H     0.00299   0.29485   0.87817   0.00000  Uiso   1.00
H1116  H     0.24677   0.28164   0.74386   0.00000  Uiso   1.00
H1117  H     0.10323   0.04250   0.93487   0.00000  Uiso   1.00
H1118  H     0.27424   0.21420   0.97161   0.00000  Uiso   1.00
N1119  N     0.16665   0.16666   0.95240   0.00000  Uiso   1.00
N1120  N     0.16668   0.16668   0.71427   0.00000  Uiso   1.00
N1121  N     0.23520   0.21928   0.95923   0.00000  Uiso   1.00
N1122  N     0.09240   0.11724   0.70372   0.00000  Uiso   1.00
O1123  O     0.16666   0.10558   0.87154   0.00000  Uiso   1.00
O1124  O     0.29773   0.02158   0.79293   0.00000  Uiso   1.00
O1125  O     0.05614   0.25793   0.83246   0.00000  Uiso   1.00
O1126  O     0.03630   0.31174   0.87576   0.00000  Uiso   1.00
O1127  O     0.28151   0.21360   0.73311   0.00000  Uiso   1.00
O1128  O     0.21731   0.26228   0.72983   0.00000  Uiso   1.00
O1129  O     0.06547   0.11096   0.92174   0.00000  Uiso   1.00
O1130  O     0.12686   0.06426   0.95250   0.00000  Uiso   1.00
O1131  O     0.16667   0.22775   0.79513   0.00000  Uiso   1.00
O1132  O     0.16666   0.10559   0.79510   0.00000  Uiso   1.00
O1133  O     0.16667   0.22774   0.87157   0.00000  Uiso   1.00
O1134  O     0.09058   0.16666   0.86261   0.00000  Uiso   1.00
O1135  O     0.24275   0.16667   0.80405   0.00000  Uiso   1.00
O1136  O     0.09058   0.16667   0.78617   0.00000  Uiso   1.00
O1137  O     0.24275   0.16666   0.88050   0.00000  Uiso   1.00
O1138  O     0.27740   0.07529   0.83615   0.00000  Uiso   1.00
Zn1139 Zn    0.16667   0.16666   0.88437   0.00000  Uiso   1.00
Zn1140 Zn    0.16667   0.16667   0.78229   0.00000  Uiso   1.00
C1141  C     0.50158   0.08694   0.83377   0.00000  Uiso   1.00
C1142  C     0.45661   0.02238   0.84327   0.00000  Uiso   1.00
C1143  C     0.49735   0.29060   0.83246   0.00000  Uiso   1.00
C1144  C     0.50256   0.04274   0.83471   0.00000  Uiso   1.00
C1145  C     0.53339   0.19274   0.69419   0.00000  Uiso   1.00
C1146  C     0.46823   0.13956   0.97238   0.00000  Uiso   1.00
C1147  C     0.53270   0.19325   0.97945   0.00000  Uiso   1.00
C1148  C     0.46558   0.14142   0.68631   0.00000  Uiso   1.00
C1149  C     0.59756   0.04155   0.81866   0.00000  Uiso   1.00
C1150  C     0.40279   0.29174   0.84972   0.00000  Uiso   1.00
C1151  C     0.56869   0.22237   0.72160   0.00000  Uiso   1.00
C1152  C     0.49825   0.24640   0.83295   0.00000  Uiso   1.00
C1153  C     0.44039   0.10487   0.94625   0.00000  Uiso   1.00
C1154  C     0.55580   0.26345   0.95472   0.00000  Uiso   1.00
C1155  C     0.37146   0.12778   0.68729   0.00000  Uiso   1.00
C1156  C     0.40056   0.16547   0.82158   0.00000  Uiso   1.00
C1157  C     0.59946   0.16761   0.84519   0.00000  Uiso   1.00
C1158  C     0.34548   0.16306   0.81579   0.00000  Uiso   1.00
C1159  C     0.65459   0.16931   0.85145   0.00000  Uiso   1.00
C1160  C     0.54706   0.02088   0.82579   0.00000  Uiso   1.00
C1161  C     0.45309   0.31245   0.84205   0.00000  Uiso   1.00
C1162  C     0.54370   0.31096   0.82503   0.00000  Uiso   1.00
H1163  H     0.65820   0.15545   0.78255   0.00000  Uiso   1.00
H1164  H     0.51251   0.26820   0.95015   0.00000  Uiso   1.00
H1165  H     0.57143   0.27669   0.92477   0.00000  Uiso   1.00
H1166  H     0.57466   0.28100   0.98479   0.00000  Uiso   1.00
H1167  H     0.43232   0.10706   0.73655   0.00000  Uiso   1.00
H1168  H     0.35186   0.13877   0.71551   0.00000  Uiso   1.00
H1169  H     0.35017   0.09935   0.67268   0.00000  Uiso   1.00
H1170  H     0.36833   0.15305   0.99441   0.00000  Uiso   1.00
H1171  H     0.34168   0.17636   0.88509   0.00000  Uiso   1.00
H1172  H     0.57781   0.29277   0.82025   0.00000  Uiso   1.00
H1173  H     0.42300   0.04058   0.84941   0.00000  Uiso   1.00
H1174  H     0.66448   0.03845   0.79088   0.00000  Uiso   1.00
H1175  H     0.33632   0.29485   0.87817   0.00000  Uiso   1.00
H1176  H     0.58010   0.28164   0.74386   0.00000  Uiso   1.00
H1177  H     0.43657   0.04250   0.93487   0.00000  Uiso   1.00
H1178  H     0.60757   0.21420   0.97161   0.00000  Uiso   1.00
N1179  N     0.49999   0.16666   0.95240   0.00000  Uiso   1.00
N1180  N     0.50001   0.16668   0.71427   0.00000  Uiso   1.00
N1181  N     0.56853   0.21928   0.95923   0.00000  Uiso   1.00
N1182  N     0.42573   0.11724   0.70372   0.00000  Uiso   1.00
O1183  O     0.50000   0.10558   0.87154   0.00000  Uiso   1.00
O1184  O     0.63107   0.02158   0.79293   0.00000  Uiso   1.00
O1185  O     0.38947   0.25793   0.83246   0.00000  Uiso   1.00
O1186  O     0.36963   0.31174   0.87576   0.00000  Uiso   1.00
O1187  O     0.61484   0.21360   0.73311   0.00000  Uiso   1.00
O1188  O     0.55064   0.26228   0.72983   0.00000  Uiso   1.00
O1189  O     0.39881   0.11096   0.92174   0.00000  Uiso   1.00
O1190  O     0.46019   0.06426   0.95250   0.00000  Uiso   1.00
O1191  O     0.50000   0.22775   0.79513   0.00000  Uiso   1.00
O1192  O     0.50000   0.10559   0.79510   0.00000  Uiso   1.00
O1193  O     0.50000   0.22774   0.87157   0.00000  Uiso   1.00
O1194  O     0.42392   0.16666   0.86261   0.00000  Uiso   1.00
O1195  O     0.57608   0.16667   0.80405   0.00000  Uiso   1.00
O1196  O     0.42392   0.16667   0.78617   0.00000  Uiso   1.00
O1197  O     0.57608   0.16666   0.88050   0.00000  Uiso   1.00
O1198  O     0.61073   0.07529   0.83615   0.00000  Uiso   1.00
Zn1199 Zn    0.50000   0.16666   0.88437   0.00000  Uiso   1.00
Zn1200 Zn    0.50000   0.16667   0.78229   0.00000  Uiso   1.00
C1201  C     0.83492   0.08694   0.83377   0.00000  Uiso   1.00
C1202  C     0.78995   0.02238   0.84327   0.00000  Uiso   1.00
C1203  C     0.83068   0.29060   0.83246   0.00000  Uiso   1.00
C1204  C     0.83589   0.04274   0.83471   0.00000  Uiso   1.00
C1205  C     0.86673   0.19274   0.69419   0.00000  Uiso   1.00
C1206  C     0.80157   0.13956   0.97238   0.00000  Uiso   1.00
C1207  C     0.86603   0.19325   0.97945   0.00000  Uiso   1.00
C1208  C     0.79892   0.14142   0.68631   0.00000  Uiso   1.00
C1209  C     0.93089   0.04155   0.81866   0.00000  Uiso   1.00
C1210  C     0.73612   0.29174   0.84972   0.00000  Uiso   1.00
C1211  C     0.90202   0.22237   0.72160   0.00000  Uiso   1.00
C1212  C     0.83158   0.24640   0.83295   0.00000  Uiso   1.00
C1213  C     0.77372   0.10487   0.94625   0.00000  Uiso   1.00
C1214  C     0.88913   0.26345   0.95472   0.00000  Uiso   1.00
C1215  C     0.70480   0.12778   0.68729   0.00000  Uiso   1.00
C1216  C     0.73389   0.16547   0.82158   0.00000  Uiso   1.00
C1217  C     0.93279   0.16761   0.84519   0.00000  Uiso   1.00
C1218  C     0.67881   0.16306   0.81579   0.00000  Uiso   1.00
C1219  C     0.98793   0.16931   0.85145   0.00000  Uiso   1.00
C1220  C     0.88039   0.02088   0.82579   0.00000  Uiso   1.00
C1221  C     0.78642   0.31245   0.84205   0.00000  Uiso   1.00
C1222  C     0.87704   0.31096   0.82503   0.00000  Uiso   1.00
H1223  H     0.99153   0.15545   0.78255   0.00000  Uiso   1.00
H1224  H     0.84585   0.26820   0.95015   0.00000  Uiso   1.00
H1225  H     0.90477   0.27669   0.92477   0.00000  Uiso   1.00
H1226  H     0.90799   0.28100   0.98479   0.00000  Uiso   1.00
H1227  H     0.76565   0.10706   0.73655   0.00000  Uiso   1.00
H1228  H     0.68520   0.13877   0.71551   0.00000  Uiso   1.00
H1229  H     0.68351   0.09935   0.67268   0.00000  Uiso   1.00
H1230  H     0.70166   0.15305   0.99441   0.00000  Uiso   1.00
H1231  H     0.67502   0.17636   0.88509   0.00000  Uiso   1.00
H1232  H     0.91114   0.29277   0.82025   0.00000  Uiso   1.00
H1233  H     0.75633   0.04058   0.84941   0.00000  Uiso   1.00
H1234  H     0.99781   0.03845   0.79088   0.00000  Uiso   1.00
H1235  H     0.66965   0.29485   0.87817   0.00000  Uiso   1.00
H1236  H     0.91344   0.28164   0.74386   0.00000  Uiso   1.00
H1237  H     0.76990   0.04250   0.93487   0.00000  Uiso   1.00
H1238  H     0.94091   0.21420   0.97161   0.00000  Uiso   1.00
N1239  N     0.83332   0.16666   0.95240   0.00000  Uiso   1.00
N1240  N     0.83335   0.16668   0.71427   0.00000  Uiso   1.00
N1241  N     0.90186   0.21928   0.95923   0.00000  Uiso   1.00
N1242  N     0.75906   0.11724   0.70372   0.00000  Uiso   1.00
O1243  O     0.83333   0.10558   0.87154   0.00000  Uiso   1.00
O1244  O     0.96440   0.02158   0.79293   0.00000  Uiso   1.00
O1245  O     0.72281   0.25793   0.83246   0.00000  Uiso   1.00
O1246  O     0.70297   0.31174   0.87576   0.00000  Uiso   1.00
O1247  O     0.94818   0.21360   0.73311   0.00000  Uiso   1.00
O1248  O     0.88398   0.26228   0.72983   0.00000  Uiso   1.00
O1249  O     0.73214   0.11096   0.92174   0.00000  Uiso   1.00
O1250  O     0.79353   0.06426   0.95250   0.00000  Uiso   1.00
O1251  O     0.83334   0.22775   0.79513   0.00000  Uiso   1.00
O1252  O     0.83333   0.10559   0.79510   0.00000  Uiso   1.00
O1253  O     0.83334   0.22774   0.87157   0.00000  Uiso   1.00
O1254  O     0.75725   0.16666   0.86261   0.00000  Uiso   1.00
O1255  O     0.90942   0.16667   0.80405   0.00000  Uiso   1.00
O1256  O     0.75725   0.16667   0.78617   0.00000  Uiso   1.00
O1257  O     0.90942   0.16666   0.88050   0.00000  Uiso   1.00
O1258  O     0.94407   0.07529   0.83615   0.00000  Uiso   1.00
Zn1259 Zn    0.83333   0.16666   0.88437   0.00000  Uiso   1.00
Zn1260 Zn    0.83333   0.16667   0.78229   0.00000  Uiso   1.00
C1261  C     0.16825   0.42027   0.83377   0.00000  Uiso   1.00
C1262  C     0.12328   0.35571   0.84327   0.00000  Uiso   1.00
C1263  C     0.16402   0.62394   0.83246   0.00000  Uiso   1.00
C1264  C     0.16923   0.37608   0.83471   0.00000  Uiso   1.00
C1265  C     0.20006   0.52607   0.69419   0.00000  Uiso   1.00
C1266  C     0.13490   0.47289   0.97238   0.00000  Uiso   1.00
C1267  C     0.19937   0.52658   0.97945   0.00000  Uiso   1.00
C1268  C     0.13225   0.47476   0.68631   0.00000  Uiso   1.00
C1269  C     0.26423   0.37488   0.81866   0.00000  Uiso   1.00
C1270  C     0.06945   0.62508   0.84972   0.00000  Uiso   1.00
C1271  C     0.23535   0.55571   0.72160   0.00000  Uiso   1.00
C1272  C     0.16492   0.57973   0.83295   0.00000  Uiso   1.00
C1273  C     0.10705   0.43820   0.94625   0.00000  Uiso   1.00
C1274  C     0.22246   0.59679   0.95472   0.00000  Uiso   1.00
C1275  C     0.03813   0.46111   0.68729   0.00000  Uiso   1.00
C1276  C     0.06723   0.49880   0.82158   0.00000  Uiso   1.00
C1277  C     0.26612   0.50094   0.84519   0.00000  Uiso   1.00
C1278  C     0.01214   0.49639   0.81579   0.00000  Uiso   1.00
C1279  C     0.32126   0.50264   0.85145   0.00000  Uiso   1.00
C1280  C     0.21373   0.35421   0.82579   0.00000  Uiso   1.00
C1281  C     0.11976   0.64578   0.84205   0.00000  Uiso   1.00
C1282  C     0.21037   0.64430   0.82503   0.00000  Uiso   1.00
H1283  H     0.32487   0.48878   0.78255   0.00000  Uiso   1.00
H1284  H     0.17918   0.60153   0.95015   0.00000  Uiso   1.00
H1285  H     0.23810   0.61002   0.92477   0.00000  Uiso   1.00
H1286  H     0.24133   0.61434   0.98479   0.00000  Uiso   1.00
H1287  H     0.09899   0.44040   0.73655   0.00000  Uiso   1.00
H1288  H     0.01853   0.47211   0.71551   0.00000  Uiso   1.00
H1289  H     0.01684   0.43268   0.67268   0.00000  Uiso   1.00
H1290  H     0.03500   0.48638   0.99441   0.00000  Uiso   1.00
H1291  H     0.00835   0.50970   0.88509   0.00000  Uiso   1.00
H1292  H     0.24447   0.62611   0.82025   0.00000  Uiso   1.00
H1293  H     0.08967   0.37392   0.84941   0.00000  Uiso   1.00
H1294  H     0.33115   0.37179   0.79088   0.00000  Uiso   1.00
H1295  H     0.00299   0.62819   0.87817   0.00000  Uiso   1.00
H1296  H     0.24677   0.61497   0.74386   0.00000  Uiso   1.00
H1297  H     0.10323   0.37583   0.93487   0.00000  Uiso   1.00
H1298  H     0.27424   0.54753   0.97161   0.00000  Uiso   1.00
N1299  N     0.16665   0.49999   0.95240   0.00000  Uiso   1.00
N1300  N     0.16668   0.50001   0.71427   0.00000  Uiso   1.00
N1301  N     0.23520   0.55262   0.95923   0.00000  Uiso   1.00
N1302  N     0.09240   0.45057   0.70372   0.00000  Uiso   1.00
O1303  O     0.16666   0.43892   0.87154   0.00000  Uiso   1.00
O1304  O     0.29773   0.35492   0.79293   0.00000  Uiso   1.00
O1305  O     0.05614   0.59126   0.83246   0.00000  Uiso   1.00
O1306  O     0.03630   0.64507   0.87576   0.00000  Uiso   1.00
O1307  O     0.28151   0.54693   0.73311   0.00000  Uiso   1.00
O1308  O     0.21731   0.59562   0.72983   0.00000  Uiso   1.00
O1309  O     0.06547   0.44429   0.92174   0.00000  Uiso   1.00
O1310  O     0.12686   0.39760   0.95250   0.00000  Uiso   1.00
O1311  O     0.16667   0.56108   0.79513   0.00000  Uiso   1.00
O1312  O     0.16666   0.43893   0.79510   0.00000  Uiso   1.00
O1313  O     0.16667   0.56107   0.87157   0.00000  Uiso   1.00
O1314  O     0.09058   0.50000   0.86261   0.00000  Uiso   1.00
O1315  O     0.24275   0.50000   0.80405   0.00000  Uiso   1.00
O1316  O     0.09058   0.50000   0.78617   0.00000  Uiso   1.00
O1317  O     0.24275   0.50000   0.88050   0.00000  Uiso   1.00
O1318  O     0.27740   0.40862   0.83615   0.00000  Uiso   1.00
Zn1319 Zn    0.16667   0.49999   0.88437   0.00000  Uiso   1.00
Zn1320 Zn    0.16667   0.50001   0.78229   0.00000  Uiso   1.00
C1321  C     0.50158   0.42027   0.83377   0.00000  Uiso   1.00
C1322  C     0.45661   0.35571   0.84327   0.00000  Uiso   1.00
C1323  C     0.49735   0.62394   0.83246   0.00000  Uiso   1.00
C1324  C     0.50256   0.37608   0.83471   0.00000  Uiso   1.00
C1325  C     0.53339   0.52607   0.69419   0.00000  Uiso   1.00
C1326  C     0.46823   0.47289   0.97238   0.00000  Uiso   1.00
C1327  C     0.53270   0.52658   0.97945   0.00000  Uiso   1.00
C1328  C     0.46558   0.47476   0.68631   0.00000  Uiso   1.00
C1329  C     0.59756   0.37488   0.81866   0.00000  Uiso   1.00
C1330  C     0.40279   0.62508   0.84972   0.00000  Uiso   1.00
C1331  C     0.56869   0.55571   0.72160   0.00000  Uiso   1.00
C1332  C     0.49825   0.57973   0.83295   0.00000  Uiso   1.00
C1333  C     0.44039   0.43820   0.94625   0.00000  Uiso   1.00
C1334  C     0.55580   0.59679   0.95472   0.00000  Uiso   1.00
C1335  C     0.37146   0.46111   0.68729   0.00000  Uiso   1.00
C1336  C     0.40056   0.49880   0.82158   0.00000  Uiso   1.00
C1337  C     0.59946   0.50094   0.84519   0.00000  Uiso   1.00
C1338  C     0.34548   0.49639   0.81579   0.00000  Uiso   1.00
C1339  C     0.65459   0.50264   0.85145   0.00000  Uiso   1.00
C1340  C     0.54706   0.35421   0.82579   0.00000  Uiso   1.00
C1341  C     0.45309   0.64578   0.84205   0.00000  Uiso   1.00
C1342  C     0.54370   0.64430   0.82503   0.00000  Uiso   1.00
H1343  H     0.65820   0.48878   0.78255   0.00000  Uiso   1.00
H1344  H     0.51251   0.60153   0.95015   0.00000  Uiso   1.00
H1345  H     0.57143   0.61002   0.92477   0.00000  Uiso   1.00
H1346  H     0.57466   0.61434   0.98479   0.00000  Uiso   1.00
H1347  H     0.43232   0.44040   0.73655   0.00000  Uiso   1.00
H1348  H     0.35186   0.47211   0.71551   0.00000  Uiso   1.00
H1349  H     0.35017   0.43268   0.67268   0.00000  Uiso   1.00
H1350  H     0.36833   0.48638   0.99441   0.00000  Uiso   1.00
H1351  H     0.34168   0.50970   0.88509   0.00000  Uiso   1.00
H1352  H     0.57781   0.62611   0.82025   0.00000  Uiso   1.00
H1353  H     0.42300   0.37392   0.84941   0.00000  Uiso   1.00
H1354  H     0.66448   0.37179   0.79088   0.00000  Uiso   1.00
H1355  H     0.33632   0.62819   0.87817   0.00000  Uiso   1.00
H1356  H     0.58010   0.61497   0.74386   0.00000  Uiso   1.00
H1357  H     0.43657   0.37583   0.93487   0.00000  Uiso   1.00
H1358  H     0.60757   0.54753   0.97161   0.00000  Uiso   1.00
N1359  N     0.49999   0.49999   0.95240   0.00000  Uiso   1.00
N1360  N     0.50001   0.50001   0.71427   0.00000  Uiso   1.00
N1361  N     0.56853   0.55262   0.95923   0.00000  Uiso   1.00
N1362  N     0.42573   0.45057   0.70372   0.00000  Uiso   1.00
O1363  O     0.50000   0.43892   0.87154   0.00000  Uiso   1.00
O1364  O     0.63107   0.35492   0.79293   0.00000  Uiso   1.00
O1365  O     0.38947   0.59126   0.83246   0.00000  Uiso   1.00
O1366  O     0.36963   0.64507   0.87576   0.00000  Uiso   1.00
O1367  O     0.61484   0.54693   0.73311   0.00000  Uiso   1.00
O1368  O     0.55064   0.59562   0.72983   0.00000  Uiso   1.00
O1369  O     0.39881   0.44429   0.92174   0.00000  Uiso   1.00
O1370  O     0.46019   0.39760   0.95250   0.00000  Uiso   1.00
O1371  O     0.50000   0.56108   0.79513   0.00000  Uiso   1.00
O1372  O     0.50000   0.43893   0.79510   0.00000  Uiso   1.00
O1373  O     0.50000   0.56107   0.87157   0.00000  Uiso   1.00
O1374  O     0.42392   0.50000   0.86261   0.00000  Uiso   1.00
O1375  O     0.57608   0.50000   0.80405   0.00000  Uiso   1.00
O1376  O     0.42392   0.50000   0.78617   0.00000  Uiso   1.00
O1377  O     0.57608   0.50000   0.88050   0.00000  Uiso   1.00
O1378  O     0.61073   0.40862   0.83615   0.00000  Uiso   1.00
Zn1379 Zn    0.50000   0.49999   0.88437   0.00000  Uiso   1.00
Zn1380 Zn    0.50000   0.50001   0.78229   0.00000  Uiso   1.00
C1381  C     0.83492   0.42027   0.83377   0.00000  Uiso   1.00
C1382  C     0.78995   0.35571   0.84327   0.00000  Uiso   1.00
C1383  C     0.83068   0.62394   0.83246   0.00000  Uiso   1.00
C1384  C     0.83589   0.37608   0.83471   0.00000  Uiso   1.00
C1385  C     0.86673   0.52607   0.69419   0.00000  Uiso   1.00
C1386  C     0.80157   0.47289   0.97238   0.00000  Uiso   1.00
C1387  C     0.86603   0.52658   0.97945   0.00000  Uiso   1.00
C1388  C     0.79892   0.47476   0.68631   0.00000  Uiso   1.00
C1389  C     0.93089   0.37488   0.81866   0.00000  Uiso   1.00
C1390  C     0.73612   0.62508   0.84972   0.00000  Uiso   1.00
C1391  C     0.90202   0.55571   0.72160   0.00000  Uiso   1.00
C1392  C     0.83158   0.57973   0.83295   0.00000  Uiso   1.00
C1393  C     0.77372   0.43820   0.94625   0.00000  Uiso   1.00
C1394  C     0.88913   0.59679   0.95472   0.00000  Uiso   1.00
C1395  C     0.70480   0.46111   0.68729   0.00000  Uiso   1.00
C1396  C     0.73389   0.49880   0.82158   0.00000  Uiso   1.00
C1397  C     0.93279   0.50094   0.84519   0.00000  Uiso   1.00
C1398  C     0.67881   0.49639   0.81579   0.00000  Uiso   1.00
C1399  C     0.98793   0.50264   0.85145   0.00000  Uiso   1.00
C1400  C     0.88039   0.35421   0.82579   0.00000  Uiso   1.00
C1401  C     0.78642   0.64578   0.84205   0.00000  Uiso   1.00
C1402  C     0.87704   0.64430   0.82503   0.00000  Uiso   1.00
H1403  H     0.99153   0.48878   0.78255   0.00000  Uiso   1.00
H1404  H     0.84585   0.60153   0.95015   0.00000  Uiso   1.00
H1405  H     0.90477   0.61002   0.92477   0.00000  Uiso   1.00
H1406  H     0.90799   0.61434   0.98479   0.00000  Uiso   1.00
H1407  H     0.76565   0.44040   0.73655   0.00000  Uiso   1.00
H1408  H     0.68520   0.47211   0.71551   0.00000  Uiso   1.00
H1409  H     0.68351   0.43268   0.67268   0.00000  Uiso   1.00
H1410  H     0.70166   0.48638   0.99441   0.00000  Uiso   1.00
H1411  H     0.67502   0.50970   0.88509   0.00000  Uiso   1.00
H1412  H     0.91114   0.62611   0.82025   0.00000  Uiso   1.00
H1413  H     0.75633   0.37392   0.84941   0.00000  Uiso   1.00
H1414  H     0.99781   0.37179   0.79088   0.00000  Uiso   1.00
H1415  H     0.66965   0.62819   0.87817   0.00000  Uiso   1.00
H1416  H     0.91344   0.61497   0.74386   0.00000  Uiso   1.00
H1417  H     0.76990   0.37583   0.93487   0.00000  Uiso   1.00
H1418  H     0.94091   0.54753   0.97161   0.00000  Uiso   1.00
N1419  N     0.83332   0.49999   0.95240   0.00000  Uiso   1.00
N1420  N     0.83335   0.50001   0.71427   0.00000  Uiso   1.00
N1421  N     0.90186   0.55262   0.95923   0.00000  Uiso   1.00
N1422  N     0.75906   0.45057   0.70372   0.00000  Uiso   1.00
O1423  O     0.83333   0.43892   0.87154   0.00000  Uiso   1.00
O1424  O     0.96440   0.35492   0.79293   0.00000  Uiso   1.00
O1425  O     0.72281   0.59126   0.83246   0.00000  Uiso   1.00
O1426  O     0.70297   0.64507   0.87576   0.00000  Uiso   1.00
O1427  O     0.94818   0.54693   0.73311   0.00000  Uiso   1.00
O1428  O     0.88398   0.59562   0.72983   0.00000  Uiso   1.00
O1429  O     0.73214   0.44429   0.92174   0.00000  Uiso   1.00
O1430  O     0.79353   0.39760   0.95250   0.00000  Uiso   1.00
O1431  O     0.83334   0.56108   0.79513   0.00000  Uiso   1.00
O1432  O     0.83333   0.43893   0.79510   0.00000  Uiso   1.00
O1433  O     0.83334   0.56107   0.87157   0.00000  Uiso   1.00
O1434  O     0.75725   0.50000   0.86261   0.00000  Uiso   1.00
O1435  O     0.90942   0.50000   0.80405   0.00000  Uiso   1.00
O1436  O     0.75725   0.50000   0.78617   0.00000  Uiso   1.00
O1437  O     0.90942   0.50000   0.88050   0.00000  Uiso   1.00
O1438  O     0.94407   0.40862   0.83615   0.00000  Uiso   1.00
Zn1439 Zn    0.83333   0.49999   0.88437   0.00000  Uiso   1.00
Zn1440 Zn    0.83333   0.50001   0.78229   0.00000  Uiso   1.00
C1441  C     0.16825   0.75360   0.83377   0.00000  Uiso   1.00
C1442  C     0.12328   0.68905   0.84327   0.00000  Uiso   1.00
C1443  C     0.16402   0.95727   0.83246   0.00000  Uiso   1.00
C1444  C     0.16923   0.70941   0.83471   0.00000  Uiso   1.00
C1445  C     0.20006   0.85940   0.69419   0.00000  Uiso   1.00
C1446  C     0.13490   0.80622   0.97238   0.00000  Uiso   1.00
C1447  C     0.19937   0.85992   0.97945   0.00000  Uiso   1.00
C1448  C     0.13225   0.80809   0.68631   0.00000  Uiso   1.00
C1449  C     0.26423   0.70821   0.81866   0.00000  Uiso   1.00
C1450  C     0.06945   0.95841   0.84972   0.00000  Uiso   1.00
C1451  C     0.23535   0.88904   0.72160   0.00000  Uiso   1.00
C1452  C     0.16492   0.91306   0.83295   0.00000  Uiso   1.00
C1453  C     0.10705   0.77154   0.94625   0.00000  Uiso   1.00
C1454  C     0.22246   0.93012   0.95472   0.00000  Uiso   1.00
C1455  C     0.03813   0.79444   0.68729   0.00000  Uiso   1.00
C1456  C     0.06723   0.83213   0.82158   0.00000  Uiso   1.00
C1457  C     0.26612   0.83427   0.84519   0.00000  Uiso   1.00
C1458  C     0.01214   0.82972   0.81579   0.00000  Uiso   1.00
C1459  C     0.32126   0.83597   0.85145   0.00000  Uiso   1.00
C1460  C     0.21373   0.68755   0.82579   0.00000  Uiso   1.00
C1461  C     0.11976   0.97911   0.84205   0.00000  Uiso   1.00
C1462  C     0.21037   0.97763   0.82503   0.00000  Uiso   1.00
H1463  H     0.32487   0.82212   0.78255   0.00000  Uiso   1.00
H1464  H     0.17918   0.93487   0.95015   0.00000  Uiso   1.00
H1465  H     0.23810   0.94336   0.92477   0.00000  Uiso   1.00
H1466  H     0.24133   0.94767   0.98479   0.00000  Uiso   1.00
H1467  H     0.09899   0.77373   0.73655   0.00000  Uiso   1.00
H1468  H     0.01853   0.80544   0.71551   0.00000  Uiso   1.00
H1469  H     0.01684   0.76602   0.67268   0.00000  Uiso   1.00
H1470  H     0.03500   0.81972   0.99441   0.00000  Uiso   1.00
H1471  H     0.00835   0.84303   0.88509   0.00000  Uiso   1.00
H1472  H     0.24447   0.95944   0.82025   0.00000  Uiso   1.00
H1473  H     0.08967   0.70725   0.84941   0.00000  Uiso   1.00
H1474  H     0.33115   0.70512   0.79088   0.00000  Uiso   1.00
H1475  H     0.00299   0.96152   0.87817   0.00000  Uiso   1.00
H1476  H     0.24677   0.94831   0.74386   0.00000  Uiso   1.00
H1477  H     0.10323   0.70916   0.93487   0.00000  Uiso   1.00
H1478  H     0.27424   0.88086   0.97161   0.00000  Uiso   1.00
N1479  N     0.16665   0.83332   0.95240   0.00000  Uiso   1.00
N1480  N     0.16668   0.83334   0.71427   0.00000  Uiso   1.00
N1481  N     0.23520   0.88595   0.95923   0.00000  Uiso   1.00
N1482  N     0.09240   0.78391   0.70372   0.00000  Uiso   1.00
O1483  O     0.16666   0.77225   0.87154   0.00000  Uiso   1.00
O1484  O     0.29773   0.68825   0.79293   0.00000  Uiso   1.00
O1485  O     0.05614   0.92460   0.83246   0.00000  Uiso   1.00
O1486  O     0.03630   0.97841   0.87576   0.00000  Uiso   1.00
O1487  O     0.28151   0.88027   0.73311   0.00000  Uiso   1.00
O1488  O     0.21731   0.92895   0.72983   0.00000  Uiso   1.00
O1489  O     0.06547   0.77762   0.92174   0.00000  Uiso   1.00
O1490  O     0.12686   0.73093   0.95250   0.00000  Uiso   1.00
O1491  O     0.16667   0.89442   0.79513   0.00000  Uiso   1.00
O1492  O     0.16666   0.77226   0.79510   0.00000  Uiso   1.00
O1493  O     0.16667   0.89441   0.87157   0.00000  Uiso   1.00
O1494  O     0.09058   0.83333   0.86261   0.00000  Uiso   1.00
O1495  O     0.24275   0.83334   0.80405   0.00000  Uiso   1.00
O1496  O     0.09058   0.83334   0.78617   0.00000  Uiso   1.00
O1497  O     0.24275   0.83333   0.88050   0.00000  Uiso   1.00
O1498  O     0.27740   0.74195   0.83615   0.00000  Uiso   1.00
Zn1499 Zn    0.16667   0.83333   0.88437   0.00000  Uiso   1.00
Zn1500 Zn    0.16667   0.83334   0.78229   0.00000  Uiso   1.00
C1501  C     0.50158   0.75360   0.83377   0.00000  Uiso   1.00
C1502  C     0.45661   0.68905   0.84327   0.00000  Uiso   1.00
C1503  C     0.49735   0.95727   0.83246   0.00000  Uiso   1.00
C1504  C     0.50256   0.70941   0.83471   0.00000  Uiso   1.00
C1505  C     0.53339   0.85940   0.69419   0.00000  Uiso   1.00
C1506  C     0.46823   0.80622   0.97238   0.00000  Uiso   1.00
C1507  C     0.53270   0.85992   0.97945   0.00000  Uiso   1.00
C1508  C     0.46558   0.80809   0.68631   0.00000  Uiso   1.00
C1509  C     0.59756   0.70821   0.81866   0.00000  Uiso   1.00
C1510  C     0.40279   0.95841   0.84972   0.00000  Uiso   1.00
C1511  C     0.56869   0.88904   0.72160   0.00000  Uiso   1.00
C1512  C     0.49825   0.91306   0.83295   0.00000  Uiso   1.00
C1513  C     0.44039   0.77154   0.94625   0.00000  Uiso   1.00
C1514  C     0.55580   0.93012   0.95472   0.00000  Uiso   1.00
C1515  C     0.37146   0.79444   0.68729   0.00000  Uiso   1.00
C1516  C     0.40056   0.83213   0.82158   0.00000  Uiso   1.00
C1517  C     0.59946   0.83427   0.84519   0.00000  Uiso   1.00
C1518  C     0.34548   0.82972   0.81579   0.00000  Uiso   1.00
C1519  C     0.65459   0.83597   0.85145   0.00000  Uiso   1.00
C1520  C     0.54706   0.68755   0.82579   0.00000  Uiso   1.00
C1521  C     0.45309   0.97911   0.84205   0.00000  Uiso   1.00
C1522  C     0.54370   0.97763   0.82503   0.00000  Uiso   1.00
H1523  H     0.65820   0.82212   0.78255   0.00000  Uiso   1.00
H1524  H     0.51251   0.93487   0.95015   0.00000  Uiso   1.00
H1525  H     0.57143   0.94336   0.92477   0.00000  Uiso   1.00
H1526  H     0.57466   0.94767   0.98479   0.00000  Uiso   1.00
H1527  H     0.43232   0.77373   0.73655   0.00000  Uiso   1.00
H1528  H     0.35186   0.80544   0.71551   0.00000  Uiso   1.00
H1529  H     0.35017   0.76602   0.67268   0.00000  Uiso   1.00
H1530  H     0.36833   0.81972   0.99441   0.00000  Uiso   1.00
H1531  H     0.34168   0.84303   0.88509   0.00000  Uiso   1.00
H1532  H     0.57781   0.95944   0.82025   0.00000  Uiso   1.00
H1533  H     0.42300   0.70725   0.84941   0.00000  Uiso   1.00
H1534  H     0.66448   0.70512   0.79088   0.00000  Uiso   1.00
H1535  H     0.33632   0.96152   0.87817   0.00000  Uiso   1.00
H1536  H     0.58010   0.94831   0.74386   0.00000  Uiso   1.00
H1537  H     0.43657   0.70916   0.93487   0.00000  Uiso   1.00
H1538  H     0.60757   0.88086   0.97161   0.00000  Uiso   1.00
N1539  N     0.49999   0.83332   0.95240   0.00000  Uiso   1.00
N1540  N     0.50001   0.83334   0.71427   0.00000  Uiso   1.00
N1541  N     0.56853   0.88595   0.95923   0.00000  Uiso   1.00
N1542  N     0.42573   0.78391   0.70372   0.00000  Uiso   1.00
O1543  O     0.50000   0.77225   0.87154   0.00000  Uiso   1.00
O1544  O     0.63107   0.68825   0.79293   0.00000  Uiso   1.00
O1545  O     0.38947   0.92460   0.83246   0.00000  Uiso   1.00
O1546  O     0.36963   0.97841   0.87576   0.00000  Uiso   1.00
O1547  O     0.61484   0.88027   0.73311   0.00000  Uiso   1.00
O1548  O     0.55064   0.92895   0.72983   0.00000  Uiso   1.00
O1549  O     0.39881   0.77762   0.92174   0.00000  Uiso   1.00
O1550  O     0.46019   0.73093   0.95250   0.00000  Uiso   1.00
O1551  O     0.50000   0.89442   0.79513   0.00000  Uiso   1.00
O1552  O     0.50000   0.77226   0.79510   0.00000  Uiso   1.00
O1553  O     0.50000   0.89441   0.87157   0.00000  Uiso   1.00
O1554  O     0.42392   0.83333   0.86261   0.00000  Uiso   1.00
O1555  O     0.57608   0.83334   0.80405   0.00000  Uiso   1.00
O1556  O     0.42392   0.83334   0.78617   0.00000  Uiso   1.00
O1557  O     0.57608   0.83333   0.88050   0.00000  Uiso   1.00
O1558  O     0.61073   0.74195   0.83615   0.00000  Uiso   1.00
Zn1559 Zn    0.50000   0.83333   0.88437   0.00000  Uiso   1.00
Zn1560 Zn    0.50000   0.83334   0.78229   0.00000  Uiso   1.00
C1561  C     0.83492   0.75360   0.83377   0.00000  Uiso   1.00
C1562  C     0.78995   0.68905   0.84327   0.00000  Uiso   1.00
C1563  C     0.83068   0.95727   0.83246   0.00000  Uiso   1.00
C1564  C     0.83589   0.70941   0.83471   0.00000  Uiso   1.00
C1565  C     0.86673   0.85940   0.69419   0.00000  Uiso   1.00
C1566  C     0.80157   0.80622   0.97238   0.00000  Uiso   1.00
C1567  C     0.86603   0.85992   0.97945   0.00000  Uiso   1.00
C1568  C     0.79892   0.80809   0.68631   0.00000  Uiso   1.00
C1569  C     0.93089   0.70821   0.81866   0.00000  Uiso   1.00
C1570  C     0.73612   0.95841   0.84972   0.00000  Uiso   1.00
C1571  C     0.90202   0.88904   0.72160   0.00000  Uiso   1.00
C1572  C     0.83158   0.91306   0.83295   0.00000  Uiso   1.00
C1573  C     0.77372   0.77154   0.94625   0.00000  Uiso   1.00
C1574  C     0.88913   0.93012   0.95472   0.00000  Uiso   1.00
C1575  C     0.70480   0.79444   0.68729   0.00000  Uiso   1.00
C1576  C     0.73389   0.83213   0.82158   0.00000  Uiso   1.00
C1577  C     0.93279   0.83427   0.84519   0.00000  Uiso   1.00
C1578  C     0.67881   0.82972   0.81579   0.00000  Uiso   1.00
C1579  C     0.98793   0.83597   0.85145   0.00000  Uiso   1.00
C1580  C     0.88039   0.68755   0.82579   0.00000  Uiso   1.00
C1581  C     0.78642   0.97911   0.84205   0.00000  Uiso   1.00
C1582  C     0.87704   0.97763   0.82503   0.00000  Uiso   1.00
H1583  H     0.99153   0.82212   0.78255   0.00000  Uiso   1.00
H1584  H     0.84585   0.93487   0.95015   0.00000  Uiso   1.00
H1585  H     0.90477   0.94336   0.92477   0.00000  Uiso   1.00
H1586  H     0.90799   0.94767   0.98479   0.00000  Uiso   1.00
H1587  H     0.76565   0.77373   0.73655   0.00000  Uiso   1.00
H1588  H     0.68520   0.80544   0.71551   0.00000  Uiso   1.00
H1589  H     0.68351   0.76602   0.67268   0.00000  Uiso   1.00
H1590  H     0.70166   0.81972   0.99441   0.00000  Uiso   1.00
H1591  H     0.67502   0.84303   0.88509   0.00000  Uiso   1.00
H1592  H     0.91114   0.95944   0.82025   0.00000  Uiso   1.00
H1593  H     0.75633   0.70725   0.84941   0.00000  Uiso   1.00
H1594  H     0.99781   0.70512   0.79088   0.00000  Uiso   1.00
H1595  H     0.66965   0.96152   0.87817   0.00000  Uiso   1.00
H1596  H     0.91344   0.94831   0.74386   0.00000  Uiso   1.00
H1597  H     0.76990   0.70916   0.93487   0.00000  Uiso   1.00
H1598  H     0.94091   0.88086   0.97161   0.00000  Uiso   1.00
N1599  N     0.83332   0.83332   0.95240   0.00000  Uiso   1.00
N1600  N     0.83335   0.83334   0.71427   0.00000  Uiso   1.00
N1601  N     0.90186   0.88595   0.95923   0.00000  Uiso   1.00
N1602  N     0.75906   0.78391   0.70372   0.00000  Uiso   1.00
O1603  O     0.83333   0.77225   0.87154   0.00000  Uiso   1.00
O1604  O     0.96440   0.68825   0.79293   0.00000  Uiso   1.00
O1605  O     0.72281   0.92460   0.83246   0.00000  Uiso   1.00
O1606  O     0.70297   0.97841   0.87576   0.00000  Uiso   1.00
O1607  O     0.94818   0.88027   0.73311   0.00000  Uiso   1.00
O1608  O     0.88398   0.92895   0.72983   0.00000  Uiso   1.00
O1609  O     0.73214   0.77762   0.92174   0.00000  Uiso   1.00
O1610  O     0.79353   0.73093   0.95250   0.00000  Uiso   1.00
O1611  O     0.83334   0.89442   0.79513   0.00000  Uiso   1.00
O1612  O     0.83333   0.77226   0.79510   0.00000  Uiso   1.00
O1613  O     0.83334   0.89441   0.87157   0.00000  Uiso   1.00
O1614  O     0.75725   0.83333   0.86261   0.00000  Uiso   1.00
O1615  O     0.90942   0.83334   0.80405   0.00000  Uiso   1.00
O1616  O     0.75725   0.83334   0.78617   0.00000  Uiso   1.00
O1617  O     0.90942   0.83333   0.88050   0.00000  Uiso   1.00
O1618  O     0.94407   0.74195   0.83615   0.00000  Uiso   1.00
Zn1619 Zn    0.83333   0.83333   0.88437   0.00000  Uiso   1.00
Zn1620 Zn    0.83333   0.83334   0.78229   0.00000  Uiso   1.00
loop_
_geom_bond_atom_site_label_1
_geom_bond_atom_site_label_2
_geom_bond_distance
_geom_bond_site_symmetry_2
_ccdc_geom_bond_type
C1     C4      1.407   .     S
C1     O52     1.289   .     A
C1     O43     1.287   .     A
C2     C4      1.392   .     A
C2     H33     1.086   .     S
C2     C381    1.379   1_545 S
C3     C21     1.408   .     A
C3     C22     1.391   .     A
C3     C12     1.408   .     S
C4     C20     1.407   .     A
C5     C11     1.468   .     S
C5     N40     1.378   .     A
C5     C1087   1.434   1_554 S
C6     C13     1.473   .     S
C6     N39     1.369   .     A
C6     C548    1.426   .     S
C7     N41     1.423   .     S
C7     N39     1.367   .     A
C7     C545    1.434   .     S
C8     N42     1.426   .     S
C8     N40     1.379   .     A
C8     C1086   1.426   1_554 S
C9     C20     1.487   .     S
C9     O58     1.221   .     D
C9     O44     1.399   .     S
C10    O46     1.399   .     S
C10    O45     1.221   .     D
C10    C21     1.487   .     S
C11    O47     1.221   .     D
C11    O48     1.396   .     S
C12    O53     1.288   .     A
C12    O51     1.290   .     A
C13    O49     1.220   .     D
C13    O50     1.397   .     S
C14    H26     1.109   .     S
C14    N41     1.449   .     S
C14    H25     1.110   .     S
C14    H24     1.112   .     S
C15    H29     1.110   .     S
C15    H28     1.106   .     S
C15    N42     1.451   .     S
C15    H1110   1.112   1_554 S
C16    O56     1.290   .     A
C16    O54     1.285   .     A
C16    C18     1.401   .     S
C17    O55     1.288   .     A
C17    O57     1.288   .     A
C17    C19     1.401   .     S
C18    C139    1.328   1_455 S
C18    H143    1.083   1_455 S
C19    C78     1.328   .     S
C19    H91     1.088   .     S
C20    C382    1.378   1_545 S
C21    C182    1.379   .     S
C22    H32     1.085   .     S
C22    C200    1.378   .     S
H23    C78     1.083   .     S
H27    N42     1.021   .     S
H30    C555    1.112   .     S
H31    C139    1.088   1_455 S
H34    O44     1.014   .     S
H35    O46     1.014   .     S
H36    O48     1.013   .     S
H37    O50     1.013   .     S
H38    N41     1.031   .     S
N39    Zn59    2.033   .     S
N40    Zn60    2.033   .     S
O43    Zn59    1.986   .     S
O51    Zn60    1.986   .     S
O52    Zn60    1.977   .     S
O53    Zn59    1.977   .     S
O54    Zn59    1.967   .     S
O55    Zn60    1.967   .     S
O56    Zn60    1.974   .     S
O57    Zn59    1.974   .     S
C61    C64     1.407   .     S
C61    O112    1.289   .     A
C61    O103    1.287   .     A
C62    C64     1.392   .     A
C62    H93     1.086   .     S
C62    C441    1.379   1_545 S
C63    C81     1.408   .     A
C63    C82     1.391   .     A
C63    C72     1.408   .     S
C64    C80     1.407   .     A
C65    C71     1.468   .     S
C65    N100    1.378   .     A
C65    C1147   1.434   1_554 S
C66    C73     1.473   .     S
C66    N99     1.369   .     A
C66    C608    1.426   .     S
C67    N101    1.423   .     S
C67    N99     1.367   .     A
C67    C605    1.434   .     S
C68    N102    1.426   .     S
C68    N100    1.379   .     A
C68    C1146   1.426   1_554 S
C69    C80     1.487   .     S
C69    O118    1.221   .     D
C69    O104    1.399   .     S
C70    O106    1.399   .     S
C70    O105    1.221   .     D
C70    C81     1.487   .     S
C71    O107    1.221   .     D
C71    O108    1.396   .     S
C72    O113    1.288   .     A
C72    O111    1.290   .     A
C73    O109    1.220   .     D
C73    O110    1.397   .     S
C74    H86     1.109   .     S
C74    N101    1.449   .     S
C74    H85     1.110   .     S
C74    H84     1.112   .     S
C75    H89     1.110   .     S
C75    H88     1.106   .     S
C75    N102    1.451   .     S
C75    H1170   1.112   1_554 S
C76    O116    1.290   .     A
C76    O114    1.285   .     A
C76    C78     1.401   .     S
C77    O115    1.288   .     A
C77    O117    1.288   .     A
C77    C79     1.401   .     S
C79    C138    1.328   .     S
C79    H151    1.088   .     S
C80    C442    1.378   1_545 S
C81    C242    1.379   .     S
C82    H92     1.085   .     S
C82    C260    1.378   .     S
H83    C138    1.083   .     S
H87    N102    1.021   .     S
H90    C615    1.112   .     S
H94    O104    1.014   .     S
H95    O106    1.014   .     S
H96    O108    1.013   .     S
H97    O110    1.013   .     S
H98    N101    1.031   .     S
N99    Zn119   2.033   .     S
N100   Zn120   2.033   .     S
O103   Zn119   1.986   .     S
O111   Zn120   1.986   .     S
O112   Zn120   1.977   .     S
O113   Zn119   1.977   .     S
O114   Zn119   1.967   .     S
O115   Zn120   1.967   .     S
O116   Zn120   1.974   .     S
O117   Zn119   1.974   .     S
C121   C124    1.407   .     S
C121   O172    1.289   .     A
C121   O163    1.287   .     A
C122   C124    1.392   .     A
C122   H153    1.086   .     S
C122   C501    1.379   1_545 S
C123   C141    1.408   .     A
C123   C142    1.391   .     A
C123   C132    1.408   .     S
C124   C140    1.407   .     A
C125   C131    1.468   .     S
C125   N160    1.378   .     A
C125   C1207   1.434   1_554 S
C126   C133    1.473   .     S
C126   N159    1.369   .     A
C126   C668    1.426   .     S
C127   N161    1.423   .     S
C127   N159    1.367   .     A
C127   C665    1.434   .     S
C128   N162    1.426   .     S
C128   N160    1.379   .     A
C128   C1206   1.426   1_554 S
C129   C140    1.487   .     S
C129   O178    1.221   .     D
C129   O164    1.399   .     S
C130   O166    1.399   .     S
C130   O165    1.221   .     D
C130   C141    1.487   .     S
C131   O167    1.221   .     D
C131   O168    1.396   .     S
C132   O173    1.288   .     A
C132   O171    1.290   .     A
C133   O169    1.220   .     D
C133   O170    1.397   .     S
C134   H146    1.109   .     S
C134   N161    1.449   .     S
C134   H145    1.110   .     S
C134   H144    1.112   .     S
C135   H149    1.110   .     S
C135   H148    1.106   .     S
C135   N162    1.451   .     S
C135   H1230   1.112   1_554 S
C136   O176    1.290   .     A
C136   O174    1.285   .     A
C136   C138    1.401   .     S
C137   O175    1.288   .     A
C137   O177    1.288   .     A
C137   C139    1.401   .     S
C139   C18     1.328   1_655 S
C139   H31     1.088   1_655 S
C140   C502    1.378   1_545 S
C141   C302    1.379   .     S
C142   H152    1.085   .     S
C142   C320    1.378   .     S
H143   C18     1.083   1_655 S
H147   N162    1.021   .     S
H150   C675    1.112   .     S
H154   O164    1.014   .     S
H155   O166    1.014   .     S
H156   O168    1.013   .     S
H157   O170    1.013   .     S
H158   N161    1.031   .     S
N159   Zn179   2.033   .     S
N160   Zn180   2.033   .     S
O163   Zn179   1.986   .     S
O171   Zn180   1.986   .     S
O172   Zn180   1.977   .     S
O173   Zn179   1.977   .     S
O174   Zn179   1.967   .     S
O175   Zn180   1.967   .     S
O176   Zn180   1.974   .     S
O177   Zn179   1.974   .     S
C181   C184    1.407   .     S
C181   O232    1.289   .     A
C181   O223    1.287   .     A
C182   C184    1.392   .     A
C182   H213    1.086   .     S
C183   C201    1.408   .     A
C183   C202    1.391   .     A
C183   C192    1.408   .     S
C184   C200    1.407   .     A
C185   C191    1.468   .     S
C185   N220    1.378   .     A
C185   C1267   1.434   1_554 S
C186   C193    1.473   .     S
C186   N219    1.369   .     A
C186   C728    1.426   .     S
C187   N221    1.423   .     S
C187   N219    1.367   .     A
C187   C725    1.434   .     S
C188   N222    1.426   .     S
C188   N220    1.379   .     A
C188   C1266   1.426   1_554 S
C189   C200    1.487   .     S
C189   O238    1.221   .     D
C189   O224    1.399   .     S
C190   O226    1.399   .     S
C190   O225    1.221   .     D
C190   C201    1.487   .     S
C191   O227    1.221   .     D
C191   O228    1.396   .     S
C192   O233    1.288   .     A
C192   O231    1.290   .     A
C193   O229    1.220   .     D
C193   O230    1.397   .     S
C194   H206    1.109   .     S
C194   N221    1.449   .     S
C194   H205    1.110   .     S
C194   H204    1.112   .     S
C195   H209    1.110   .     S
C195   H208    1.106   .     S
C195   N222    1.451   .     S
C195   H1290   1.112   1_554 S
C196   O236    1.290   .     A
C196   O234    1.285   .     A
C196   C198    1.401   .     S
C197   O235    1.288   .     A
C197   O237    1.288   .     A
C197   C199    1.401   .     S
C198   C319    1.328   1_455 S
C198   H323    1.083   1_455 S
C199   C258    1.328   .     S
C199   H271    1.088   .     S
C201   C362    1.379   .     S
C202   H212    1.085   .     S
C202   C380    1.378   .     S
H203   C258    1.083   .     S
H207   N222    1.021   .     S
H210   C735    1.112   .     S
H211   C319    1.088   1_455 S
H214   O224    1.014   .     S
H215   O226    1.014   .     S
H216   O228    1.013   .     S
H217   O230    1.013   .     S
H218   N221    1.031   .     S
N219   Zn239   2.033   .     S
N220   Zn240   2.033   .     S
O223   Zn239   1.986   .     S
O231   Zn240   1.986   .     S
O232   Zn240   1.977   .     S
O233   Zn239   1.977   .     S
O234   Zn239   1.967   .     S
O235   Zn240   1.967   .     S
O236   Zn240   1.974   .     S
O237   Zn239   1.974   .     S
C241   C244    1.407   .     S
C241   O292    1.289   .     A
C241   O283    1.287   .     A
C242   C244    1.392   .     A
C242   H273    1.086   .     S
C243   C261    1.408   .     A
C243   C262    1.391   .     A
C243   C252    1.408   .     S
C244   C260    1.407   .     A
C245   C251    1.468   .     S
C245   N280    1.378   .     A
C245   C1327   1.434   1_554 S
C246   C253    1.473   .     S
C246   N279    1.369   .     A
C246   C788    1.426   .     S
C247   N281    1.423   .     S
C247   N279    1.367   .     A
C247   C785    1.434   .     S
C248   N282    1.426   .     S
C248   N280    1.379   .     A
C248   C1326   1.426   1_554 S
C249   C260    1.487   .     S
C249   O298    1.221   .     D
C249   O284    1.399   .     S
C250   O286    1.399   .     S
C250   O285    1.221   .     D
C250   C261    1.487   .     S
C251   O287    1.221   .     D
C251   O288    1.396   .     S
C252   O293    1.288   .     A
C252   O291    1.290   .     A
C253   O289    1.220   .     D
C253   O290    1.397   .     S
C254   H266    1.109   .     S
C254   N281    1.449   .     S
C254   H265    1.110   .     S
C254   H264    1.112   .     S
C255   H269    1.110   .     S
C255   H268    1.106   .     S
C255   N282    1.451   .     S
C255   H1350   1.112   1_554 S
C256   O296    1.290   .     A
C256   O294    1.285   .     A
C256   C258    1.401   .     S
C257   O295    1.288   .     A
C257   O297    1.288   .     A
C257   C259    1.401   .     S
C259   C318    1.328   .     S
C259   H331    1.088   .     S
C261   C422    1.379   .     S
C262   H272    1.085   .     S
C262   C440    1.378   .     S
H263   C318    1.083   .     S
H267   N282    1.021   .     S
H270   C795    1.112   .     S
H274   O284    1.014   .     S
H275   O286    1.014   .     S
H276   O288    1.013   .     S
H277   O290    1.013   .     S
H278   N281    1.031   .     S
N279   Zn299   2.033   .     S
N280   Zn300   2.033   .     S
O283   Zn299   1.986   .     S
O291   Zn300   1.986   .     S
O292   Zn300   1.977   .     S
O293   Zn299   1.977   .     S
O294   Zn299   1.967   .     S
O295   Zn300   1.967   .     S
O296   Zn300   1.974   .     S
O297   Zn299   1.974   .     S
C301   C304    1.407   .     S
C301   O352    1.289   .     A
C301   O343    1.287   .     A
C302   C304    1.392   .     A
C302   H333    1.086   .     S
C303   C321    1.408   .     A
C303   C322    1.391   .     A
C303   C312    1.408   .     S
C304   C320    1.407   .     A
C305   C311    1.468   .     S
C305   N340    1.378   .     A
C305   C1387   1.434   1_554 S
C306   C313    1.473   .     S
C306   N339    1.369   .     A
C306   C848    1.426   .     S
C307   N341    1.423   .     S
C307   N339    1.367   .     A
C307   C845    1.434   .     S
C308   N342    1.426   .     S
C308   N340    1.379   .     A
C308   C1386   1.426   1_554 S
C309   C320    1.487   .     S
C309   O358    1.221   .     D
C309   O344    1.399   .     S
C310   O346    1.399   .     S
C310   O345    1.221   .     D
C310   C321    1.487   .     S
C311   O347    1.221   .     D
C311   O348    1.396   .     S
C312   O353    1.288   .     A
C312   O351    1.290   .     A
C313   O349    1.220   .     D
C313   O350    1.397   .     S
C314   H326    1.109   .     S
C314   N341    1.449   .     S
C314   H325    1.110   .     S
C314   H324    1.112   .     S
C315   H329    1.110   .     S
C315   H328    1.106   .     S
C315   N342    1.451   .     S
C315   H1410   1.112   1_554 S
C316   O356    1.290   .     A
C316   O354    1.285   .     A
C316   C318    1.401   .     S
C317   O355    1.288   .     A
C317   O357    1.288   .     A
C317   C319    1.401   .     S
C319   C198    1.328   1_655 S
C319   H211    1.088   1_655 S
C321   C482    1.379   .     S
C322   H332    1.085   .     S
C322   C500    1.378   .     S
H323   C198    1.083   1_655 S
H327   N342    1.021   .     S
H330   C855    1.112   .     S
H334   O344    1.014   .     S
H335   O346    1.014   .     S
H336   O348    1.013   .     S
H337   O350    1.013   .     S
H338   N341    1.031   .     S
N339   Zn359   2.033   .     S
N340   Zn360   2.033   .     S
O343   Zn359   1.986   .     S
O351   Zn360   1.986   .     S
O352   Zn360   1.977   .     S
O353   Zn359   1.977   .     S
O354   Zn359   1.967   .     S
O355   Zn360   1.967   .     S
O356   Zn360   1.974   .     S
O357   Zn359   1.974   .     S
C361   C364    1.407   .     S
C361   O412    1.289   .     A
C361   O403    1.287   .     A
C362   C364    1.392   .     A
C362   H393    1.086   .     S
C363   C381    1.408   .     A
C363   C382    1.391   .     A
C363   C372    1.408   .     S
C364   C380    1.407   .     A
C365   C371    1.468   .     S
C365   N400    1.378   .     A
C365   C1447   1.434   1_554 S
C366   C373    1.473   .     S
C366   N399    1.369   .     A
C366   C908    1.426   .     S
C367   N401    1.423   .     S
C367   N399    1.367   .     A
C367   C905    1.434   .     S
C368   N402    1.426   .     S
C368   N400    1.379   .     A
C368   C1446   1.426   1_554 S
C369   C380    1.487   .     S
C369   O418    1.221   .     D
C369   O404    1.399   .     S
C370   O406    1.399   .     S
C370   O405    1.221   .     D
C370   C381    1.487   .     S
C371   O407    1.221   .     D
C371   O408    1.396   .     S
C372   O413    1.288   .     A
C372   O411    1.290   .     A
C373   O409    1.220   .     D
C373   O410    1.397   .     S
C374   H386    1.109   .     S
C374   N401    1.449   .     S
C374   H385    1.110   .     S
C374   H384    1.112   .     S
C375   H389    1.110   .     S
C375   H388    1.106   .     S
C375   N402    1.451   .     S
C375   H1470   1.112   1_554 S
C376   O416    1.290   .     A
C376   O414    1.285   .     A
C376   C378    1.401   .     S
C377   O415    1.288   .     A
C377   O417    1.288   .     A
C377   C379    1.401   .     S
C378   C499    1.328   1_455 S
C378   H503    1.083   1_455 S
C379   C438    1.328   .     S
C379   H451    1.088   .     S
C381   C2      1.379   1_565 S
C382   H392    1.085   .     S
C382   C20     1.378   1_565 S
H383   C438    1.083   .     S
H387   N402    1.021   .     S
H390   C915    1.112   .     S
H391   C499    1.088   1_455 S
H394   O404    1.014   .     S
H395   O406    1.014   .     S
H396   O408    1.013   .     S
H397   O410    1.013   .     S
H398   N401    1.031   .     S
N399   Zn419   2.033   .     S
N400   Zn420   2.033   .     S
O403   Zn419   1.986   .     S
O411   Zn420   1.986   .     S
O412   Zn420   1.977   .     S
O413   Zn419   1.977   .     S
O414   Zn419   1.967   .     S
O415   Zn420   1.967   .     S
O416   Zn420   1.974   .     S
O417   Zn419   1.974   .     S
C421   C424    1.407   .     S
C421   O472    1.289   .     A
C421   O463    1.287   .     A
C422   C424    1.392   .     A
C422   H453    1.086   .     S
C423   C441    1.408   .     A
C423   C442    1.391   .     A
C423   C432    1.408   .     S
C424   C440    1.407   .     A
C425   C431    1.468   .     S
C425   N460    1.378   .     A
C425   C1507   1.434   1_554 S
C426   C433    1.473   .     S
C426   N459    1.369   .     A
C426   C968    1.426   .     S
C427   N461    1.423   .     S
C427   N459    1.367   .     A
C427   C965    1.434   .     S
C428   N462    1.426   .     S
C428   N460    1.379   .     A
C428   C1506   1.426   1_554 S
C429   C440    1.487   .     S
C429   O478    1.221   .     D
C429   O464    1.399   .     S
C430   O466    1.399   .     S
C430   O465    1.221   .     D
C430   C441    1.487   .     S
C431   O467    1.221   .     D
C431   O468    1.396   .     S
C432   O473    1.288   .     A
C432   O471    1.290   .     A
C433   O469    1.220   .     D
C433   O470    1.397   .     S
C434   H446    1.109   .     S
C434   N461    1.449   .     S
C434   H445    1.110   .     S
C434   H444    1.112   .     S
C435   H449    1.110   .     S
C435   H448    1.106   .     S
C435   N462    1.451   .     S
C435   H1530   1.112   1_554 S
C436   O476    1.290   .     A
C436   O474    1.285   .     A
C436   C438    1.401   .     S
C437   O475    1.288   .     A
C437   O477    1.288   .     A
C437   C439    1.401   .     S
C439   C498    1.328   .     S
C439   H511    1.088   .     S
C441   C62     1.379   1_565 S
C442   H452    1.085   .     S
C442   C80     1.378   1_565 S
H443   C498    1.083   .     S
H447   N462    1.021   .     S
H450   C975    1.112   .     S
H454   O464    1.014   .     S
H455   O466    1.014   .     S
H456   O468    1.013   .     S
H457   O470    1.013   .     S
H458   N461    1.031   .     S
N459   Zn479   2.033   .     S
N460   Zn480   2.033   .     S
O463   Zn479   1.986   .     S
O471   Zn480   1.986   .     S
O472   Zn480   1.977   .     S
O473   Zn479   1.977   .     S
O474   Zn479   1.967   .     S
O475   Zn480   1.967   .     S
O476   Zn480   1.974   .     S
O477   Zn479   1.974   .     S
C481   C484    1.407   .     S
C481   O532    1.289   .     A
C481   O523    1.287   .     A
C482   C484    1.392   .     A
C482   H513    1.086   .     S
C483   C501    1.408   .     A
C483   C502    1.391   .     A
C483   C492    1.408   .     S
C484   C500    1.407   .     A
C485   C491    1.468   .     S
C485   N520    1.378   .     A
C485   C1567   1.434   1_554 S
C486   C493    1.473   .     S
C486   N519    1.369   .     A
C486   C1028   1.426   .     S
C487   N521    1.423   .     S
C487   N519    1.367   .     A
C487   C1025   1.434   .     S
C488   N522    1.426   .     S
C488   N520    1.379   .     A
C488   C1566   1.426   1_554 S
C489   C500    1.487   .     S
C489   O538    1.221   .     D
C489   O524    1.399   .     S
C490   O526    1.399   .     S
C490   O525    1.221   .     D
C490   C501    1.487   .     S
C491   O527    1.221   .     D
C491   O528    1.396   .     S
C492   O533    1.288   .     A
C492   O531    1.290   .     A
C493   O529    1.220   .     D
C493   O530    1.397   .     S
C494   H506    1.109   .     S
C494   N521    1.449   .     S
C494   H505    1.110   .     S
C494   H504    1.112   .     S
C495   H509    1.110   .     S
C495   H508    1.106   .     S
C495   N522    1.451   .     S
C495   H1590   1.112   1_554 S
C496   O536    1.290   .     A
C496   O534    1.285   .     A
C496   C498    1.401   .     S
C497   O535    1.288   .     A
C497   O537    1.288   .     A
C497   C499    1.401   .     S
C499   C378    1.328   1_655 S
C499   H391    1.088   1_655 S
C501   C122    1.379   1_565 S
C502   H512    1.085   .     S
C502   C140    1.378   1_565 S
H503   C378    1.083   1_655 S
H507   N522    1.021   .     S
H510   C1035   1.112   .     S
H514   O524    1.014   .     S
H515   O526    1.014   .     S
H516   O528    1.013   .     S
H517   O530    1.013   .     S
H518   N521    1.031   .     S
N519   Zn539   2.033   .     S
N520   Zn540   2.033   .     S
O523   Zn539   1.986   .     S
O531   Zn540   1.986   .     S
O532   Zn540   1.977   .     S
O533   Zn539   1.977   .     S
O534   Zn539   1.967   .     S
O535   Zn540   1.967   .     S
O536   Zn540   1.974   .     S
O537   Zn539   1.974   .     S
C541   C544    1.407   .     S
C541   O592    1.289   .     A
C541   O583    1.287   .     A
C542   C544    1.392   .     A
C542   H573    1.086   .     S
C542   C921    1.379   1_545 S
C543   C561    1.408   .     A
C543   C562    1.391   .     A
C543   C552    1.408   .     S
C544   C560    1.407   .     A
C545   C551    1.468   .     S
C545   N580    1.378   .     A
C546   C553    1.473   .     S
C546   N579    1.369   .     A
C546   C1088   1.426   .     S
C547   N581    1.423   .     S
C547   N579    1.367   .     A
C547   C1085   1.434   .     S
C548   N582    1.426   .     S
C548   N580    1.379   .     A
C549   C560    1.487   .     S
C549   O598    1.221   .     D
C549   O584    1.399   .     S
C550   O586    1.399   .     S
C550   O585    1.221   .     D
C550   C561    1.487   .     S
C551   O587    1.221   .     D
C551   O588    1.396   .     S
C552   O593    1.288   .     A
C552   O591    1.290   .     A
C553   O589    1.220   .     D
C553   O590    1.397   .     S
C554   H566    1.109   .     S
C554   N581    1.449   .     S
C554   H565    1.110   .     S
C554   H564    1.112   .     S
C555   H569    1.110   .     S
C555   H568    1.106   .     S
C555   N582    1.451   .     S
C556   O596    1.290   .     A
C556   O594    1.285   .     A
C556   C558    1.401   .     S
C557   O595    1.288   .     A
C557   O597    1.288   .     A
C557   C559    1.401   .     S
C558   C679    1.328   1_455 S
C558   H683    1.083   1_455 S
C559   C618    1.328   .     S
C559   H631    1.088   .     S
C560   C922    1.378   1_545 S
C561   C722    1.379   .     S
C562   H572    1.085   .     S
C562   C740    1.378   .     S
H563   C618    1.083   .     S
H567   N582    1.021   .     S
H570   C1095   1.112   .     S
H571   C679    1.088   1_455 S
H574   O584    1.014   .     S
H575   O586    1.014   .     S
H576   O588    1.013   .     S
H577   O590    1.013   .     S
H578   N581    1.031   .     S
N579   Zn599   2.033   .     S
N580   Zn600   2.033   .     S
O583   Zn599   1.986   .     S
O591   Zn600   1.986   .     S
O592   Zn600   1.977   .     S
O593   Zn599   1.977   .     S
O594   Zn599   1.967   .     S
O595   Zn600   1.967   .     S
O596   Zn600   1.974   .     S
O597   Zn599   1.974   .     S
C601   C604    1.407   .     S
C601   O652    1.289   .     A
C601   O643    1.287   .     A
C602   C604    1.392   .     A
C602   H633    1.086   .     S
C602   C981    1.379   1_545 S
C603   C621    1.408   .     A
C603   C622    1.391   .     A
C603   C612    1.408   .     S
C604   C620    1.407   .     A
C605   C611    1.468   .     S
C605   N640    1.378   .     A
C606   C613    1.473   .     S
C606   N639    1.369   .     A
C606   C1148   1.426   .     S
C607   N641    1.423   .     S
C607   N639    1.367   .     A
C607   C1145   1.434   .     S
C608   N642    1.426   .     S
C608   N640    1.379   .     A
C609   C620    1.487   .     S
C609   O658    1.221   .     D
C609   O644    1.399   .     S
C610   O646    1.399   .     S
C610   O645    1.221   .     D
C610   C621    1.487   .     S
C611   O647    1.221   .     D
C611   O648    1.396   .     S
C612   O653    1.288   .     A
C612   O651    1.290   .     A
C613   O649    1.220   .     D
C613   O650    1.397   .     S
C614   H626    1.109   .     S
C614   N641    1.449   .     S
C614   H625    1.110   .     S
C614   H624    1.112   .     S
C615   H629    1.110   .     S
C615   H628    1.106   .     S
C615   N642    1.451   .     S
C616   O656    1.290   .     A
C616   O654    1.285   .     A
C616   C618    1.401   .     S
C617   O655    1.288   .     A
C617   O657    1.288   .     A
C617   C619    1.401   .     S
C619   C678    1.328   .     S
C619   H691    1.088   .     S
C620   C982    1.378   1_545 S
C621   C782    1.379   .     S
C622   H632    1.085   .     S
C622   C800    1.378   .     S
H623   C678    1.083   .     S
H627   N642    1.021   .     S
H630   C1155   1.112   .     S
H634   O644    1.014   .     S
H635   O646    1.014   .     S
H636   O648    1.013   .     S
H637   O650    1.013   .     S
H638   N641    1.031   .     S
N639   Zn659   2.033   .     S
N640   Zn660   2.033   .     S
O643   Zn659   1.986   .     S
O651   Zn660   1.986   .     S
O652   Zn660   1.977   .     S
O653   Zn659   1.977   .     S
O654   Zn659   1.967   .     S
O655   Zn660   1.967   .     S
O656   Zn660   1.974   .     S
O657   Zn659   1.974   .     S
C661   C664    1.407   .     S
C661   O712    1.289   .     A
C661   O703    1.287   .     A
C662   C664    1.392   .     A
C662   H693    1.086   .     S
C662   C1041   1.379   1_545 S
C663   C681    1.408   .     A
C663   C682    1.391   .     A
C663   C672    1.408   .     S
C664   C680    1.407   .     A
C665   C671    1.468   .     S
C665   N700    1.378   .     A
C666   C673    1.473   .     S
C666   N699    1.369   .     A
C666   C1208   1.426   .     S
C667   N701    1.423   .     S
C667   N699    1.367   .     A
C667   C1205   1.434   .     S
C668   N702    1.426   .     S
C668   N700    1.379   .     A
C669   C680    1.487   .     S
C669   O718    1.221   .     D
C669   O704    1.399   .     S
C670   O706    1.399   .     S
C670   O705    1.221   .     D
C670   C681    1.487   .     S
C671   O707    1.221   .     D
C671   O708    1.396   .     S
C672   O713    1.288   .     A
C672   O711    1.290   .     A
C673   O709    1.220   .     D
C673   O710    1.397   .     S
C674   H686    1.109   .     S
C674   N701    1.449   .     S
C674   H685    1.110   .     S
C674   H684    1.112   .     S
C675   H689    1.110   .     S
C675   H688    1.106   .     S
C675   N702    1.451   .     S
C676   O716    1.290   .     A
C676   O714    1.285   .     A
C676   C678    1.401   .     S
C677   O715    1.288   .     A
C677   O717    1.288   .     A
C677   C679    1.401   .     S
C679   C558    1.328   1_655 S
C679   H571    1.088   1_655 S
C680   C1042   1.378   1_545 S
C681   C842    1.379   .     S
C682   H692    1.085   .     S
C682   C860    1.378   .     S
H683   C558    1.083   1_655 S
H687   N702    1.021   .     S
H690   C1215   1.112   .     S
H694   O704    1.014   .     S
H695   O706    1.014   .     S
H696   O708    1.013   .     S
H697   O710    1.013   .     S
H698   N701    1.031   .     S
N699   Zn719   2.033   .     S
N700   Zn720   2.033   .     S
O703   Zn719   1.986   .     S
O711   Zn720   1.986   .     S
O712   Zn720   1.977   .     S
O713   Zn719   1.977   .     S
O714   Zn719   1.967   .     S
O715   Zn720   1.967   .     S
O716   Zn720   1.974   .     S
O717   Zn719   1.974   .     S
C721   C724    1.407   .     S
C721   O772    1.289   .     A
C721   O763    1.287   .     A
C722   C724    1.392   .     A
C722   H753    1.086   .     S
C723   C741    1.408   .     A
C723   C742    1.391   .     A
C723   C732    1.408   .     S
C724   C740    1.407   .     A
C725   C731    1.468   .     S
C725   N760    1.378   .     A
C726   C733    1.473   .     S
C726   N759    1.369   .     A
C726   C1268   1.426   .     S
C727   N761    1.423   .     S
C727   N759    1.367   .     A
C727   C1265   1.434   .     S
C728   N762    1.426   .     S
C728   N760    1.379   .     A
C729   C740    1.487   .     S
C729   O778    1.221   .     D
C729   O764    1.399   .     S
C730   O766    1.399   .     S
C730   O765    1.221   .     D
C730   C741    1.487   .     S
C731   O767    1.221   .     D
C731   O768    1.396   .     S
C732   O773    1.288   .     A
C732   O771    1.290   .     A
C733   O769    1.220   .     D
C733   O770    1.397   .     S
C734   H746    1.109   .     S
C734   N761    1.449   .     S
C734   H745    1.110   .     S
C734   H744    1.112   .     S
C735   H749    1.110   .     S
C735   H748    1.106   .     S
C735   N762    1.451   .     S
C736   O776    1.290   .     A
C736   O774    1.285   .     A
C736   C738    1.401   .     S
C737   O775    1.288   .     A
C737   O777    1.288   .     A
C737   C739    1.401   .     S
C738   C859    1.328   1_455 S
C738   H863    1.083   1_455 S
C739   C798    1.328   .     S
C739   H811    1.088   .     S
C741   C902    1.379   .     S
C742   H752    1.085   .     S
C742   C920    1.378   .     S
H743   C798    1.083   .     S
H747   N762    1.021   .     S
H750   C1275   1.112   .     S
H751   C859    1.088   1_455 S
H754   O764    1.014   .     S
H755   O766    1.014   .     S
H756   O768    1.013   .     S
H757   O770    1.013   .     S
H758   N761    1.031   .     S
N759   Zn779   2.033   .     S
N760   Zn780   2.033   .     S
O763   Zn779   1.986   .     S
O771   Zn780   1.986   .     S
O772   Zn780   1.977   .     S
O773   Zn779   1.977   .     S
O774   Zn779   1.967   .     S
O775   Zn780   1.967   .     S
O776   Zn780   1.974   .     S
O777   Zn779   1.974   .     S
C781   C784    1.407   .     S
C781   O832    1.289   .     A
C781   O823    1.287   .     A
C782   C784    1.392   .     A
C782   H813    1.086   .     S
C783   C801    1.408   .     A
C783   C802    1.391   .     A
C783   C792    1.408   .     S
C784   C800    1.407   .     A
C785   C791    1.468   .     S
C785   N820    1.378   .     A
C786   C793    1.473   .     S
C786   N819    1.369   .     A
C786   C1328   1.426   .     S
C787   N821    1.423   .     S
C787   N819    1.367   .     A
C787   C1325   1.434   .     S
C788   N822    1.426   .     S
C788   N820    1.379   .     A
C789   C800    1.487   .     S
C789   O838    1.221   .     D
C789   O824    1.399   .     S
C790   O826    1.399   .     S
C790   O825    1.221   .     D
C790   C801    1.487   .     S
C791   O827    1.221   .     D
C791   O828    1.396   .     S
C792   O833    1.288   .     A
C792   O831    1.290   .     A
C793   O829    1.220   .     D
C793   O830    1.397   .     S
C794   H806    1.109   .     S
C794   N821    1.449   .     S
C794   H805    1.110   .     S
C794   H804    1.112   .     S
C795   H809    1.110   .     S
C795   H808    1.106   .     S
C795   N822    1.451   .     S
C796   O836    1.290   .     A
C796   O834    1.285   .     A
C796   C798    1.401   .     S
C797   O835    1.288   .     A
C797   O837    1.288   .     A
C797   C799    1.401   .     S
C799   C858    1.328   .     S
C799   H871    1.088   .     S
C801   C962    1.379   .     S
C802   H812    1.085   .     S
C802   C980    1.378   .     S
H803   C858    1.083   .     S
H807   N822    1.021   .     S
H810   C1335   1.112   .     S
H814   O824    1.014   .     S
H815   O826    1.014   .     S
H816   O828    1.013   .     S
H817   O830    1.013   .     S
H818   N821    1.031   .     S
N819   Zn839   2.033   .     S
N820   Zn840   2.033   .     S
O823   Zn839   1.986   .     S
O831   Zn840   1.986   .     S
O832   Zn840   1.977   .     S
O833   Zn839   1.977   .     S
O834   Zn839   1.967   .     S
O835   Zn840   1.967   .     S
O836   Zn840   1.974   .     S
O837   Zn839   1.974   .     S
C841   C844    1.407   .     S
C841   O892    1.289   .     A
C841   O883    1.287   .     A
C842   C844    1.392   .     A
C842   H873    1.086   .     S
C843   C861    1.408   .     A
C843   C862    1.391   .     A
C843   C852    1.408   .     S
C844   C860    1.407   .     A
C845   C851    1.468   .     S
C845   N880    1.378   .     A
C846   C853    1.473   .     S
C846   N879    1.369   .     A
C846   C1388   1.426   .     S
C847   N881    1.423   .     S
C847   N879    1.367   .     A
C847   C1385   1.434   .     S
C848   N882    1.426   .     S
C848   N880    1.379   .     A
C849   C860    1.487   .     S
C849   O898    1.221   .     D
C849   O884    1.399   .     S
C850   O886    1.399   .     S
C850   O885    1.221   .     D
C850   C861    1.487   .     S
C851   O887    1.221   .     D
C851   O888    1.396   .     S
C852   O893    1.288   .     A
C852   O891    1.290   .     A
C853   O889    1.220   .     D
C853   O890    1.397   .     S
C854   H866    1.109   .     S
C854   N881    1.449   .     S
C854   H865    1.110   .     S
C854   H864    1.112   .     S
C855   H869    1.110   .     S
C855   H868    1.106   .     S
C855   N882    1.451   .     S
C856   O896    1.290   .     A
C856   O894    1.285   .     A
C856   C858    1.401   .     S
C857   O895    1.288   .     A
C857   O897    1.288   .     A
C857   C859    1.401   .     S
C859   C738    1.328   1_655 S
C859   H751    1.088   1_655 S
C861   C1022   1.379   .     S
C862   H872    1.085   .     S
C862   C1040   1.378   .     S
H863   C738    1.083   1_655 S
H867   N882    1.021   .     S
H870   C1395   1.112   .     S
H874   O884    1.014   .     S
H875   O886    1.014   .     S
H876   O888    1.013   .     S
H877   O890    1.013   .     S
H878   N881    1.031   .     S
N879   Zn899   2.033   .     S
N880   Zn900   2.033   .     S
O883   Zn899   1.986   .     S
O891   Zn900   1.986   .     S
O892   Zn900   1.977   .     S
O893   Zn899   1.977   .     S
O894   Zn899   1.967   .     S
O895   Zn900   1.967   .     S
O896   Zn900   1.974   .     S
O897   Zn899   1.974   .     S
C901   C904    1.407   .     S
C901   O952    1.289   .     A
C901   O943    1.287   .     A
C902   C904    1.392   .     A
C902   H933    1.086   .     S
C903   C921    1.408   .     A
C903   C922    1.391   .     A
C903   C912    1.408   .     S
C904   C920    1.407   .     A
C905   C911    1.468   .     S
C905   N940    1.378   .     A
C906   C913    1.473   .     S
C906   N939    1.369   .     A
C906   C1448   1.426   .     S
C907   N941    1.423   .     S
C907   N939    1.367   .     A
C907   C1445   1.434   .     S
C908   N942    1.426   .     S
C908   N940    1.379   .     A
C909   C920    1.487   .     S
C909   O958    1.221   .     D
C909   O944    1.399   .     S
C910   O946    1.399   .     S
C910   O945    1.221   .     D
C910   C921    1.487   .     S
C911   O947    1.221   .     D
C911   O948    1.396   .     S
C912   O953    1.288   .     A
C912   O951    1.290   .     A
C913   O949    1.220   .     D
C913   O950    1.397   .     S
C914   H926    1.109   .     S
C914   N941    1.449   .     S
C914   H925    1.110   .     S
C914   H924    1.112   .     S
C915   H929    1.110   .     S
C915   H928    1.106   .     S
C915   N942    1.451   .     S
C916   O956    1.290   .     A
C916   O954    1.285   .     A
C916   C918    1.401   .     S
C917   O955    1.288   .     A
C917   O957    1.288   .     A
C917   C919    1.401   .     S
C918   C1039   1.328   1_455 S
C918   H1043   1.083   1_455 S
C919   C978    1.328   .     S
C919   H991    1.088   .     S
C921   C542    1.379   1_565 S
C922   H932    1.085   .     S
C922   C560    1.378   1_565 S
H923   C978    1.083   .     S
H927   N942    1.021   .     S
H930   C1455   1.112   .     S
H931   C1039   1.088   1_455 S
H934   O944    1.014   .     S
H935   O946    1.014   .     S
H936   O948    1.013   .     S
H937   O950    1.013   .     S
H938   N941    1.031   .     S
N939   Zn959   2.033   .     S
N940   Zn960   2.033   .     S
O943   Zn959   1.986   .     S
O951   Zn960   1.986   .     S
O952   Zn960   1.977   .     S
O953   Zn959   1.977   .     S
O954   Zn959   1.967   .     S
O955   Zn960   1.967   .     S
O956   Zn960   1.974   .     S
O957   Zn959   1.974   .     S
C961   C964    1.407   .     S
C961   O1012   1.289   .     A
C961   O1003   1.287   .     A
C962   C964    1.392   .     A
C962   H993    1.086   .     S
C963   C981    1.408   .     A
C963   C982    1.391   .     A
C963   C972    1.408   .     S
C964   C980    1.407   .     A
C965   C971    1.468   .     S
C965   N1000   1.378   .     A
C966   C973    1.473   .     S
C966   N999    1.369   .     A
C966   C1508   1.426   .     S
C967   N1001   1.423   .     S
C967   N999    1.367   .     A
C967   C1505   1.434   .     S
C968   N1002   1.426   .     S
C968   N1000   1.379   .     A
C969   C980    1.487   .     S
C969   O1018   1.221   .     D
C969   O1004   1.399   .     S
C970   O1006   1.399   .     S
C970   O1005   1.221   .     D
C970   C981    1.487   .     S
C971   O1007   1.221   .     D
C971   O1008   1.396   .     S
C972   O1013   1.288   .     A
C972   O1011   1.290   .     A
C973   O1009   1.220   .     D
C973   O1010   1.397   .     S
C974   H986    1.109   .     S
C974   N1001   1.449   .     S
C974   H985    1.110   .     S
C974   H984    1.112   .     S
C975   H989    1.110   .     S
C975   H988    1.106   .     S
C975   N1002   1.451   .     S
C976   O1016   1.290   .     A
C976   O1014   1.285   .     A
C976   C978    1.401   .     S
C977   O1015   1.288   .     A
C977   O1017   1.288   .     A
C977   C979    1.401   .     S
C979   C1038   1.328   .     S
C979   H1051   1.088   .     S
C981   C602    1.379   1_565 S
C982   H992    1.085   .     S
C982   C620    1.378   1_565 S
H983   C1038   1.083   .     S
H987   N1002   1.021   .     S
H990   C1515   1.112   .     S
H994   O1004   1.014   .     S
H995   O1006   1.014   .     S
H996   O1008   1.013   .     S
H997   O1010   1.013   .     S
H998   N1001   1.031   .     S
N999   Zn1019  2.033   .     S
N1000  Zn1020  2.033   .     S
O1003  Zn1019  1.986   .     S
O1011  Zn1020  1.986   .     S
O1012  Zn1020  1.977   .     S
O1013  Zn1019  1.977   .     S
O1014  Zn1019  1.967   .     S
O1015  Zn1020  1.967   .     S
O1016  Zn1020  1.974   .     S
O1017  Zn1019  1.974   .     S
C1021  C1024   1.407   .     S
C1021  O1072   1.289   .     A
C1021  O1063   1.287   .     A
C1022  C1024   1.392   .     A
C1022  H1053   1.086   .     S
C1023  C1041   1.408   .     A
C1023  C1042   1.391   .     A
C1023  C1032   1.408   .     S
C1024  C1040   1.407   .     A
C1025  C1031   1.468   .     S
C1025  N1060   1.378   .     A
C1026  C1033   1.473   .     S
C1026  N1059   1.369   .     A
C1026  C1568   1.426   .     S
C1027  N1061   1.423   .     S
C1027  N1059   1.367   .     A
C1027  C1565   1.434   .     S
C1028  N1062   1.426   .     S
C1028  N1060   1.379   .     A
C1029  C1040   1.487   .     S
C1029  O1078   1.221   .     D
C1029  O1064   1.399   .     S
C1030  O1066   1.399   .     S
C1030  O1065   1.221   .     D
C1030  C1041   1.487   .     S
C1031  O1067   1.221   .     D
C1031  O1068   1.396   .     S
C1032  O1073   1.288   .     A
C1032  O1071   1.290   .     A
C1033  O1069   1.220   .     D
C1033  O1070   1.397   .     S
C1034  H1046   1.109   .     S
C1034  N1061   1.449   .     S
C1034  H1045   1.110   .     S
C1034  H1044   1.112   .     S
C1035  H1049   1.110   .     S
C1035  H1048   1.106   .     S
C1035  N1062   1.451   .     S
C1036  O1076   1.290   .     A
C1036  O1074   1.285   .     A
C1036  C1038   1.401   .     S
C1037  O1075   1.288   .     A
C1037  O1077   1.288   .     A
C1037  C1039   1.401   .     S
C1039  C918    1.328   1_655 S
C1039  H931    1.088   1_655 S
C1041  C662    1.379   1_565 S
C1042  H1052   1.085   .     S
C1042  C680    1.378   1_565 S
H1043  C918    1.083   1_655 S
H1047  N1062   1.021   .     S
H1050  C1575   1.112   .     S
H1054  O1064   1.014   .     S
H1055  O1066   1.014   .     S
H1056  O1068   1.013   .     S
H1057  O1070   1.013   .     S
H1058  N1061   1.031   .     S
N1059  Zn1079  2.033   .     S
N1060  Zn1080  2.033   .     S
O1063  Zn1079  1.986   .     S
O1071  Zn1080  1.986   .     S
O1072  Zn1080  1.977   .     S
O1073  Zn1079  1.977   .     S
O1074  Zn1079  1.967   .     S
O1075  Zn1080  1.967   .     S
O1076  Zn1080  1.974   .     S
O1077  Zn1079  1.974   .     S
C1081  C1084   1.407   .     S
C1081  O1132   1.289   .     A
C1081  O1123   1.287   .     A
C1082  C1084   1.392   .     A
C1082  H1113   1.086   .     S
C1082  C1461   1.379   1_545 S
C1083  C1101   1.408   .     A
C1083  C1102   1.391   .     A
C1083  C1092   1.408   .     S
C1084  C1100   1.407   .     A
C1085  C1091   1.468   .     S
C1085  N1120   1.378   .     A
C1086  C1093   1.473   .     S
C1086  N1119   1.369   .     A
C1086  C8      1.426   1_556 S
C1087  N1121   1.423   .     S
C1087  N1119   1.367   .     A
C1087  C5      1.434   1_556 S
C1088  N1122   1.426   .     S
C1088  N1120   1.379   .     A
C1089  C1100   1.487   .     S
C1089  O1138   1.221   .     D
C1089  O1124   1.399   .     S
C1090  O1126   1.399   .     S
C1090  O1125   1.221   .     D
C1090  C1101   1.487   .     S
C1091  O1127   1.221   .     D
C1091  O1128   1.396   .     S
C1092  O1133   1.288   .     A
C1092  O1131   1.290   .     A
C1093  O1129   1.220   .     D
C1093  O1130   1.397   .     S
C1094  H1106   1.109   .     S
C1094  N1121   1.449   .     S
C1094  H1105   1.110   .     S
C1094  H1104   1.112   .     S
C1095  H1109   1.110   .     S
C1095  H1108   1.106   .     S
C1095  N1122   1.451   .     S
C1096  O1136   1.290   .     A
C1096  O1134   1.285   .     A
C1096  C1098   1.401   .     S
C1097  O1135   1.288   .     A
C1097  O1137   1.288   .     A
C1097  C1099   1.401   .     S
C1098  C1219   1.328   1_455 S
C1098  H1223   1.083   1_455 S
C1099  C1158   1.328   .     S
C1099  H1171   1.088   .     S
C1100  C1462   1.378   1_545 S
C1101  C1262   1.379   .     S
C1102  H1112   1.085   .     S
C1102  C1280   1.378   .     S
H1103  C1158   1.083   .     S
H1107  N1122   1.021   .     S
H1110  C15     1.112   1_556 S
H1111  C1219   1.088   1_455 S
H1114  O1124   1.014   .     S
H1115  O1126   1.014   .     S
H1116  O1128   1.013   .     S
H1117  O1130   1.013   .     S
H1118  N1121   1.031   .     S
N1119  Zn1139  2.033   .     S
N1120  Zn1140  2.033   .     S
O1123  Zn1139  1.986   .     S
O1131  Zn1140  1.986   .     S
O1132  Zn1140  1.977   .     S
O1133  Zn1139  1.977   .     S
O1134  Zn1139  1.967   .     S
O1135  Zn1140  1.967   .     S
O1136  Zn1140  1.974   .     S
O1137  Zn1139  1.974   .     S
C1141  C1144   1.407   .     S
C1141  O1192   1.289   .     A
C1141  O1183   1.287   .     A
C1142  C1144   1.392   .     A
C1142  H1173   1.086   .     S
C1142  C1521   1.379   1_545 S
C1143  C1161   1.408   .     A
C1143  C1162   1.391   .     A
C1143  C1152   1.408   .     S
C1144  C1160   1.407   .     A
C1145  C1151   1.468   .     S
C1145  N1180   1.378   .     A
C1146  C1153   1.473   .     S
C1146  N1179   1.369   .     A
C1146  C68     1.426   1_556 S
C1147  N1181   1.423   .     S
C1147  N1179   1.367   .     A
C1147  C65     1.434   1_556 S
C1148  N1182   1.426   .     S
C1148  N1180   1.379   .     A
C1149  C1160   1.487   .     S
C1149  O1198   1.221   .     D
C1149  O1184   1.399   .     S
C1150  O1186   1.399   .     S
C1150  O1185   1.221   .     D
C1150  C1161   1.487   .     S
C1151  O1187   1.221   .     D
C1151  O1188   1.396   .     S
C1152  O1193   1.288   .     A
C1152  O1191   1.290   .     A
C1153  O1189   1.220   .     D
C1153  O1190   1.397   .     S
C1154  H1166   1.109   .     S
C1154  N1181   1.449   .     S
C1154  H1165   1.110   .     S
C1154  H1164   1.112   .     S
C1155  H1169   1.110   .     S
C1155  H1168   1.106   .     S
C1155  N1182   1.451   .     S
C1156  O1196   1.290   .     A
C1156  O1194   1.285   .     A
C1156  C1158   1.401   .     S
C1157  O1195   1.288   .     A
C1157  O1197   1.288   .     A
C1157  C1159   1.401   .     S
C1159  C1218   1.328   .     S
C1159  H1231   1.088   .     S
C1160  C1522   1.378   1_545 S
C1161  C1322   1.379   .     S
C1162  H1172   1.085   .     S
C1162  C1340   1.378   .     S
H1163  C1218   1.083   .     S
H1167  N1182   1.021   .     S
H1170  C75     1.112   1_556 S
H1174  O1184   1.014   .     S
H1175  O1186   1.014   .     S
H1176  O1188   1.013   .     S
H1177  O1190   1.013   .     S
H1178  N1181   1.031   .     S
N1179  Zn1199  2.033   .     S
N1180  Zn1200  2.033   .     S
O1183  Zn1199  1.986   .     S
O1191  Zn1200  1.986   .     S
O1192  Zn1200  1.977   .     S
O1193  Zn1199  1.977   .     S
O1194  Zn1199  1.967   .     S
O1195  Zn1200  1.967   .     S
O1196  Zn1200  1.974   .     S
O1197  Zn1199  1.974   .     S
C1201  C1204   1.407   .     S
C1201  O1252   1.289   .     A
C1201  O1243   1.287   .     A
C1202  C1204   1.392   .     A
C1202  H1233   1.086   .     S
C1202  C1581   1.379   1_545 S
C1203  C1221   1.408   .     A
C1203  C1222   1.391   .     A
C1203  C1212   1.408   .     S
C1204  C1220   1.407   .     A
C1205  C1211   1.468   .     S
C1205  N1240   1.378   .     A
C1206  C1213   1.473   .     S
C1206  N1239   1.369   .     A
C1206  C128    1.426   1_556 S
C1207  N1241   1.423   .     S
C1207  N1239   1.367   .     A
C1207  C125    1.434   1_556 S
C1208  N1242   1.426   .     S
C1208  N1240   1.379   .     A
C1209  C1220   1.487   .     S
C1209  O1258   1.221   .     D
C1209  O1244   1.399   .     S
C1210  O1246   1.399   .     S
C1210  O1245   1.221   .     D
C1210  C1221   1.487   .     S
C1211  O1247   1.221   .     D
C1211  O1248   1.396   .     S
C1212  O1253   1.288   .     A
C1212  O1251   1.290   .     A
C1213  O1249   1.220   .     D
C1213  O1250   1.397   .     S
C1214  H1226   1.109   .     S
C1214  N1241   1.449   .     S
C1214  H1225   1.110   .     S
C1214  H1224   1.112   .     S
C1215  H1229   1.110   .     S
C1215  H1228   1.106   .     S
C1215  N1242   1.451   .     S
C1216  O1256   1.290   .     A
C1216  O1254   1.285   .     A
C1216  C1218   1.401   .     S
C1217  O1255   1.288   .     A
C1217  O1257   1.288   .     A
C1217  C1219   1.401   .     S
C1219  C1098   1.328   1_655 S
C1219  H1111   1.088   1_655 S
C1220  C1582   1.378   1_545 S
C1221  C1382   1.379   .     S
C1222  H1232   1.085   .     S
C1222  C1400   1.378   .     S
H1223  C1098   1.083   1_655 S
H1227  N1242   1.021   .     S
H1230  C135    1.112   1_556 S
H1234  O1244   1.014   .     S
H1235  O1246   1.014   .     S
H1236  O1248   1.013   .     S
H1237  O1250   1.013   .     S
H1238  N1241   1.031   .     S
N1239  Zn1259  2.033   .     S
N1240  Zn1260  2.033   .     S
O1243  Zn1259  1.986   .     S
O1251  Zn1260  1.986   .     S
O1252  Zn1260  1.977   .     S
O1253  Zn1259  1.977   .     S
O1254  Zn1259  1.967   .     S
O1255  Zn1260  1.967   .     S
O1256  Zn1260  1.974   .     S
O1257  Zn1259  1.974   .     S
C1261  C1264   1.407   .     S
C1261  O1312   1.289   .     A
C1261  O1303   1.287   .     A
C1262  C1264   1.392   .     A
C1262  H1293   1.086   .     S
C1263  C1281   1.408   .     A
C1263  C1282   1.391   .     A
C1263  C1272   1.408   .     S
C1264  C1280   1.407   .     A
C1265  C1271   1.468   .     S
C1265  N1300   1.378   .     A
C1266  C1273   1.473   .     S
C1266  N1299   1.369   .     A
C1266  C188    1.426   1_556 S
C1267  N1301   1.423   .     S
C1267  N1299   1.367   .     A
C1267  C185    1.434   1_556 S
C1268  N1302   1.426   .     S
C1268  N1300   1.379   .     A
C1269  C1280   1.487   .     S
C1269  O1318   1.221   .     D
C1269  O1304   1.399   .     S
C1270  O1306   1.399   .     S
C1270  O1305   1.221   .     D
C1270  C1281   1.487   .     S
C1271  O1307   1.221   .     D
C1271  O1308   1.396   .     S
C1272  O1313   1.288   .     A
C1272  O1311   1.290   .     A
C1273  O1309   1.220   .     D
C1273  O1310   1.397   .     S
C1274  H1286   1.109   .     S
C1274  N1301   1.449   .     S
C1274  H1285   1.110   .     S
C1274  H1284   1.112   .     S
C1275  H1289   1.110   .     S
C1275  H1288   1.106   .     S
C1275  N1302   1.451   .     S
C1276  O1316   1.290   .     A
C1276  O1314   1.285   .     A
C1276  C1278   1.401   .     S
C1277  O1315   1.288   .     A
C1277  O1317   1.288   .     A
C1277  C1279   1.401   .     S
C1278  C1399   1.328   1_455 S
C1278  H1403   1.083   1_455 S
C1279  C1338   1.328   .     S
C1279  H1351   1.088   .     S
C1281  C1442   1.379   .     S
C1282  H1292   1.085   .     S
C1282  C1460   1.378   .     S
H1283  C1338   1.083   .     S
H1287  N1302   1.021   .     S
H1290  C195    1.112   1_556 S
H1291  C1399   1.088   1_455 S
H1294  O1304   1.014   .     S
H1295  O1306   1.014   .     S
H1296  O1308   1.013   .     S
H1297  O1310   1.013   .     S
H1298  N1301   1.031   .     S
N1299  Zn1319  2.033   .     S
N1300  Zn1320  2.033   .     S
O1303  Zn1319  1.986   .     S
O1311  Zn1320  1.986   .     S
O1312  Zn1320  1.977   .     S
O1313  Zn1319  1.977   .     S
O1314  Zn1319  1.967   .     S
O1315  Zn1320  1.967   .     S
O1316  Zn1320  1.974   .     S
O1317  Zn1319  1.974   .     S
C1321  C1324   1.407   .     S
C1321  O1372   1.289   .     A
C1321  O1363   1.287   .     A
C1322  C1324   1.392   .     A
C1322  H1353   1.086   .     S
C1323  C1341   1.408   .     A
C1323  C1342   1.391   .     A
C1323  C1332   1.408   .     S
C1324  C1340   1.407   .     A
C1325  C1331   1.468   .     S
C1325  N1360   1.378   .     A
C1326  C1333   1.473   .     S
C1326  N1359   1.369   .     A
C1326  C248    1.426   1_556 S
C1327  N1361   1.423   .     S
C1327  N1359   1.367   .     A
C1327  C245    1.434   1_556 S
C1328  N1362   1.426   .     S
C1328  N1360   1.379   .     A
C1329  C1340   1.487   .     S
C1329  O1378   1.221   .     D
C1329  O1364   1.399   .     S
C1330  O1366   1.399   .     S
C1330  O1365   1.221   .     D
C1330  C1341   1.487   .     S
C1331  O1367   1.221   .     D
C1331  O1368   1.396   .     S
C1332  O1373   1.288   .     A
C1332  O1371   1.290   .     A
C1333  O1369   1.220   .     D
C1333  O1370   1.397   .     S
C1334  H1346   1.109   .     S
C1334  N1361   1.449   .     S
C1334  H1345   1.110   .     S
C1334  H1344   1.112   .     S
C1335  H1349   1.110   .     S
C1335  H1348   1.106   .     S
C1335  N1362   1.451   .     S
C1336  O1376   1.290   .     A
C1336  O1374   1.285   .     A
C1336  C1338   1.401   .     S
C1337  O1375   1.288   .     A
C1337  O1377   1.288   .     A
C1337  C1339   1.401   .     S
C1339  C1398   1.328   .     S
C1339  H1411   1.088   .     S
C1341  C1502   1.379   .     S
C1342  H1352   1.085   .     S
C1342  C1520   1.378   .     S
H1343  C1398   1.083   .     S
H1347  N1362   1.021   .     S
H1350  C255    1.112   1_556 S
H1354  O1364   1.014   .     S
H1355  O1366   1.014   .     S
H1356  O1368   1.013   .     S
H1357  O1370   1.013   .     S
H1358  N1361   1.031   .     S
N1359  Zn1379  2.033   .     S
N1360  Zn1380  2.033   .     S
O1363  Zn1379  1.986   .     S
O1371  Zn1380  1.986   .     S
O1372  Zn1380  1.977   .     S
O1373  Zn1379  1.977   .     S
O1374  Zn1379  1.967   .     S
O1375  Zn1380  1.967   .     S
O1376  Zn1380  1.974   .     S
O1377  Zn1379  1.974   .     S
C1381  C1384   1.407   .     S
C1381  O1432   1.289   .     A
C1381  O1423   1.287   .     A
C1382  C1384   1.392   .     A
C1382  H1413   1.086   .     S
C1383  C1401   1.408   .     A
C1383  C1402   1.391   .     A
C1383  C1392   1.408   .     S
C1384  C1400   1.407   .     A
C1385  C1391   1.468   .     S
C1385  N1420   1.378   .     A
C1386  C1393   1.473   .     S
C1386  N1419   1.369   .     A
C1386  C308    1.426   1_556 S
C1387  N1421   1.423   .     S
C1387  N1419   1.367   .     A
C1387  C305    1.434   1_556 S
C1388  N1422   1.426   .     S
C1388  N1420   1.379   .     A
C1389  C1400   1.487   .     S
C1389  O1438   1.221   .     D
C1389  O1424   1.399   .     S
C1390  O1426   1.399   .     S
C1390  O1425   1.221   .     D
C1390  C1401   1.487   .     S
C1391  O1427   1.221   .     D
C1391  O1428   1.396   .     S
C1392  O1433   1.288   .     A
C1392  O1431   1.290   .     A
C1393  O1429   1.220   .     D
C1393  O1430   1.397   .     S
C1394  H1406   1.109   .     S
C1394  N1421   1.449   .     S
C1394  H1405   1.110   .     S
C1394  H1404   1.112   .     S
C1395  H1409   1.110   .     S
C1395  H1408   1.106   .     S
C1395  N1422   1.451   .     S
C1396  O1436   1.290   .     A
C1396  O1434   1.285   .     A
C1396  C1398   1.401   .     S
C1397  O1435   1.288   .     A
C1397  O1437   1.288   .     A
C1397  C1399   1.401   .     S
C1399  C1278   1.328   1_655 S
C1399  H1291   1.088   1_655 S
C1401  C1562   1.379   .     S
C1402  H1412   1.085   .     S
C1402  C1580   1.378   .     S
H1403  C1278   1.083   1_655 S
H1407  N1422   1.021   .     S
H1410  C315    1.112   1_556 S
H1414  O1424   1.014   .     S
H1415  O1426   1.014   .     S
H1416  O1428   1.013   .     S
H1417  O1430   1.013   .     S
H1418  N1421   1.031   .     S
N1419  Zn1439  2.033   .     S
N1420  Zn1440  2.033   .     S
O1423  Zn1439  1.986   .     S
O1431  Zn1440  1.986   .     S
O1432  Zn1440  1.977   .     S
O1433  Zn1439  1.977   .     S
O1434  Zn1439  1.967   .     S
O1435  Zn1440  1.967   .     S
O1436  Zn1440  1.974   .     S
O1437  Zn1439  1.974   .     S
C1441  C1444   1.407   .     S
C1441  O1492   1.289   .     A
C1441  O1483   1.287   .     A
C1442  C1444   1.392   .     A
C1442  H1473   1.086   .     S
C1443  C1461   1.408   .     A
C1443  C1462   1.391   .     A
C1443  C1452   1.408   .     S
C1444  C1460   1.407   .     A
C1445  C1451   1.468   .     S
C1445  N1480   1.378   .     A
C1446  C1453   1.473   .     S
C1446  N1479   1.369   .     A
C1446  C368    1.426   1_556 S
C1447  N1481   1.423   .     S
C1447  N1479   1.367   .     A
C1447  C365    1.434   1_556 S
C1448  N1482   1.426   .     S
C1448  N1480   1.379   .     A
C1449  C1460   1.487   .     S
C1449  O1498   1.221   .     D
C1449  O1484   1.399   .     S
C1450  O1486   1.399   .     S
C1450  O1485   1.221   .     D
C1450  C1461   1.487   .     S
C1451  O1487   1.221   .     D
C1451  O1488   1.396   .     S
C1452  O1493   1.288   .     A
C1452  O1491   1.290   .     A
C1453  O1489   1.220   .     D
C1453  O1490   1.397   .     S
C1454  H1466   1.109   .     S
C1454  N1481   1.449   .     S
C1454  H1465   1.110   .     S
C1454  H1464   1.112   .     S
C1455  H1469   1.110   .     S
C1455  H1468   1.106   .     S
C1455  N1482   1.451   .     S
C1456  O1496   1.290   .     A
C1456  O1494   1.285   .     A
C1456  C1458   1.401   .     S
C1457  O1495   1.288   .     A
C1457  O1497   1.288   .     A
C1457  C1459   1.401   .     S
C1458  C1579   1.328   1_455 S
C1458  H1583   1.083   1_455 S
C1459  C1518   1.328   .     S
C1459  H1531   1.088   .     S
C1461  C1082   1.379   1_565 S
C1462  H1472   1.085   .     S
C1462  C1100   1.378   1_565 S
H1463  C1518   1.083   .     S
H1467  N1482   1.021   .     S
H1470  C375    1.112   1_556 S
H1471  C1579   1.088   1_455 S
H1474  O1484   1.014   .     S
H1475  O1486   1.014   .     S
H1476  O1488   1.013   .     S
H1477  O1490   1.013   .     S
H1478  N1481   1.031   .     S
N1479  Zn1499  2.033   .     S
N1480  Zn1500  2.033   .     S
O1483  Zn1499  1.986   .     S
O1491  Zn1500  1.986   .     S
O1492  Zn1500  1.977   .     S
O1493  Zn1499  1.977   .     S
O1494  Zn1499  1.967   .     S
O1495  Zn1500  1.967   .     S
O1496  Zn1500  1.974   .     S
O1497  Zn1499  1.974   .     S
C1501  C1504   1.407   .     S
C1501  O1552   1.289   .     A
C1501  O1543   1.287   .     A
C1502  C1504   1.392   .     A
C1502  H1533   1.086   .     S
C1503  C1521   1.408   .     A
C1503  C1522   1.391   .     A
C1503  C1512   1.408   .     S
C1504  C1520   1.407   .     A
C1505  C1511   1.468   .     S
C1505  N1540   1.378   .     A
C1506  C1513   1.473   .     S
C1506  N1539   1.369   .     A
C1506  C428    1.426   1_556 S
C1507  N1541   1.423   .     S
C1507  N1539   1.367   .     A
C1507  C425    1.434   1_556 S
C1508  N1542   1.426   .     S
C1508  N1540   1.379   .     A
C1509  C1520   1.487   .     S
C1509  O1558   1.221   .     D
C1509  O1544   1.399   .     S
C1510  O1546   1.399   .     S
C1510  O1545   1.221   .     D
C1510  C1521   1.487   .     S
C1511  O1547   1.221   .     D
C1511  O1548   1.396   .     S
C1512  O1553   1.288   .     A
C1512  O1551   1.290   .     A
C1513  O1549   1.220   .     D
C1513  O1550   1.397   .     S
C1514  H1526   1.109   .     S
C1514  N1541   1.449   .     S
C1514  H1525   1.110   .     S
C1514  H1524   1.112   .     S
C1515  H1529   1.110   .     S
C1515  H1528   1.106   .     S
C1515  N1542   1.451   .     S
C1516  O1556   1.290   .     A
C1516  O1554   1.285   .     A
C1516  C1518   1.401   .     S
C1517  O1555   1.288   .     A
C1517  O1557   1.288   .     A
C1517  C1519   1.401   .     S
C1519  C1578   1.328   .     S
C1519  H1591   1.088   .     S
C1521  C1142   1.379   1_565 S
C1522  H1532   1.085   .     S
C1522  C1160   1.378   1_565 S
H1523  C1578   1.083   .     S
H1527  N1542   1.021   .     S
H1530  C435    1.112   1_556 S
H1534  O1544   1.014   .     S
H1535  O1546   1.014   .     S
H1536  O1548   1.013   .     S
H1537  O1550   1.013   .     S
H1538  N1541   1.031   .     S
N1539  Zn1559  2.033   .     S
N1540  Zn1560  2.033   .     S
O1543  Zn1559  1.986   .     S
O1551  Zn1560  1.986   .     S
O1552  Zn1560  1.977   .     S
O1553  Zn1559  1.977   .     S
O1554  Zn1559  1.967   .     S
O1555  Zn1560  1.967   .     S
O1556  Zn1560  1.974   .     S
O1557  Zn1559  1.974   .     S
C1561  C1564   1.407   .     S
C1561  O1612   1.289   .     A
C1561  O1603   1.287   .     A
C1562  C1564   1.392   .     A
C1562  H1593   1.086   .     S
C1563  C1581   1.408   .     A
C1563  C1582   1.391   .     A
C1563  C1572   1.408   .     S
C1564  C1580   1.407   .     A
C1565  C1571   1.468   .     S
C1565  N1600   1.378   .     A
C1566  C1573   1.473   .     S
C1566  N1599   1.369   .     A
C1566  C488    1.426   1_556 S
C1567  N1601   1.423   .     S
C1567  N1599   1.367   .     A
C1567  C485    1.434   1_556 S
C1568  N1602   1.426   .     S
C1568  N1600   1.379   .     A
C1569  C1580   1.487   .     S
C1569  O1618   1.221   .     D
C1569  O1604   1.399   .     S
C1570  O1606   1.399   .     S
C1570  O1605   1.221   .     D
C1570  C1581   1.487   .     S
C1571  O1607   1.221   .     D
C1571  O1608   1.396   .     S
C1572  O1613   1.288   .     A
C1572  O1611   1.290   .     A
C1573  O1609   1.220   .     D
C1573  O1610   1.397   .     S
C1574  H1586   1.109   .     S
C1574  N1601   1.449   .     S
C1574  H1585   1.110   .     S
C1574  H1584   1.112   .     S
C1575  H1589   1.110   .     S
C1575  H1588   1.106   .     S
C1575  N1602   1.451   .     S
C1576  O1616   1.290   .     A
C1576  O1614   1.285   .     A
C1576  C1578   1.401   .     S
C1577  O1615   1.288   .     A
C1577  O1617   1.288   .     A
C1577  C1579   1.401   .     S
C1579  C1458   1.328   1_655 S
C1579  H1471   1.088   1_655 S
C1581  C1202   1.379   1_565 S
C1582  H1592   1.085   .     S
C1582  C1220   1.378   1_565 S
H1583  C1458   1.083   1_655 S
H1587  N1602   1.021   .     S
H1590  C495    1.112   1_556 S
H1594  O1604   1.014   .     S
H1595  O1606   1.014   .     S
H1596  O1608   1.013   .     S
H1597  O1610   1.013   .     S
H1598  N1601   1.031   .     S
N1599  Zn1619  2.033   .     S
N1600  Zn1620  2.033   .     S
O1603  Zn1619  1.986   .     S
O1611  Zn1620  1.986   .     S
O1612  Zn1620  1.977   .     S
O1613  Zn1619  1.977   .     S
O1614  Zn1619  1.967   .     S
O1615  Zn1620  1.967   .     S
O1616  Zn1620  1.974   .     S
O1617  Zn1619  1.974   .     S
