data_str_m3_o1_o16_pcu_sym.89
_audit_creation_date              2020-01-03
_audit_creation_method            'Materials Studio'
_symmetry_space_group_name_H-M    'P1'
_symmetry_Int_Tables_number       1
_symmetry_cell_setting            triclinic
loop_
_symmetry_equiv_pos_as_xyz
  x,y,z
_cell_length_a                    29.7218
_cell_length_b                    31.8817
_cell_length_c                    26.5322
_cell_angle_alpha                 90.1182
_cell_angle_beta                  71.8895
_cell_angle_gamma                 88.9569
loop_
_atom_site_label
_atom_site_type_symbol
_atom_site_fract_x
_atom_site_fract_y
_atom_site_fract_z
_atom_site_U_iso_or_equiv
_atom_site_adp_type
_atom_site_occupancy
C1     C     0.16636   0.24652   0.24992   0.00000  Uiso   1.00
C2     C     0.14817   0.18835   0.48902   0.00000  Uiso   1.00
C3     C     0.16239   0.18997   0.43334   0.00000  Uiso   1.00
C4     C     0.18369   0.18035   0.01352   0.00000  Uiso   1.00
C5     C     0.23099   0.17045   0.48207   0.00000  Uiso   1.00
C6     C     0.24478   0.18080   0.42856   0.00000  Uiso   1.00
C7     C     0.21101   0.19441   0.40619   0.00000  Uiso   1.00
C8     C     0.17348   0.18092   0.06805   0.00000  Uiso   1.00
C9     C     0.25120   0.15194   0.06087   0.00000  Uiso   1.00
C10    C     0.12788   0.18617   0.40677   0.00000  Uiso   1.00
C11    C     0.20207   0.31019   0.20956   0.00000  Uiso   1.00
C12    C     0.14135   0.17272   0.35073   0.00000  Uiso   1.00
C13    C     0.20303   0.02014   0.20815   0.00000  Uiso   1.00
C14    C     0.16801   0.04249   0.24767   0.00000  Uiso   1.00
C15    C     0.13173   0.02242   0.28591   0.00000  Uiso   1.00
C16    C     0.13068   0.31278   0.28618   0.00000  Uiso   1.00
C17    C     0.16617   0.29055   0.24846   0.00000  Uiso   1.00
C18    C     0.31689   0.13518   0.22574   0.00000  Uiso   1.00
C19    C     0.03140   0.13529   0.22546   0.00000  Uiso   1.00
C20    C     0.01586   0.19825   0.27480   0.00000  Uiso   1.00
C21    C     0.30188   0.19842   0.27340   0.00000  Uiso   1.00
C22    C     0.16727   0.08676   0.24895   0.00000  Uiso   1.00
C23    C     0.19239   0.16643   0.14869   0.00000  Uiso   1.00
C24    C     0.26347   0.15267   0.00567   0.00000  Uiso   1.00
C25    C     0.20684   0.16719   0.09156   0.00000  Uiso   1.00
C26    C     0.08022   0.19320   0.43515   0.00000  Uiso   1.00
C27    C     0.06600   0.19695   0.49011   0.00000  Uiso   1.00
C28    C     0.09916   0.19253   0.01720   0.00000  Uiso   1.00
H29    H     0.27555   0.13868   0.07994   0.00000  Uiso   1.00
H30    H     0.10468   0.04008   0.31575   0.00000  Uiso   1.00
H31    H     0.10317   0.29689   0.31631   0.00000  Uiso   1.00
H32    H     0.30505   0.11002   0.20607   0.00000  Uiso   1.00
H33    H     0.05534   0.11016   0.20560   0.00000  Uiso   1.00
H34    H     0.27813   0.22434   0.29065   0.00000  Uiso   1.00
H35    H     0.28149   0.18011   0.40419   0.00000  Uiso   1.00
H36    H     0.13983   0.19291   0.09310   0.00000  Uiso   1.00
H37    H     0.05412   0.19537   0.41461   0.00000  Uiso   1.00
H38    H     0.08519   0.19196   0.05983   0.00000  Uiso   1.00
H39    H     0.02881   0.20126   0.01199   0.00000  Uiso   1.00
H40    H     0.22347   0.20785   0.36735   0.00000  Uiso   1.00
H41    H     0.22866   0.29169   0.18022   0.00000  Uiso   1.00
N42    N     0.04760   0.16668   0.25002   0.00000  Uiso   1.00
N43    N     0.28573   0.16665   0.25001   0.00000  Uiso   1.00
O44    O     0.12846   0.22775   0.25001   0.00000  Uiso   1.00
O45    O     0.20490   0.22774   0.25001   0.00000  Uiso   1.00
O46    O     0.10947   0.16666   0.32681   0.00000  Uiso   1.00
O47    O     0.18591   0.16665   0.32681   0.00000  Uiso   1.00
O48    O     0.12843   0.10559   0.25000   0.00000  Uiso   1.00
O49    O     0.20488   0.10558   0.25000   0.00000  Uiso   1.00
O50    O     0.14742   0.16668   0.17319   0.00000  Uiso   1.00
O51    O     0.22387   0.16667   0.17319   0.00000  Uiso   1.00
Zn52   Zn    0.11562   0.16667   0.25000   0.00000  Uiso   1.00
Zn53   Zn    0.21771   0.16666   0.25000   0.00000  Uiso   1.00
C54    C     0.23986   0.04154   0.16388   0.00000  Uiso   1.00
H55    H     0.22256   0.06432   0.14383   0.00000  Uiso   1.00
H56    H     0.26481   0.05808   0.18003   0.00000  Uiso   1.00
H57    H     0.26074   0.01870   0.13356   0.00000  Uiso   1.00
C58    C     0.02994   0.23384   0.30332   0.00000  Uiso   1.00
H59    H     0.05226   0.22254   0.32703   0.00000  Uiso   1.00
H60    H     0.04837   0.25769   0.27424   0.00000  Uiso   1.00
H61    H     0.33177   0.24955   0.33154   0.00000  Uiso   1.00
C62    C     0.30820   0.13028   0.47327   0.00000  Uiso   1.00
H63    H     0.29894   0.10323   0.45227   0.00000  Uiso   1.00
H64    H     0.33053   0.15138   0.44358   0.00000  Uiso   1.00
H65    H     0.32933   0.11831   0.49832   0.00000  Uiso   1.00
C66    C     0.49970   0.24652   0.24992   0.00000  Uiso   1.00
C67    C     0.48151   0.18835   0.48902   0.00000  Uiso   1.00
C68    C     0.49572   0.18997   0.43334   0.00000  Uiso   1.00
C69    C     0.51702   0.18035   0.01352   0.00000  Uiso   1.00
C70    C     0.56433   0.17045   0.48207   0.00000  Uiso   1.00
C71    C     0.57812   0.18080   0.42856   0.00000  Uiso   1.00
C72    C     0.54434   0.19441   0.40619   0.00000  Uiso   1.00
C73    C     0.50682   0.18092   0.06805   0.00000  Uiso   1.00
C74    C     0.58454   0.15194   0.06087   0.00000  Uiso   1.00
C75    C     0.46122   0.18617   0.40677   0.00000  Uiso   1.00
C76    C     0.53541   0.31019   0.20956   0.00000  Uiso   1.00
C77    C     0.47468   0.17272   0.35073   0.00000  Uiso   1.00
C78    C     0.53637   0.02014   0.20815   0.00000  Uiso   1.00
C79    C     0.50134   0.04249   0.24767   0.00000  Uiso   1.00
C80    C     0.46506   0.02242   0.28591   0.00000  Uiso   1.00
C81    C     0.46401   0.31278   0.28618   0.00000  Uiso   1.00
C82    C     0.49950   0.29055   0.24846   0.00000  Uiso   1.00
C83    C     0.65022   0.13518   0.22574   0.00000  Uiso   1.00
C84    C     0.36473   0.13529   0.22546   0.00000  Uiso   1.00
C85    C     0.34919   0.19825   0.27480   0.00000  Uiso   1.00
C86    C     0.63522   0.19842   0.27340   0.00000  Uiso   1.00
C87    C     0.50060   0.08676   0.24895   0.00000  Uiso   1.00
C88    C     0.52572   0.16643   0.14869   0.00000  Uiso   1.00
C89    C     0.59680   0.15267   0.00567   0.00000  Uiso   1.00
C90    C     0.54018   0.16719   0.09156   0.00000  Uiso   1.00
C91    C     0.41355   0.19320   0.43515   0.00000  Uiso   1.00
C92    C     0.39933   0.19695   0.49011   0.00000  Uiso   1.00
C93    C     0.43249   0.19253   0.01720   0.00000  Uiso   1.00
H94    H     0.60888   0.13868   0.07994   0.00000  Uiso   1.00
H95    H     0.43802   0.04008   0.31575   0.00000  Uiso   1.00
H96    H     0.43650   0.29689   0.31631   0.00000  Uiso   1.00
H97    H     0.63839   0.11002   0.20607   0.00000  Uiso   1.00
H98    H     0.38867   0.11016   0.20560   0.00000  Uiso   1.00
H99    H     0.61146   0.22434   0.29065   0.00000  Uiso   1.00
H100   H     0.61483   0.18011   0.40419   0.00000  Uiso   1.00
H101   H     0.47316   0.19291   0.09310   0.00000  Uiso   1.00
H102   H     0.38745   0.19537   0.41461   0.00000  Uiso   1.00
H103   H     0.41853   0.19196   0.05983   0.00000  Uiso   1.00
H104   H     0.36215   0.20126   0.01199   0.00000  Uiso   1.00
H105   H     0.55680   0.20785   0.36735   0.00000  Uiso   1.00
H106   H     0.56200   0.29169   0.18022   0.00000  Uiso   1.00
N107   N     0.38093   0.16668   0.25002   0.00000  Uiso   1.00
N108   N     0.61906   0.16665   0.25001   0.00000  Uiso   1.00
O109   O     0.46179   0.22775   0.25001   0.00000  Uiso   1.00
O110   O     0.53823   0.22774   0.25001   0.00000  Uiso   1.00
O111   O     0.44280   0.16666   0.32681   0.00000  Uiso   1.00
O112   O     0.51924   0.16665   0.32681   0.00000  Uiso   1.00
O113   O     0.46177   0.10559   0.25000   0.00000  Uiso   1.00
O114   O     0.53821   0.10558   0.25000   0.00000  Uiso   1.00
O115   O     0.48076   0.16668   0.17319   0.00000  Uiso   1.00
O116   O     0.55720   0.16667   0.17319   0.00000  Uiso   1.00
Zn117  Zn    0.44896   0.16667   0.25000   0.00000  Uiso   1.00
Zn118  Zn    0.55104   0.16666   0.25000   0.00000  Uiso   1.00
C119   C     0.57320   0.04154   0.16388   0.00000  Uiso   1.00
H120   H     0.55590   0.06432   0.14383   0.00000  Uiso   1.00
H121   H     0.59814   0.05808   0.18003   0.00000  Uiso   1.00
H122   H     0.59408   0.01870   0.13356   0.00000  Uiso   1.00
C123   C     0.36327   0.23384   0.30332   0.00000  Uiso   1.00
H124   H     0.38560   0.22254   0.32703   0.00000  Uiso   1.00
H125   H     0.38170   0.25769   0.27424   0.00000  Uiso   1.00
H126   H     0.66510   0.24955   0.33154   0.00000  Uiso   1.00
C127   C     0.64153   0.13028   0.47327   0.00000  Uiso   1.00
H128   H     0.63227   0.10323   0.45227   0.00000  Uiso   1.00
H129   H     0.66387   0.15138   0.44358   0.00000  Uiso   1.00
H130   H     0.66266   0.11831   0.49832   0.00000  Uiso   1.00
C131   C     0.83303   0.24652   0.24992   0.00000  Uiso   1.00
C132   C     0.81484   0.18835   0.48902   0.00000  Uiso   1.00
C133   C     0.82906   0.18997   0.43334   0.00000  Uiso   1.00
C134   C     0.85035   0.18035   0.01352   0.00000  Uiso   1.00
C135   C     0.89766   0.17045   0.48207   0.00000  Uiso   1.00
C136   C     0.91145   0.18080   0.42856   0.00000  Uiso   1.00
C137   C     0.87768   0.19441   0.40619   0.00000  Uiso   1.00
C138   C     0.84015   0.18092   0.06805   0.00000  Uiso   1.00
C139   C     0.91787   0.15194   0.06087   0.00000  Uiso   1.00
C140   C     0.79455   0.18617   0.40677   0.00000  Uiso   1.00
C141   C     0.86874   0.31019   0.20956   0.00000  Uiso   1.00
C142   C     0.80801   0.17272   0.35073   0.00000  Uiso   1.00
C143   C     0.86970   0.02014   0.20815   0.00000  Uiso   1.00
C144   C     0.83468   0.04249   0.24767   0.00000  Uiso   1.00
C145   C     0.79840   0.02242   0.28591   0.00000  Uiso   1.00
C146   C     0.79735   0.31278   0.28618   0.00000  Uiso   1.00
C147   C     0.83283   0.29055   0.24846   0.00000  Uiso   1.00
C148   C     0.98355   0.13518   0.22574   0.00000  Uiso   1.00
C149   C     0.69806   0.13529   0.22546   0.00000  Uiso   1.00
C150   C     0.68252   0.19825   0.27480   0.00000  Uiso   1.00
C151   C     0.96855   0.19842   0.27340   0.00000  Uiso   1.00
C152   C     0.83393   0.08676   0.24895   0.00000  Uiso   1.00
C153   C     0.85905   0.16643   0.14869   0.00000  Uiso   1.00
C154   C     0.93014   0.15267   0.00567   0.00000  Uiso   1.00
C155   C     0.87351   0.16719   0.09156   0.00000  Uiso   1.00
C156   C     0.74688   0.19320   0.43515   0.00000  Uiso   1.00
C157   C     0.73266   0.19695   0.49011   0.00000  Uiso   1.00
C158   C     0.76583   0.19253   0.01720   0.00000  Uiso   1.00
H159   H     0.94221   0.13868   0.07994   0.00000  Uiso   1.00
H160   H     0.77135   0.04008   0.31575   0.00000  Uiso   1.00
H161   H     0.76983   0.29689   0.31631   0.00000  Uiso   1.00
H162   H     0.97172   0.11002   0.20607   0.00000  Uiso   1.00
H163   H     0.72200   0.11016   0.20560   0.00000  Uiso   1.00
H164   H     0.94479   0.22434   0.29065   0.00000  Uiso   1.00
H165   H     0.94816   0.18011   0.40419   0.00000  Uiso   1.00
H166   H     0.80649   0.19291   0.09310   0.00000  Uiso   1.00
H167   H     0.72078   0.19537   0.41461   0.00000  Uiso   1.00
H168   H     0.75186   0.19196   0.05983   0.00000  Uiso   1.00
H169   H     0.69548   0.20126   0.01199   0.00000  Uiso   1.00
H170   H     0.89013   0.20785   0.36735   0.00000  Uiso   1.00
H171   H     0.89533   0.29169   0.18022   0.00000  Uiso   1.00
N172   N     0.71426   0.16668   0.25002   0.00000  Uiso   1.00
N173   N     0.95239   0.16665   0.25001   0.00000  Uiso   1.00
O174   O     0.79512   0.22775   0.25001   0.00000  Uiso   1.00
O175   O     0.87157   0.22774   0.25001   0.00000  Uiso   1.00
O176   O     0.77613   0.16666   0.32681   0.00000  Uiso   1.00
O177   O     0.85258   0.16665   0.32681   0.00000  Uiso   1.00
O178   O     0.79510   0.10559   0.25000   0.00000  Uiso   1.00
O179   O     0.87154   0.10558   0.25000   0.00000  Uiso   1.00
O180   O     0.81409   0.16668   0.17319   0.00000  Uiso   1.00
O181   O     0.89053   0.16667   0.17319   0.00000  Uiso   1.00
Zn182  Zn    0.78229   0.16667   0.25000   0.00000  Uiso   1.00
Zn183  Zn    0.88438   0.16666   0.25000   0.00000  Uiso   1.00
C184   C     0.90653   0.04154   0.16388   0.00000  Uiso   1.00
H185   H     0.88923   0.06432   0.14383   0.00000  Uiso   1.00
H186   H     0.93147   0.05808   0.18003   0.00000  Uiso   1.00
H187   H     0.92741   0.01870   0.13356   0.00000  Uiso   1.00
C188   C     0.69661   0.23384   0.30332   0.00000  Uiso   1.00
H189   H     0.71893   0.22254   0.32703   0.00000  Uiso   1.00
H190   H     0.71503   0.25769   0.27424   0.00000  Uiso   1.00
H191   H     0.99843   0.24955   0.33154   0.00000  Uiso   1.00
C192   C     0.97486   0.13028   0.47327   0.00000  Uiso   1.00
H193   H     0.96561   0.10323   0.45227   0.00000  Uiso   1.00
H194   H     0.99720   0.15138   0.44358   0.00000  Uiso   1.00
H195   H     0.99600   0.11831   0.49832   0.00000  Uiso   1.00
C196   C     0.16636   0.57986   0.24992   0.00000  Uiso   1.00
C197   C     0.14817   0.52168   0.48902   0.00000  Uiso   1.00
C198   C     0.16239   0.52330   0.43334   0.00000  Uiso   1.00
C199   C     0.18369   0.51369   0.01352   0.00000  Uiso   1.00
C200   C     0.23099   0.50379   0.48207   0.00000  Uiso   1.00
C201   C     0.24478   0.51413   0.42856   0.00000  Uiso   1.00
C202   C     0.21101   0.52775   0.40619   0.00000  Uiso   1.00
C203   C     0.17348   0.51425   0.06805   0.00000  Uiso   1.00
C204   C     0.25120   0.48528   0.06087   0.00000  Uiso   1.00
C205   C     0.12788   0.51950   0.40677   0.00000  Uiso   1.00
C206   C     0.20207   0.64353   0.20956   0.00000  Uiso   1.00
C207   C     0.14135   0.50605   0.35073   0.00000  Uiso   1.00
C208   C     0.20303   0.35348   0.20815   0.00000  Uiso   1.00
C209   C     0.16801   0.37582   0.24767   0.00000  Uiso   1.00
C210   C     0.13173   0.35576   0.28591   0.00000  Uiso   1.00
C211   C     0.13068   0.64611   0.28618   0.00000  Uiso   1.00
C212   C     0.16617   0.62388   0.24846   0.00000  Uiso   1.00
C213   C     0.31689   0.46851   0.22574   0.00000  Uiso   1.00
C214   C     0.03140   0.46862   0.22546   0.00000  Uiso   1.00
C215   C     0.01586   0.53158   0.27480   0.00000  Uiso   1.00
C216   C     0.30188   0.53175   0.27340   0.00000  Uiso   1.00
C217   C     0.16727   0.42010   0.24895   0.00000  Uiso   1.00
C218   C     0.19239   0.49976   0.14869   0.00000  Uiso   1.00
C219   C     0.26347   0.48601   0.00567   0.00000  Uiso   1.00
C220   C     0.20684   0.50053   0.09156   0.00000  Uiso   1.00
C221   C     0.08022   0.52653   0.43515   0.00000  Uiso   1.00
C222   C     0.06600   0.53028   0.49011   0.00000  Uiso   1.00
C223   C     0.09916   0.52587   0.01720   0.00000  Uiso   1.00
H224   H     0.27555   0.47201   0.07994   0.00000  Uiso   1.00
H225   H     0.10468   0.37342   0.31575   0.00000  Uiso   1.00
H226   H     0.10317   0.63023   0.31631   0.00000  Uiso   1.00
H227   H     0.30505   0.44335   0.20607   0.00000  Uiso   1.00
H228   H     0.05534   0.44349   0.20560   0.00000  Uiso   1.00
H229   H     0.27813   0.55767   0.29065   0.00000  Uiso   1.00
H230   H     0.28149   0.51344   0.40419   0.00000  Uiso   1.00
H231   H     0.13983   0.52624   0.09310   0.00000  Uiso   1.00
H232   H     0.05412   0.52871   0.41461   0.00000  Uiso   1.00
H233   H     0.08519   0.52529   0.05983   0.00000  Uiso   1.00
H234   H     0.02881   0.53460   0.01199   0.00000  Uiso   1.00
H235   H     0.22347   0.54118   0.36735   0.00000  Uiso   1.00
H236   H     0.22866   0.62503   0.18022   0.00000  Uiso   1.00
N237   N     0.04760   0.50001   0.25002   0.00000  Uiso   1.00
N238   N     0.28573   0.49998   0.25001   0.00000  Uiso   1.00
O239   O     0.12846   0.56108   0.25001   0.00000  Uiso   1.00
O240   O     0.20490   0.56107   0.25001   0.00000  Uiso   1.00
O241   O     0.10947   0.50000   0.32681   0.00000  Uiso   1.00
O242   O     0.18591   0.49999   0.32681   0.00000  Uiso   1.00
O243   O     0.12843   0.43893   0.25000   0.00000  Uiso   1.00
O244   O     0.20488   0.43892   0.25000   0.00000  Uiso   1.00
O245   O     0.14742   0.50001   0.17319   0.00000  Uiso   1.00
O246   O     0.22387   0.50000   0.17319   0.00000  Uiso   1.00
Zn247  Zn    0.11562   0.50001   0.25000   0.00000  Uiso   1.00
Zn248  Zn    0.21771   0.49999   0.25000   0.00000  Uiso   1.00
C249   C     0.23986   0.37487   0.16388   0.00000  Uiso   1.00
H250   H     0.22256   0.39765   0.14383   0.00000  Uiso   1.00
H251   H     0.26481   0.39141   0.18003   0.00000  Uiso   1.00
H252   H     0.26074   0.35203   0.13356   0.00000  Uiso   1.00
C253   C     0.02994   0.56717   0.30332   0.00000  Uiso   1.00
H254   H     0.05226   0.55588   0.32703   0.00000  Uiso   1.00
H255   H     0.04837   0.59102   0.27424   0.00000  Uiso   1.00
H256   H     0.33177   0.58288   0.33154   0.00000  Uiso   1.00
C257   C     0.30820   0.46362   0.47327   0.00000  Uiso   1.00
H258   H     0.29894   0.43656   0.45227   0.00000  Uiso   1.00
H259   H     0.33053   0.48471   0.44358   0.00000  Uiso   1.00
H260   H     0.32933   0.45164   0.49832   0.00000  Uiso   1.00
C261   C     0.49970   0.57986   0.24992   0.00000  Uiso   1.00
C262   C     0.48151   0.52168   0.48902   0.00000  Uiso   1.00
C263   C     0.49572   0.52330   0.43334   0.00000  Uiso   1.00
C264   C     0.51702   0.51369   0.01352   0.00000  Uiso   1.00
C265   C     0.56433   0.50379   0.48207   0.00000  Uiso   1.00
C266   C     0.57812   0.51413   0.42856   0.00000  Uiso   1.00
C267   C     0.54434   0.52775   0.40619   0.00000  Uiso   1.00
C268   C     0.50682   0.51425   0.06805   0.00000  Uiso   1.00
C269   C     0.58454   0.48528   0.06087   0.00000  Uiso   1.00
C270   C     0.46122   0.51950   0.40677   0.00000  Uiso   1.00
C271   C     0.53541   0.64353   0.20956   0.00000  Uiso   1.00
C272   C     0.47468   0.50605   0.35073   0.00000  Uiso   1.00
C273   C     0.53637   0.35348   0.20815   0.00000  Uiso   1.00
C274   C     0.50134   0.37582   0.24767   0.00000  Uiso   1.00
C275   C     0.46506   0.35576   0.28591   0.00000  Uiso   1.00
C276   C     0.46401   0.64611   0.28618   0.00000  Uiso   1.00
C277   C     0.49950   0.62388   0.24846   0.00000  Uiso   1.00
C278   C     0.65022   0.46851   0.22574   0.00000  Uiso   1.00
C279   C     0.36473   0.46862   0.22546   0.00000  Uiso   1.00
C280   C     0.34919   0.53158   0.27480   0.00000  Uiso   1.00
C281   C     0.63522   0.53175   0.27340   0.00000  Uiso   1.00
C282   C     0.50060   0.42010   0.24895   0.00000  Uiso   1.00
C283   C     0.52572   0.49976   0.14869   0.00000  Uiso   1.00
C284   C     0.59680   0.48601   0.00567   0.00000  Uiso   1.00
C285   C     0.54018   0.50053   0.09156   0.00000  Uiso   1.00
C286   C     0.41355   0.52653   0.43515   0.00000  Uiso   1.00
C287   C     0.39933   0.53028   0.49011   0.00000  Uiso   1.00
C288   C     0.43249   0.52587   0.01720   0.00000  Uiso   1.00
H289   H     0.60888   0.47201   0.07994   0.00000  Uiso   1.00
H290   H     0.43802   0.37342   0.31575   0.00000  Uiso   1.00
H291   H     0.43650   0.63023   0.31631   0.00000  Uiso   1.00
H292   H     0.63839   0.44335   0.20607   0.00000  Uiso   1.00
H293   H     0.38867   0.44349   0.20560   0.00000  Uiso   1.00
H294   H     0.61146   0.55767   0.29065   0.00000  Uiso   1.00
H295   H     0.61483   0.51344   0.40419   0.00000  Uiso   1.00
H296   H     0.47316   0.52624   0.09310   0.00000  Uiso   1.00
H297   H     0.38745   0.52871   0.41461   0.00000  Uiso   1.00
H298   H     0.41853   0.52529   0.05983   0.00000  Uiso   1.00
H299   H     0.36215   0.53460   0.01199   0.00000  Uiso   1.00
H300   H     0.55680   0.54118   0.36735   0.00000  Uiso   1.00
H301   H     0.56200   0.62503   0.18022   0.00000  Uiso   1.00
N302   N     0.38093   0.50001   0.25002   0.00000  Uiso   1.00
N303   N     0.61906   0.49998   0.25001   0.00000  Uiso   1.00
O304   O     0.46179   0.56108   0.25001   0.00000  Uiso   1.00
O305   O     0.53823   0.56107   0.25001   0.00000  Uiso   1.00
O306   O     0.44280   0.50000   0.32681   0.00000  Uiso   1.00
O307   O     0.51924   0.49999   0.32681   0.00000  Uiso   1.00
O308   O     0.46177   0.43893   0.25000   0.00000  Uiso   1.00
O309   O     0.53821   0.43892   0.25000   0.00000  Uiso   1.00
O310   O     0.48076   0.50001   0.17319   0.00000  Uiso   1.00
O311   O     0.55720   0.50000   0.17319   0.00000  Uiso   1.00
Zn312  Zn    0.44896   0.50001   0.25000   0.00000  Uiso   1.00
Zn313  Zn    0.55104   0.49999   0.25000   0.00000  Uiso   1.00
C314   C     0.57320   0.37487   0.16388   0.00000  Uiso   1.00
H315   H     0.55590   0.39765   0.14383   0.00000  Uiso   1.00
H316   H     0.59814   0.39141   0.18003   0.00000  Uiso   1.00
H317   H     0.59408   0.35203   0.13356   0.00000  Uiso   1.00
C318   C     0.36327   0.56717   0.30332   0.00000  Uiso   1.00
H319   H     0.38560   0.55588   0.32703   0.00000  Uiso   1.00
H320   H     0.38170   0.59102   0.27424   0.00000  Uiso   1.00
H321   H     0.66510   0.58288   0.33154   0.00000  Uiso   1.00
C322   C     0.64153   0.46362   0.47327   0.00000  Uiso   1.00
H323   H     0.63227   0.43656   0.45227   0.00000  Uiso   1.00
H324   H     0.66387   0.48471   0.44358   0.00000  Uiso   1.00
H325   H     0.66266   0.45164   0.49832   0.00000  Uiso   1.00
C326   C     0.83303   0.57986   0.24992   0.00000  Uiso   1.00
C327   C     0.81484   0.52168   0.48902   0.00000  Uiso   1.00
C328   C     0.82906   0.52330   0.43334   0.00000  Uiso   1.00
C329   C     0.85035   0.51369   0.01352   0.00000  Uiso   1.00
C330   C     0.89766   0.50379   0.48207   0.00000  Uiso   1.00
C331   C     0.91145   0.51413   0.42856   0.00000  Uiso   1.00
C332   C     0.87768   0.52775   0.40619   0.00000  Uiso   1.00
C333   C     0.84015   0.51425   0.06805   0.00000  Uiso   1.00
C334   C     0.91787   0.48528   0.06087   0.00000  Uiso   1.00
C335   C     0.79455   0.51950   0.40677   0.00000  Uiso   1.00
C336   C     0.86874   0.64353   0.20956   0.00000  Uiso   1.00
C337   C     0.80801   0.50605   0.35073   0.00000  Uiso   1.00
C338   C     0.86970   0.35348   0.20815   0.00000  Uiso   1.00
C339   C     0.83468   0.37582   0.24767   0.00000  Uiso   1.00
C340   C     0.79840   0.35576   0.28591   0.00000  Uiso   1.00
C341   C     0.79735   0.64611   0.28618   0.00000  Uiso   1.00
C342   C     0.83283   0.62388   0.24846   0.00000  Uiso   1.00
C343   C     0.98355   0.46851   0.22574   0.00000  Uiso   1.00
C344   C     0.69806   0.46862   0.22546   0.00000  Uiso   1.00
C345   C     0.68252   0.53158   0.27480   0.00000  Uiso   1.00
C346   C     0.96855   0.53175   0.27340   0.00000  Uiso   1.00
C347   C     0.83393   0.42010   0.24895   0.00000  Uiso   1.00
C348   C     0.85905   0.49976   0.14869   0.00000  Uiso   1.00
C349   C     0.93014   0.48601   0.00567   0.00000  Uiso   1.00
C350   C     0.87351   0.50053   0.09156   0.00000  Uiso   1.00
C351   C     0.74688   0.52653   0.43515   0.00000  Uiso   1.00
C352   C     0.73266   0.53028   0.49011   0.00000  Uiso   1.00
C353   C     0.76583   0.52587   0.01720   0.00000  Uiso   1.00
H354   H     0.94221   0.47201   0.07994   0.00000  Uiso   1.00
H355   H     0.77135   0.37342   0.31575   0.00000  Uiso   1.00
H356   H     0.76983   0.63023   0.31631   0.00000  Uiso   1.00
H357   H     0.97172   0.44335   0.20607   0.00000  Uiso   1.00
H358   H     0.72200   0.44349   0.20560   0.00000  Uiso   1.00
H359   H     0.94479   0.55767   0.29065   0.00000  Uiso   1.00
H360   H     0.94816   0.51344   0.40419   0.00000  Uiso   1.00
H361   H     0.80649   0.52624   0.09310   0.00000  Uiso   1.00
H362   H     0.72078   0.52871   0.41461   0.00000  Uiso   1.00
H363   H     0.75186   0.52529   0.05983   0.00000  Uiso   1.00
H364   H     0.69548   0.53460   0.01199   0.00000  Uiso   1.00
H365   H     0.89013   0.54118   0.36735   0.00000  Uiso   1.00
H366   H     0.89533   0.62503   0.18022   0.00000  Uiso   1.00
N367   N     0.71426   0.50001   0.25002   0.00000  Uiso   1.00
N368   N     0.95239   0.49998   0.25001   0.00000  Uiso   1.00
O369   O     0.79512   0.56108   0.25001   0.00000  Uiso   1.00
O370   O     0.87157   0.56107   0.25001   0.00000  Uiso   1.00
O371   O     0.77613   0.50000   0.32681   0.00000  Uiso   1.00
O372   O     0.85258   0.49999   0.32681   0.00000  Uiso   1.00
O373   O     0.79510   0.43893   0.25000   0.00000  Uiso   1.00
O374   O     0.87154   0.43892   0.25000   0.00000  Uiso   1.00
O375   O     0.81409   0.50001   0.17319   0.00000  Uiso   1.00
O376   O     0.89053   0.50000   0.17319   0.00000  Uiso   1.00
Zn377  Zn    0.78229   0.50001   0.25000   0.00000  Uiso   1.00
Zn378  Zn    0.88438   0.49999   0.25000   0.00000  Uiso   1.00
C379   C     0.90653   0.37487   0.16388   0.00000  Uiso   1.00
H380   H     0.88923   0.39765   0.14383   0.00000  Uiso   1.00
H381   H     0.93147   0.39141   0.18003   0.00000  Uiso   1.00
H382   H     0.92741   0.35203   0.13356   0.00000  Uiso   1.00
C383   C     0.69661   0.56717   0.30332   0.00000  Uiso   1.00
H384   H     0.71893   0.55588   0.32703   0.00000  Uiso   1.00
H385   H     0.71503   0.59102   0.27424   0.00000  Uiso   1.00
H386   H     0.99843   0.58288   0.33154   0.00000  Uiso   1.00
C387   C     0.97486   0.46362   0.47327   0.00000  Uiso   1.00
H388   H     0.96561   0.43656   0.45227   0.00000  Uiso   1.00
H389   H     0.99720   0.48471   0.44358   0.00000  Uiso   1.00
H390   H     0.99600   0.45164   0.49832   0.00000  Uiso   1.00
C391   C     0.16636   0.91319   0.24992   0.00000  Uiso   1.00
C392   C     0.14817   0.85502   0.48902   0.00000  Uiso   1.00
C393   C     0.16239   0.85663   0.43334   0.00000  Uiso   1.00
C394   C     0.18369   0.84702   0.01352   0.00000  Uiso   1.00
C395   C     0.23099   0.83712   0.48207   0.00000  Uiso   1.00
C396   C     0.24478   0.84747   0.42856   0.00000  Uiso   1.00
C397   C     0.21101   0.86108   0.40619   0.00000  Uiso   1.00
C398   C     0.17348   0.84758   0.06805   0.00000  Uiso   1.00
C399   C     0.25120   0.81861   0.06087   0.00000  Uiso   1.00
C400   C     0.12788   0.85284   0.40677   0.00000  Uiso   1.00
C401   C     0.20207   0.97686   0.20956   0.00000  Uiso   1.00
C402   C     0.14135   0.83938   0.35073   0.00000  Uiso   1.00
C403   C     0.20303   0.68681   0.20815   0.00000  Uiso   1.00
C404   C     0.16801   0.70916   0.24767   0.00000  Uiso   1.00
C405   C     0.13173   0.68909   0.28591   0.00000  Uiso   1.00
C406   C     0.13068   0.97944   0.28618   0.00000  Uiso   1.00
C407   C     0.16617   0.95721   0.24846   0.00000  Uiso   1.00
C408   C     0.31689   0.80184   0.22574   0.00000  Uiso   1.00
C409   C     0.03140   0.80195   0.22546   0.00000  Uiso   1.00
C410   C     0.01586   0.86491   0.27480   0.00000  Uiso   1.00
C411   C     0.30188   0.86508   0.27340   0.00000  Uiso   1.00
C412   C     0.16727   0.75343   0.24895   0.00000  Uiso   1.00
C413   C     0.19239   0.83309   0.14869   0.00000  Uiso   1.00
C414   C     0.26347   0.81934   0.00567   0.00000  Uiso   1.00
C415   C     0.20684   0.83386   0.09156   0.00000  Uiso   1.00
C416   C     0.08022   0.85987   0.43515   0.00000  Uiso   1.00
C417   C     0.06600   0.86362   0.49011   0.00000  Uiso   1.00
C418   C     0.09916   0.85920   0.01720   0.00000  Uiso   1.00
H419   H     0.27555   0.80534   0.07994   0.00000  Uiso   1.00
H420   H     0.10468   0.70675   0.31575   0.00000  Uiso   1.00
H421   H     0.10317   0.96356   0.31631   0.00000  Uiso   1.00
H422   H     0.30505   0.77668   0.20607   0.00000  Uiso   1.00
H423   H     0.05534   0.77683   0.20560   0.00000  Uiso   1.00
H424   H     0.27813   0.89101   0.29065   0.00000  Uiso   1.00
H425   H     0.28149   0.84678   0.40419   0.00000  Uiso   1.00
H426   H     0.13983   0.85958   0.09310   0.00000  Uiso   1.00
H427   H     0.05412   0.86204   0.41461   0.00000  Uiso   1.00
H428   H     0.08519   0.85863   0.05983   0.00000  Uiso   1.00
H429   H     0.02881   0.86793   0.01199   0.00000  Uiso   1.00
H430   H     0.22347   0.87452   0.36735   0.00000  Uiso   1.00
H431   H     0.22866   0.95836   0.18022   0.00000  Uiso   1.00
N432   N     0.04760   0.83334   0.25002   0.00000  Uiso   1.00
N433   N     0.28573   0.83331   0.25001   0.00000  Uiso   1.00
O434   O     0.12846   0.89442   0.25001   0.00000  Uiso   1.00
O435   O     0.20490   0.89441   0.25001   0.00000  Uiso   1.00
O436   O     0.10947   0.83333   0.32681   0.00000  Uiso   1.00
O437   O     0.18591   0.83332   0.32681   0.00000  Uiso   1.00
O438   O     0.12843   0.77226   0.25000   0.00000  Uiso   1.00
O439   O     0.20488   0.77225   0.25000   0.00000  Uiso   1.00
O440   O     0.14742   0.83335   0.17319   0.00000  Uiso   1.00
O441   O     0.22387   0.83334   0.17319   0.00000  Uiso   1.00
Zn442  Zn    0.11562   0.83334   0.25000   0.00000  Uiso   1.00
Zn443  Zn    0.21771   0.83333   0.25000   0.00000  Uiso   1.00
C444   C     0.23986   0.70820   0.16388   0.00000  Uiso   1.00
H445   H     0.22256   0.73099   0.14383   0.00000  Uiso   1.00
H446   H     0.26481   0.72474   0.18003   0.00000  Uiso   1.00
H447   H     0.26074   0.68536   0.13356   0.00000  Uiso   1.00
C448   C     0.02994   0.90051   0.30332   0.00000  Uiso   1.00
H449   H     0.05226   0.88921   0.32703   0.00000  Uiso   1.00
H450   H     0.04837   0.92435   0.27424   0.00000  Uiso   1.00
H451   H     0.33177   0.91622   0.33154   0.00000  Uiso   1.00
C452   C     0.30820   0.79695   0.47327   0.00000  Uiso   1.00
H453   H     0.29894   0.76989   0.45227   0.00000  Uiso   1.00
H454   H     0.33053   0.81805   0.44358   0.00000  Uiso   1.00
H455   H     0.32933   0.78498   0.49832   0.00000  Uiso   1.00
C456   C     0.49970   0.91319   0.24992   0.00000  Uiso   1.00
C457   C     0.48151   0.85502   0.48902   0.00000  Uiso   1.00
C458   C     0.49572   0.85663   0.43334   0.00000  Uiso   1.00
C459   C     0.51702   0.84702   0.01352   0.00000  Uiso   1.00
C460   C     0.56433   0.83712   0.48207   0.00000  Uiso   1.00
C461   C     0.57812   0.84747   0.42856   0.00000  Uiso   1.00
C462   C     0.54434   0.86108   0.40619   0.00000  Uiso   1.00
C463   C     0.50682   0.84758   0.06805   0.00000  Uiso   1.00
C464   C     0.58454   0.81861   0.06087   0.00000  Uiso   1.00
C465   C     0.46122   0.85284   0.40677   0.00000  Uiso   1.00
C466   C     0.53541   0.97686   0.20956   0.00000  Uiso   1.00
C467   C     0.47468   0.83938   0.35073   0.00000  Uiso   1.00
C468   C     0.53637   0.68681   0.20815   0.00000  Uiso   1.00
C469   C     0.50134   0.70916   0.24767   0.00000  Uiso   1.00
C470   C     0.46506   0.68909   0.28591   0.00000  Uiso   1.00
C471   C     0.46401   0.97944   0.28618   0.00000  Uiso   1.00
C472   C     0.49950   0.95721   0.24846   0.00000  Uiso   1.00
C473   C     0.65022   0.80184   0.22574   0.00000  Uiso   1.00
C474   C     0.36473   0.80195   0.22546   0.00000  Uiso   1.00
C475   C     0.34919   0.86491   0.27480   0.00000  Uiso   1.00
C476   C     0.63522   0.86508   0.27340   0.00000  Uiso   1.00
C477   C     0.50060   0.75343   0.24895   0.00000  Uiso   1.00
C478   C     0.52572   0.83309   0.14869   0.00000  Uiso   1.00
C479   C     0.59680   0.81934   0.00567   0.00000  Uiso   1.00
C480   C     0.54018   0.83386   0.09156   0.00000  Uiso   1.00
C481   C     0.41355   0.85987   0.43515   0.00000  Uiso   1.00
C482   C     0.39933   0.86362   0.49011   0.00000  Uiso   1.00
C483   C     0.43249   0.85920   0.01720   0.00000  Uiso   1.00
H484   H     0.60888   0.80534   0.07994   0.00000  Uiso   1.00
H485   H     0.43802   0.70675   0.31575   0.00000  Uiso   1.00
H486   H     0.43650   0.96356   0.31631   0.00000  Uiso   1.00
H487   H     0.63839   0.77668   0.20607   0.00000  Uiso   1.00
H488   H     0.38867   0.77683   0.20560   0.00000  Uiso   1.00
H489   H     0.61146   0.89101   0.29065   0.00000  Uiso   1.00
H490   H     0.61483   0.84678   0.40419   0.00000  Uiso   1.00
H491   H     0.47316   0.85958   0.09310   0.00000  Uiso   1.00
H492   H     0.38745   0.86204   0.41461   0.00000  Uiso   1.00
H493   H     0.41853   0.85863   0.05983   0.00000  Uiso   1.00
H494   H     0.36215   0.86793   0.01199   0.00000  Uiso   1.00
H495   H     0.55680   0.87452   0.36735   0.00000  Uiso   1.00
H496   H     0.56200   0.95836   0.18022   0.00000  Uiso   1.00
N497   N     0.38093   0.83334   0.25002   0.00000  Uiso   1.00
N498   N     0.61906   0.83331   0.25001   0.00000  Uiso   1.00
O499   O     0.46179   0.89442   0.25001   0.00000  Uiso   1.00
O500   O     0.53823   0.89441   0.25001   0.00000  Uiso   1.00
O501   O     0.44280   0.83333   0.32681   0.00000  Uiso   1.00
O502   O     0.51924   0.83332   0.32681   0.00000  Uiso   1.00
O503   O     0.46177   0.77226   0.25000   0.00000  Uiso   1.00
O504   O     0.53821   0.77225   0.25000   0.00000  Uiso   1.00
O505   O     0.48076   0.83335   0.17319   0.00000  Uiso   1.00
O506   O     0.55720   0.83334   0.17319   0.00000  Uiso   1.00
Zn507  Zn    0.44896   0.83334   0.25000   0.00000  Uiso   1.00
Zn508  Zn    0.55104   0.83333   0.25000   0.00000  Uiso   1.00
C509   C     0.57320   0.70820   0.16388   0.00000  Uiso   1.00
H510   H     0.55590   0.73099   0.14383   0.00000  Uiso   1.00
H511   H     0.59814   0.72474   0.18003   0.00000  Uiso   1.00
H512   H     0.59408   0.68536   0.13356   0.00000  Uiso   1.00
C513   C     0.36327   0.90051   0.30332   0.00000  Uiso   1.00
H514   H     0.38560   0.88921   0.32703   0.00000  Uiso   1.00
H515   H     0.38170   0.92435   0.27424   0.00000  Uiso   1.00
H516   H     0.66510   0.91622   0.33154   0.00000  Uiso   1.00
C517   C     0.64153   0.79695   0.47327   0.00000  Uiso   1.00
H518   H     0.63227   0.76989   0.45227   0.00000  Uiso   1.00
H519   H     0.66387   0.81805   0.44358   0.00000  Uiso   1.00
H520   H     0.66266   0.78498   0.49832   0.00000  Uiso   1.00
C521   C     0.83303   0.91319   0.24992   0.00000  Uiso   1.00
C522   C     0.81484   0.85502   0.48902   0.00000  Uiso   1.00
C523   C     0.82906   0.85663   0.43334   0.00000  Uiso   1.00
C524   C     0.85035   0.84702   0.01352   0.00000  Uiso   1.00
C525   C     0.89766   0.83712   0.48207   0.00000  Uiso   1.00
C526   C     0.91145   0.84747   0.42856   0.00000  Uiso   1.00
C527   C     0.87768   0.86108   0.40619   0.00000  Uiso   1.00
C528   C     0.84015   0.84758   0.06805   0.00000  Uiso   1.00
C529   C     0.91787   0.81861   0.06087   0.00000  Uiso   1.00
C530   C     0.79455   0.85284   0.40677   0.00000  Uiso   1.00
C531   C     0.86874   0.97686   0.20956   0.00000  Uiso   1.00
C532   C     0.80801   0.83938   0.35073   0.00000  Uiso   1.00
C533   C     0.86970   0.68681   0.20815   0.00000  Uiso   1.00
C534   C     0.83468   0.70916   0.24767   0.00000  Uiso   1.00
C535   C     0.79840   0.68909   0.28591   0.00000  Uiso   1.00
C536   C     0.79735   0.97944   0.28618   0.00000  Uiso   1.00
C537   C     0.83283   0.95721   0.24846   0.00000  Uiso   1.00
C538   C     0.98355   0.80184   0.22574   0.00000  Uiso   1.00
C539   C     0.69806   0.80195   0.22546   0.00000  Uiso   1.00
C540   C     0.68252   0.86491   0.27480   0.00000  Uiso   1.00
C541   C     0.96855   0.86508   0.27340   0.00000  Uiso   1.00
C542   C     0.83393   0.75343   0.24895   0.00000  Uiso   1.00
C543   C     0.85905   0.83309   0.14869   0.00000  Uiso   1.00
C544   C     0.93014   0.81934   0.00567   0.00000  Uiso   1.00
C545   C     0.87351   0.83386   0.09156   0.00000  Uiso   1.00
C546   C     0.74688   0.85987   0.43515   0.00000  Uiso   1.00
C547   C     0.73266   0.86362   0.49011   0.00000  Uiso   1.00
C548   C     0.76583   0.85920   0.01720   0.00000  Uiso   1.00
H549   H     0.94221   0.80534   0.07994   0.00000  Uiso   1.00
H550   H     0.77135   0.70675   0.31575   0.00000  Uiso   1.00
H551   H     0.76983   0.96356   0.31631   0.00000  Uiso   1.00
H552   H     0.97172   0.77668   0.20607   0.00000  Uiso   1.00
H553   H     0.72200   0.77683   0.20560   0.00000  Uiso   1.00
H554   H     0.94479   0.89101   0.29065   0.00000  Uiso   1.00
H555   H     0.94816   0.84678   0.40419   0.00000  Uiso   1.00
H556   H     0.80649   0.85958   0.09310   0.00000  Uiso   1.00
H557   H     0.72078   0.86204   0.41461   0.00000  Uiso   1.00
H558   H     0.75186   0.85863   0.05983   0.00000  Uiso   1.00
H559   H     0.69548   0.86793   0.01199   0.00000  Uiso   1.00
H560   H     0.89013   0.87452   0.36735   0.00000  Uiso   1.00
H561   H     0.89533   0.95836   0.18022   0.00000  Uiso   1.00
N562   N     0.71426   0.83334   0.25002   0.00000  Uiso   1.00
N563   N     0.95239   0.83331   0.25001   0.00000  Uiso   1.00
O564   O     0.79512   0.89442   0.25001   0.00000  Uiso   1.00
O565   O     0.87157   0.89441   0.25001   0.00000  Uiso   1.00
O566   O     0.77613   0.83333   0.32681   0.00000  Uiso   1.00
O567   O     0.85258   0.83332   0.32681   0.00000  Uiso   1.00
O568   O     0.79510   0.77226   0.25000   0.00000  Uiso   1.00
O569   O     0.87154   0.77225   0.25000   0.00000  Uiso   1.00
O570   O     0.81409   0.83335   0.17319   0.00000  Uiso   1.00
O571   O     0.89053   0.83334   0.17319   0.00000  Uiso   1.00
Zn572  Zn    0.78229   0.83334   0.25000   0.00000  Uiso   1.00
Zn573  Zn    0.88438   0.83333   0.25000   0.00000  Uiso   1.00
C574   C     0.90653   0.70820   0.16388   0.00000  Uiso   1.00
H575   H     0.88923   0.73099   0.14383   0.00000  Uiso   1.00
H576   H     0.93147   0.72474   0.18003   0.00000  Uiso   1.00
H577   H     0.92741   0.68536   0.13356   0.00000  Uiso   1.00
C578   C     0.69661   0.90051   0.30332   0.00000  Uiso   1.00
H579   H     0.71893   0.88921   0.32703   0.00000  Uiso   1.00
H580   H     0.71503   0.92435   0.27424   0.00000  Uiso   1.00
H581   H     0.99843   0.91622   0.33154   0.00000  Uiso   1.00
C582   C     0.97486   0.79695   0.47327   0.00000  Uiso   1.00
H583   H     0.96561   0.76989   0.45227   0.00000  Uiso   1.00
H584   H     0.99720   0.81805   0.44358   0.00000  Uiso   1.00
H585   H     0.99600   0.78498   0.49832   0.00000  Uiso   1.00
C586   C     0.16636   0.24652   0.74992   0.00000  Uiso   1.00
C587   C     0.14817   0.18835   0.98902   0.00000  Uiso   1.00
C588   C     0.16239   0.18997   0.93334   0.00000  Uiso   1.00
C589   C     0.18369   0.18035   0.51352   0.00000  Uiso   1.00
C590   C     0.23099   0.17045   0.98207   0.00000  Uiso   1.00
C591   C     0.24478   0.18080   0.92856   0.00000  Uiso   1.00
C592   C     0.21101   0.19441   0.90619   0.00000  Uiso   1.00
C593   C     0.17348   0.18092   0.56805   0.00000  Uiso   1.00
C594   C     0.25120   0.15194   0.56087   0.00000  Uiso   1.00
C595   C     0.12788   0.18617   0.90677   0.00000  Uiso   1.00
C596   C     0.20207   0.31019   0.70956   0.00000  Uiso   1.00
C597   C     0.14135   0.17272   0.85073   0.00000  Uiso   1.00
C598   C     0.20303   0.02014   0.70815   0.00000  Uiso   1.00
C599   C     0.16801   0.04249   0.74767   0.00000  Uiso   1.00
C600   C     0.13173   0.02242   0.78591   0.00000  Uiso   1.00
C601   C     0.13068   0.31278   0.78618   0.00000  Uiso   1.00
C602   C     0.16617   0.29055   0.74846   0.00000  Uiso   1.00
C603   C     0.31689   0.13518   0.72574   0.00000  Uiso   1.00
C604   C     0.03140   0.13529   0.72546   0.00000  Uiso   1.00
C605   C     0.01586   0.19825   0.77480   0.00000  Uiso   1.00
C606   C     0.30188   0.19842   0.77340   0.00000  Uiso   1.00
C607   C     0.16727   0.08676   0.74895   0.00000  Uiso   1.00
C608   C     0.19239   0.16643   0.64869   0.00000  Uiso   1.00
C609   C     0.26347   0.15267   0.50567   0.00000  Uiso   1.00
C610   C     0.20684   0.16719   0.59156   0.00000  Uiso   1.00
C611   C     0.08022   0.19320   0.93515   0.00000  Uiso   1.00
C612   C     0.06600   0.19695   0.99011   0.00000  Uiso   1.00
C613   C     0.09916   0.19253   0.51720   0.00000  Uiso   1.00
H614   H     0.27555   0.13868   0.57994   0.00000  Uiso   1.00
H615   H     0.10468   0.04008   0.81575   0.00000  Uiso   1.00
H616   H     0.10317   0.29689   0.81631   0.00000  Uiso   1.00
H617   H     0.30505   0.11002   0.70607   0.00000  Uiso   1.00
H618   H     0.05534   0.11016   0.70560   0.00000  Uiso   1.00
H619   H     0.27813   0.22434   0.79065   0.00000  Uiso   1.00
H620   H     0.28149   0.18011   0.90419   0.00000  Uiso   1.00
H621   H     0.13983   0.19291   0.59310   0.00000  Uiso   1.00
H622   H     0.05412   0.19537   0.91461   0.00000  Uiso   1.00
H623   H     0.08519   0.19196   0.55983   0.00000  Uiso   1.00
H624   H     0.02881   0.20126   0.51199   0.00000  Uiso   1.00
H625   H     0.22347   0.20785   0.86735   0.00000  Uiso   1.00
H626   H     0.22866   0.29169   0.68022   0.00000  Uiso   1.00
N627   N     0.04760   0.16668   0.75002   0.00000  Uiso   1.00
N628   N     0.28573   0.16665   0.75001   0.00000  Uiso   1.00
O629   O     0.12846   0.22775   0.75001   0.00000  Uiso   1.00
O630   O     0.20490   0.22774   0.75001   0.00000  Uiso   1.00
O631   O     0.10947   0.16666   0.82681   0.00000  Uiso   1.00
O632   O     0.18591   0.16665   0.82681   0.00000  Uiso   1.00
O633   O     0.12843   0.10559   0.75000   0.00000  Uiso   1.00
O634   O     0.20488   0.10558   0.75000   0.00000  Uiso   1.00
O635   O     0.14742   0.16668   0.67319   0.00000  Uiso   1.00
O636   O     0.22387   0.16667   0.67319   0.00000  Uiso   1.00
Zn637  Zn    0.11562   0.16667   0.75000   0.00000  Uiso   1.00
Zn638  Zn    0.21771   0.16666   0.75000   0.00000  Uiso   1.00
C639   C     0.23986   0.04154   0.66388   0.00000  Uiso   1.00
H640   H     0.22256   0.06432   0.64383   0.00000  Uiso   1.00
H641   H     0.26481   0.05808   0.68003   0.00000  Uiso   1.00
H642   H     0.26074   0.01870   0.63356   0.00000  Uiso   1.00
C643   C     0.02994   0.23384   0.80332   0.00000  Uiso   1.00
H644   H     0.05226   0.22254   0.82703   0.00000  Uiso   1.00
H645   H     0.04837   0.25769   0.77424   0.00000  Uiso   1.00
H646   H     0.33177   0.24955   0.83154   0.00000  Uiso   1.00
C647   C     0.30820   0.13028   0.97327   0.00000  Uiso   1.00
H648   H     0.29894   0.10323   0.95227   0.00000  Uiso   1.00
H649   H     0.33053   0.15138   0.94358   0.00000  Uiso   1.00
H650   H     0.32933   0.11831   0.99832   0.00000  Uiso   1.00
C651   C     0.49970   0.24652   0.74992   0.00000  Uiso   1.00
C652   C     0.48151   0.18835   0.98902   0.00000  Uiso   1.00
C653   C     0.49572   0.18997   0.93334   0.00000  Uiso   1.00
C654   C     0.51702   0.18035   0.51352   0.00000  Uiso   1.00
C655   C     0.56433   0.17045   0.98207   0.00000  Uiso   1.00
C656   C     0.57812   0.18080   0.92856   0.00000  Uiso   1.00
C657   C     0.54434   0.19441   0.90619   0.00000  Uiso   1.00
C658   C     0.50682   0.18092   0.56805   0.00000  Uiso   1.00
C659   C     0.58454   0.15194   0.56087   0.00000  Uiso   1.00
C660   C     0.46122   0.18617   0.90677   0.00000  Uiso   1.00
C661   C     0.53541   0.31019   0.70956   0.00000  Uiso   1.00
C662   C     0.47468   0.17272   0.85073   0.00000  Uiso   1.00
C663   C     0.53637   0.02014   0.70815   0.00000  Uiso   1.00
C664   C     0.50134   0.04249   0.74767   0.00000  Uiso   1.00
C665   C     0.46506   0.02242   0.78591   0.00000  Uiso   1.00
C666   C     0.46401   0.31278   0.78618   0.00000  Uiso   1.00
C667   C     0.49950   0.29055   0.74846   0.00000  Uiso   1.00
C668   C     0.65022   0.13518   0.72574   0.00000  Uiso   1.00
C669   C     0.36473   0.13529   0.72546   0.00000  Uiso   1.00
C670   C     0.34919   0.19825   0.77480   0.00000  Uiso   1.00
C671   C     0.63522   0.19842   0.77340   0.00000  Uiso   1.00
C672   C     0.50060   0.08676   0.74895   0.00000  Uiso   1.00
C673   C     0.52572   0.16643   0.64869   0.00000  Uiso   1.00
C674   C     0.59680   0.15267   0.50567   0.00000  Uiso   1.00
C675   C     0.54018   0.16719   0.59156   0.00000  Uiso   1.00
C676   C     0.41355   0.19320   0.93515   0.00000  Uiso   1.00
C677   C     0.39933   0.19695   0.99011   0.00000  Uiso   1.00
C678   C     0.43249   0.19253   0.51720   0.00000  Uiso   1.00
H679   H     0.60888   0.13868   0.57994   0.00000  Uiso   1.00
H680   H     0.43802   0.04008   0.81575   0.00000  Uiso   1.00
H681   H     0.43650   0.29689   0.81631   0.00000  Uiso   1.00
H682   H     0.63839   0.11002   0.70607   0.00000  Uiso   1.00
H683   H     0.38867   0.11016   0.70560   0.00000  Uiso   1.00
H684   H     0.61146   0.22434   0.79065   0.00000  Uiso   1.00
H685   H     0.61483   0.18011   0.90419   0.00000  Uiso   1.00
H686   H     0.47316   0.19291   0.59310   0.00000  Uiso   1.00
H687   H     0.38745   0.19537   0.91461   0.00000  Uiso   1.00
H688   H     0.41853   0.19196   0.55983   0.00000  Uiso   1.00
H689   H     0.36215   0.20126   0.51199   0.00000  Uiso   1.00
H690   H     0.55680   0.20785   0.86735   0.00000  Uiso   1.00
H691   H     0.56200   0.29169   0.68022   0.00000  Uiso   1.00
N692   N     0.38093   0.16668   0.75002   0.00000  Uiso   1.00
N693   N     0.61906   0.16665   0.75001   0.00000  Uiso   1.00
O694   O     0.46179   0.22775   0.75001   0.00000  Uiso   1.00
O695   O     0.53823   0.22774   0.75001   0.00000  Uiso   1.00
O696   O     0.44280   0.16666   0.82681   0.00000  Uiso   1.00
O697   O     0.51924   0.16665   0.82681   0.00000  Uiso   1.00
O698   O     0.46177   0.10559   0.75000   0.00000  Uiso   1.00
O699   O     0.53821   0.10558   0.75000   0.00000  Uiso   1.00
O700   O     0.48076   0.16668   0.67319   0.00000  Uiso   1.00
O701   O     0.55720   0.16667   0.67319   0.00000  Uiso   1.00
Zn702  Zn    0.44896   0.16667   0.75000   0.00000  Uiso   1.00
Zn703  Zn    0.55104   0.16666   0.75000   0.00000  Uiso   1.00
C704   C     0.57320   0.04154   0.66388   0.00000  Uiso   1.00
H705   H     0.55590   0.06432   0.64383   0.00000  Uiso   1.00
H706   H     0.59814   0.05808   0.68003   0.00000  Uiso   1.00
H707   H     0.59408   0.01870   0.63356   0.00000  Uiso   1.00
C708   C     0.36327   0.23384   0.80332   0.00000  Uiso   1.00
H709   H     0.38560   0.22254   0.82703   0.00000  Uiso   1.00
H710   H     0.38170   0.25769   0.77424   0.00000  Uiso   1.00
H711   H     0.66510   0.24955   0.83154   0.00000  Uiso   1.00
C712   C     0.64153   0.13028   0.97327   0.00000  Uiso   1.00
H713   H     0.63227   0.10323   0.95227   0.00000  Uiso   1.00
H714   H     0.66387   0.15138   0.94358   0.00000  Uiso   1.00
H715   H     0.66266   0.11831   0.99832   0.00000  Uiso   1.00
C716   C     0.83303   0.24652   0.74992   0.00000  Uiso   1.00
C717   C     0.81484   0.18835   0.98902   0.00000  Uiso   1.00
C718   C     0.82906   0.18997   0.93334   0.00000  Uiso   1.00
C719   C     0.85035   0.18035   0.51352   0.00000  Uiso   1.00
C720   C     0.89766   0.17045   0.98207   0.00000  Uiso   1.00
C721   C     0.91145   0.18080   0.92856   0.00000  Uiso   1.00
C722   C     0.87768   0.19441   0.90619   0.00000  Uiso   1.00
C723   C     0.84015   0.18092   0.56805   0.00000  Uiso   1.00
C724   C     0.91787   0.15194   0.56087   0.00000  Uiso   1.00
C725   C     0.79455   0.18617   0.90677   0.00000  Uiso   1.00
C726   C     0.86874   0.31019   0.70956   0.00000  Uiso   1.00
C727   C     0.80801   0.17272   0.85073   0.00000  Uiso   1.00
C728   C     0.86970   0.02014   0.70815   0.00000  Uiso   1.00
C729   C     0.83468   0.04249   0.74767   0.00000  Uiso   1.00
C730   C     0.79840   0.02242   0.78591   0.00000  Uiso   1.00
C731   C     0.79735   0.31278   0.78618   0.00000  Uiso   1.00
C732   C     0.83283   0.29055   0.74846   0.00000  Uiso   1.00
C733   C     0.98355   0.13518   0.72574   0.00000  Uiso   1.00
C734   C     0.69806   0.13529   0.72546   0.00000  Uiso   1.00
C735   C     0.68252   0.19825   0.77480   0.00000  Uiso   1.00
C736   C     0.96855   0.19842   0.77340   0.00000  Uiso   1.00
C737   C     0.83393   0.08676   0.74895   0.00000  Uiso   1.00
C738   C     0.85905   0.16643   0.64869   0.00000  Uiso   1.00
C739   C     0.93014   0.15267   0.50567   0.00000  Uiso   1.00
C740   C     0.87351   0.16719   0.59156   0.00000  Uiso   1.00
C741   C     0.74688   0.19320   0.93515   0.00000  Uiso   1.00
C742   C     0.73266   0.19695   0.99011   0.00000  Uiso   1.00
C743   C     0.76583   0.19253   0.51720   0.00000  Uiso   1.00
H744   H     0.94221   0.13868   0.57994   0.00000  Uiso   1.00
H745   H     0.77135   0.04008   0.81575   0.00000  Uiso   1.00
H746   H     0.76983   0.29689   0.81631   0.00000  Uiso   1.00
H747   H     0.97172   0.11002   0.70607   0.00000  Uiso   1.00
H748   H     0.72200   0.11016   0.70560   0.00000  Uiso   1.00
H749   H     0.94479   0.22434   0.79065   0.00000  Uiso   1.00
H750   H     0.94816   0.18011   0.90419   0.00000  Uiso   1.00
H751   H     0.80649   0.19291   0.59310   0.00000  Uiso   1.00
H752   H     0.72078   0.19537   0.91461   0.00000  Uiso   1.00
H753   H     0.75186   0.19196   0.55983   0.00000  Uiso   1.00
H754   H     0.69548   0.20126   0.51199   0.00000  Uiso   1.00
H755   H     0.89013   0.20785   0.86735   0.00000  Uiso   1.00
H756   H     0.89533   0.29169   0.68022   0.00000  Uiso   1.00
N757   N     0.71426   0.16668   0.75002   0.00000  Uiso   1.00
N758   N     0.95239   0.16665   0.75001   0.00000  Uiso   1.00
O759   O     0.79512   0.22775   0.75001   0.00000  Uiso   1.00
O760   O     0.87157   0.22774   0.75001   0.00000  Uiso   1.00
O761   O     0.77613   0.16666   0.82681   0.00000  Uiso   1.00
O762   O     0.85258   0.16665   0.82681   0.00000  Uiso   1.00
O763   O     0.79510   0.10559   0.75000   0.00000  Uiso   1.00
O764   O     0.87154   0.10558   0.75000   0.00000  Uiso   1.00
O765   O     0.81409   0.16668   0.67319   0.00000  Uiso   1.00
O766   O     0.89053   0.16667   0.67319   0.00000  Uiso   1.00
Zn767  Zn    0.78229   0.16667   0.75000   0.00000  Uiso   1.00
Zn768  Zn    0.88438   0.16666   0.75000   0.00000  Uiso   1.00
C769   C     0.90653   0.04154   0.66388   0.00000  Uiso   1.00
H770   H     0.88923   0.06432   0.64383   0.00000  Uiso   1.00
H771   H     0.93147   0.05808   0.68003   0.00000  Uiso   1.00
H772   H     0.92741   0.01870   0.63356   0.00000  Uiso   1.00
C773   C     0.69661   0.23384   0.80332   0.00000  Uiso   1.00
H774   H     0.71893   0.22254   0.82703   0.00000  Uiso   1.00
H775   H     0.71503   0.25769   0.77424   0.00000  Uiso   1.00
H776   H     0.99843   0.24955   0.83154   0.00000  Uiso   1.00
C777   C     0.97486   0.13028   0.97327   0.00000  Uiso   1.00
H778   H     0.96561   0.10323   0.95227   0.00000  Uiso   1.00
H779   H     0.99720   0.15138   0.94358   0.00000  Uiso   1.00
H780   H     0.99600   0.11831   0.99832   0.00000  Uiso   1.00
C781   C     0.16636   0.57986   0.74992   0.00000  Uiso   1.00
C782   C     0.14817   0.52168   0.98902   0.00000  Uiso   1.00
C783   C     0.16239   0.52330   0.93334   0.00000  Uiso   1.00
C784   C     0.18369   0.51369   0.51352   0.00000  Uiso   1.00
C785   C     0.23099   0.50379   0.98207   0.00000  Uiso   1.00
C786   C     0.24478   0.51413   0.92856   0.00000  Uiso   1.00
C787   C     0.21101   0.52775   0.90619   0.00000  Uiso   1.00
C788   C     0.17348   0.51425   0.56805   0.00000  Uiso   1.00
C789   C     0.25120   0.48528   0.56087   0.00000  Uiso   1.00
C790   C     0.12788   0.51950   0.90677   0.00000  Uiso   1.00
C791   C     0.20207   0.64353   0.70956   0.00000  Uiso   1.00
C792   C     0.14135   0.50605   0.85073   0.00000  Uiso   1.00
C793   C     0.20303   0.35348   0.70815   0.00000  Uiso   1.00
C794   C     0.16801   0.37582   0.74767   0.00000  Uiso   1.00
C795   C     0.13173   0.35576   0.78591   0.00000  Uiso   1.00
C796   C     0.13068   0.64611   0.78618   0.00000  Uiso   1.00
C797   C     0.16617   0.62388   0.74846   0.00000  Uiso   1.00
C798   C     0.31689   0.46851   0.72574   0.00000  Uiso   1.00
C799   C     0.03140   0.46862   0.72546   0.00000  Uiso   1.00
C800   C     0.01586   0.53158   0.77480   0.00000  Uiso   1.00
C801   C     0.30188   0.53175   0.77340   0.00000  Uiso   1.00
C802   C     0.16727   0.42010   0.74895   0.00000  Uiso   1.00
C803   C     0.19239   0.49976   0.64869   0.00000  Uiso   1.00
C804   C     0.26347   0.48601   0.50567   0.00000  Uiso   1.00
C805   C     0.20684   0.50053   0.59156   0.00000  Uiso   1.00
C806   C     0.08022   0.52653   0.93515   0.00000  Uiso   1.00
C807   C     0.06600   0.53028   0.99011   0.00000  Uiso   1.00
C808   C     0.09916   0.52587   0.51720   0.00000  Uiso   1.00
H809   H     0.27555   0.47201   0.57994   0.00000  Uiso   1.00
H810   H     0.10468   0.37342   0.81575   0.00000  Uiso   1.00
H811   H     0.10317   0.63023   0.81631   0.00000  Uiso   1.00
H812   H     0.30505   0.44335   0.70607   0.00000  Uiso   1.00
H813   H     0.05534   0.44349   0.70560   0.00000  Uiso   1.00
H814   H     0.27813   0.55767   0.79065   0.00000  Uiso   1.00
H815   H     0.28149   0.51344   0.90419   0.00000  Uiso   1.00
H816   H     0.13983   0.52624   0.59310   0.00000  Uiso   1.00
H817   H     0.05412   0.52871   0.91461   0.00000  Uiso   1.00
H818   H     0.08519   0.52529   0.55983   0.00000  Uiso   1.00
H819   H     0.02881   0.53460   0.51199   0.00000  Uiso   1.00
H820   H     0.22347   0.54118   0.86735   0.00000  Uiso   1.00
H821   H     0.22866   0.62503   0.68022   0.00000  Uiso   1.00
N822   N     0.04760   0.50001   0.75002   0.00000  Uiso   1.00
N823   N     0.28573   0.49998   0.75001   0.00000  Uiso   1.00
O824   O     0.12846   0.56108   0.75001   0.00000  Uiso   1.00
O825   O     0.20490   0.56107   0.75001   0.00000  Uiso   1.00
O826   O     0.10947   0.50000   0.82681   0.00000  Uiso   1.00
O827   O     0.18591   0.49999   0.82681   0.00000  Uiso   1.00
O828   O     0.12843   0.43893   0.75000   0.00000  Uiso   1.00
O829   O     0.20488   0.43892   0.75000   0.00000  Uiso   1.00
O830   O     0.14742   0.50001   0.67319   0.00000  Uiso   1.00
O831   O     0.22387   0.50000   0.67319   0.00000  Uiso   1.00
Zn832  Zn    0.11562   0.50001   0.75000   0.00000  Uiso   1.00
Zn833  Zn    0.21771   0.49999   0.75000   0.00000  Uiso   1.00
C834   C     0.23986   0.37487   0.66388   0.00000  Uiso   1.00
H835   H     0.22256   0.39765   0.64383   0.00000  Uiso   1.00
H836   H     0.26481   0.39141   0.68003   0.00000  Uiso   1.00
H837   H     0.26074   0.35203   0.63356   0.00000  Uiso   1.00
C838   C     0.02994   0.56717   0.80332   0.00000  Uiso   1.00
H839   H     0.05226   0.55588   0.82703   0.00000  Uiso   1.00
H840   H     0.04837   0.59102   0.77424   0.00000  Uiso   1.00
H841   H     0.33177   0.58288   0.83154   0.00000  Uiso   1.00
C842   C     0.30820   0.46362   0.97327   0.00000  Uiso   1.00
H843   H     0.29894   0.43656   0.95227   0.00000  Uiso   1.00
H844   H     0.33053   0.48471   0.94358   0.00000  Uiso   1.00
H845   H     0.32933   0.45164   0.99832   0.00000  Uiso   1.00
C846   C     0.49970   0.57986   0.74992   0.00000  Uiso   1.00
C847   C     0.48151   0.52168   0.98902   0.00000  Uiso   1.00
C848   C     0.49572   0.52330   0.93334   0.00000  Uiso   1.00
C849   C     0.51702   0.51369   0.51352   0.00000  Uiso   1.00
C850   C     0.56433   0.50379   0.98207   0.00000  Uiso   1.00
C851   C     0.57812   0.51413   0.92856   0.00000  Uiso   1.00
C852   C     0.54434   0.52775   0.90619   0.00000  Uiso   1.00
C853   C     0.50682   0.51425   0.56805   0.00000  Uiso   1.00
C854   C     0.58454   0.48528   0.56087   0.00000  Uiso   1.00
C855   C     0.46122   0.51950   0.90677   0.00000  Uiso   1.00
C856   C     0.53541   0.64353   0.70956   0.00000  Uiso   1.00
C857   C     0.47468   0.50605   0.85073   0.00000  Uiso   1.00
C858   C     0.53637   0.35348   0.70815   0.00000  Uiso   1.00
C859   C     0.50134   0.37582   0.74767   0.00000  Uiso   1.00
C860   C     0.46506   0.35576   0.78591   0.00000  Uiso   1.00
C861   C     0.46401   0.64611   0.78618   0.00000  Uiso   1.00
C862   C     0.49950   0.62388   0.74846   0.00000  Uiso   1.00
C863   C     0.65022   0.46851   0.72574   0.00000  Uiso   1.00
C864   C     0.36473   0.46862   0.72546   0.00000  Uiso   1.00
C865   C     0.34919   0.53158   0.77480   0.00000  Uiso   1.00
C866   C     0.63522   0.53175   0.77340   0.00000  Uiso   1.00
C867   C     0.50060   0.42010   0.74895   0.00000  Uiso   1.00
C868   C     0.52572   0.49976   0.64869   0.00000  Uiso   1.00
C869   C     0.59680   0.48601   0.50567   0.00000  Uiso   1.00
C870   C     0.54018   0.50053   0.59156   0.00000  Uiso   1.00
C871   C     0.41355   0.52653   0.93515   0.00000  Uiso   1.00
C872   C     0.39933   0.53028   0.99011   0.00000  Uiso   1.00
C873   C     0.43249   0.52587   0.51720   0.00000  Uiso   1.00
H874   H     0.60888   0.47201   0.57994   0.00000  Uiso   1.00
H875   H     0.43802   0.37342   0.81575   0.00000  Uiso   1.00
H876   H     0.43650   0.63023   0.81631   0.00000  Uiso   1.00
H877   H     0.63839   0.44335   0.70607   0.00000  Uiso   1.00
H878   H     0.38867   0.44349   0.70560   0.00000  Uiso   1.00
H879   H     0.61146   0.55767   0.79065   0.00000  Uiso   1.00
H880   H     0.61483   0.51344   0.90419   0.00000  Uiso   1.00
H881   H     0.47316   0.52624   0.59310   0.00000  Uiso   1.00
H882   H     0.38745   0.52871   0.91461   0.00000  Uiso   1.00
H883   H     0.41853   0.52529   0.55983   0.00000  Uiso   1.00
H884   H     0.36215   0.53460   0.51199   0.00000  Uiso   1.00
H885   H     0.55680   0.54118   0.86735   0.00000  Uiso   1.00
H886   H     0.56200   0.62503   0.68022   0.00000  Uiso   1.00
N887   N     0.38093   0.50001   0.75002   0.00000  Uiso   1.00
N888   N     0.61906   0.49998   0.75001   0.00000  Uiso   1.00
O889   O     0.46179   0.56108   0.75001   0.00000  Uiso   1.00
O890   O     0.53823   0.56107   0.75001   0.00000  Uiso   1.00
O891   O     0.44280   0.50000   0.82681   0.00000  Uiso   1.00
O892   O     0.51924   0.49999   0.82681   0.00000  Uiso   1.00
O893   O     0.46177   0.43893   0.75000   0.00000  Uiso   1.00
O894   O     0.53821   0.43892   0.75000   0.00000  Uiso   1.00
O895   O     0.48076   0.50001   0.67319   0.00000  Uiso   1.00
O896   O     0.55720   0.50000   0.67319   0.00000  Uiso   1.00
Zn897  Zn    0.44896   0.50001   0.75000   0.00000  Uiso   1.00
Zn898  Zn    0.55104   0.49999   0.75000   0.00000  Uiso   1.00
C899   C     0.57320   0.37487   0.66388   0.00000  Uiso   1.00
H900   H     0.55590   0.39765   0.64383   0.00000  Uiso   1.00
H901   H     0.59814   0.39141   0.68003   0.00000  Uiso   1.00
H902   H     0.59408   0.35203   0.63356   0.00000  Uiso   1.00
C903   C     0.36327   0.56717   0.80332   0.00000  Uiso   1.00
H904   H     0.38560   0.55588   0.82703   0.00000  Uiso   1.00
H905   H     0.38170   0.59102   0.77424   0.00000  Uiso   1.00
H906   H     0.66510   0.58288   0.83154   0.00000  Uiso   1.00
C907   C     0.64153   0.46362   0.97327   0.00000  Uiso   1.00
H908   H     0.63227   0.43656   0.95227   0.00000  Uiso   1.00
H909   H     0.66387   0.48471   0.94358   0.00000  Uiso   1.00
H910   H     0.66266   0.45164   0.99832   0.00000  Uiso   1.00
C911   C     0.83303   0.57986   0.74992   0.00000  Uiso   1.00
C912   C     0.81484   0.52168   0.98902   0.00000  Uiso   1.00
C913   C     0.82906   0.52330   0.93334   0.00000  Uiso   1.00
C914   C     0.85035   0.51369   0.51352   0.00000  Uiso   1.00
C915   C     0.89766   0.50379   0.98207   0.00000  Uiso   1.00
C916   C     0.91145   0.51413   0.92856   0.00000  Uiso   1.00
C917   C     0.87768   0.52775   0.90619   0.00000  Uiso   1.00
C918   C     0.84015   0.51425   0.56805   0.00000  Uiso   1.00
C919   C     0.91787   0.48528   0.56087   0.00000  Uiso   1.00
C920   C     0.79455   0.51950   0.90677   0.00000  Uiso   1.00
C921   C     0.86874   0.64353   0.70956   0.00000  Uiso   1.00
C922   C     0.80801   0.50605   0.85073   0.00000  Uiso   1.00
C923   C     0.86970   0.35348   0.70815   0.00000  Uiso   1.00
C924   C     0.83468   0.37582   0.74767   0.00000  Uiso   1.00
C925   C     0.79840   0.35576   0.78591   0.00000  Uiso   1.00
C926   C     0.79735   0.64611   0.78618   0.00000  Uiso   1.00
C927   C     0.83283   0.62388   0.74846   0.00000  Uiso   1.00
C928   C     0.98355   0.46851   0.72574   0.00000  Uiso   1.00
C929   C     0.69806   0.46862   0.72546   0.00000  Uiso   1.00
C930   C     0.68252   0.53158   0.77480   0.00000  Uiso   1.00
C931   C     0.96855   0.53175   0.77340   0.00000  Uiso   1.00
C932   C     0.83393   0.42010   0.74895   0.00000  Uiso   1.00
C933   C     0.85905   0.49976   0.64869   0.00000  Uiso   1.00
C934   C     0.93014   0.48601   0.50567   0.00000  Uiso   1.00
C935   C     0.87351   0.50053   0.59156   0.00000  Uiso   1.00
C936   C     0.74688   0.52653   0.93515   0.00000  Uiso   1.00
C937   C     0.73266   0.53028   0.99011   0.00000  Uiso   1.00
C938   C     0.76583   0.52587   0.51720   0.00000  Uiso   1.00
H939   H     0.94221   0.47201   0.57994   0.00000  Uiso   1.00
H940   H     0.77135   0.37342   0.81575   0.00000  Uiso   1.00
H941   H     0.76983   0.63023   0.81631   0.00000  Uiso   1.00
H942   H     0.97172   0.44335   0.70607   0.00000  Uiso   1.00
H943   H     0.72200   0.44349   0.70560   0.00000  Uiso   1.00
H944   H     0.94479   0.55767   0.79065   0.00000  Uiso   1.00
H945   H     0.94816   0.51344   0.90419   0.00000  Uiso   1.00
H946   H     0.80649   0.52624   0.59310   0.00000  Uiso   1.00
H947   H     0.72078   0.52871   0.91461   0.00000  Uiso   1.00
H948   H     0.75186   0.52529   0.55983   0.00000  Uiso   1.00
H949   H     0.69548   0.53460   0.51199   0.00000  Uiso   1.00
H950   H     0.89013   0.54118   0.86735   0.00000  Uiso   1.00
H951   H     0.89533   0.62503   0.68022   0.00000  Uiso   1.00
N952   N     0.71426   0.50001   0.75002   0.00000  Uiso   1.00
N953   N     0.95239   0.49998   0.75001   0.00000  Uiso   1.00
O954   O     0.79512   0.56108   0.75001   0.00000  Uiso   1.00
O955   O     0.87157   0.56107   0.75001   0.00000  Uiso   1.00
O956   O     0.77613   0.50000   0.82681   0.00000  Uiso   1.00
O957   O     0.85258   0.49999   0.82681   0.00000  Uiso   1.00
O958   O     0.79510   0.43893   0.75000   0.00000  Uiso   1.00
O959   O     0.87154   0.43892   0.75000   0.00000  Uiso   1.00
O960   O     0.81409   0.50001   0.67319   0.00000  Uiso   1.00
O961   O     0.89053   0.50000   0.67319   0.00000  Uiso   1.00
Zn962  Zn    0.78229   0.50001   0.75000   0.00000  Uiso   1.00
Zn963  Zn    0.88438   0.49999   0.75000   0.00000  Uiso   1.00
C964   C     0.90653   0.37487   0.66388   0.00000  Uiso   1.00
H965   H     0.88923   0.39765   0.64383   0.00000  Uiso   1.00
H966   H     0.93147   0.39141   0.68003   0.00000  Uiso   1.00
H967   H     0.92741   0.35203   0.63356   0.00000  Uiso   1.00
C968   C     0.69661   0.56717   0.80332   0.00000  Uiso   1.00
H969   H     0.71893   0.55588   0.82703   0.00000  Uiso   1.00
H970   H     0.71503   0.59102   0.77424   0.00000  Uiso   1.00
H971   H     0.99843   0.58288   0.83154   0.00000  Uiso   1.00
C972   C     0.97486   0.46362   0.97327   0.00000  Uiso   1.00
H973   H     0.96561   0.43656   0.95227   0.00000  Uiso   1.00
H974   H     0.99720   0.48471   0.94358   0.00000  Uiso   1.00
H975   H     0.99600   0.45164   0.99832   0.00000  Uiso   1.00
C976   C     0.16636   0.91319   0.74992   0.00000  Uiso   1.00
C977   C     0.14817   0.85502   0.98902   0.00000  Uiso   1.00
C978   C     0.16239   0.85663   0.93334   0.00000  Uiso   1.00
C979   C     0.18369   0.84702   0.51352   0.00000  Uiso   1.00
C980   C     0.23099   0.83712   0.98207   0.00000  Uiso   1.00
C981   C     0.24478   0.84747   0.92856   0.00000  Uiso   1.00
C982   C     0.21101   0.86108   0.90619   0.00000  Uiso   1.00
C983   C     0.17348   0.84758   0.56805   0.00000  Uiso   1.00
C984   C     0.25120   0.81861   0.56087   0.00000  Uiso   1.00
C985   C     0.12788   0.85284   0.90677   0.00000  Uiso   1.00
C986   C     0.20207   0.97686   0.70956   0.00000  Uiso   1.00
C987   C     0.14135   0.83938   0.85073   0.00000  Uiso   1.00
C988   C     0.20303   0.68681   0.70815   0.00000  Uiso   1.00
C989   C     0.16801   0.70916   0.74767   0.00000  Uiso   1.00
C990   C     0.13173   0.68909   0.78591   0.00000  Uiso   1.00
C991   C     0.13068   0.97944   0.78618   0.00000  Uiso   1.00
C992   C     0.16617   0.95721   0.74846   0.00000  Uiso   1.00
C993   C     0.31689   0.80184   0.72574   0.00000  Uiso   1.00
C994   C     0.03140   0.80195   0.72546   0.00000  Uiso   1.00
C995   C     0.01586   0.86491   0.77480   0.00000  Uiso   1.00
C996   C     0.30188   0.86508   0.77340   0.00000  Uiso   1.00
C997   C     0.16727   0.75343   0.74895   0.00000  Uiso   1.00
C998   C     0.19239   0.83309   0.64869   0.00000  Uiso   1.00
C999   C     0.26347   0.81934   0.50567   0.00000  Uiso   1.00
C1000  C     0.20684   0.83386   0.59156   0.00000  Uiso   1.00
C1001  C     0.08022   0.85987   0.93515   0.00000  Uiso   1.00
C1002  C     0.06600   0.86362   0.99011   0.00000  Uiso   1.00
C1003  C     0.09916   0.85920   0.51720   0.00000  Uiso   1.00
H1004  H     0.27555   0.80534   0.57994   0.00000  Uiso   1.00
H1005  H     0.10468   0.70675   0.81575   0.00000  Uiso   1.00
H1006  H     0.10317   0.96356   0.81631   0.00000  Uiso   1.00
H1007  H     0.30505   0.77668   0.70607   0.00000  Uiso   1.00
H1008  H     0.05534   0.77683   0.70560   0.00000  Uiso   1.00
H1009  H     0.27813   0.89101   0.79065   0.00000  Uiso   1.00
H1010  H     0.28149   0.84678   0.90419   0.00000  Uiso   1.00
H1011  H     0.13983   0.85958   0.59310   0.00000  Uiso   1.00
H1012  H     0.05412   0.86204   0.91461   0.00000  Uiso   1.00
H1013  H     0.08519   0.85863   0.55983   0.00000  Uiso   1.00
H1014  H     0.02881   0.86793   0.51199   0.00000  Uiso   1.00
H1015  H     0.22347   0.87452   0.86735   0.00000  Uiso   1.00
H1016  H     0.22866   0.95836   0.68022   0.00000  Uiso   1.00
N1017  N     0.04760   0.83334   0.75002   0.00000  Uiso   1.00
N1018  N     0.28573   0.83331   0.75001   0.00000  Uiso   1.00
O1019  O     0.12846   0.89442   0.75001   0.00000  Uiso   1.00
O1020  O     0.20490   0.89441   0.75001   0.00000  Uiso   1.00
O1021  O     0.10947   0.83333   0.82681   0.00000  Uiso   1.00
O1022  O     0.18591   0.83332   0.82681   0.00000  Uiso   1.00
O1023  O     0.12843   0.77226   0.75000   0.00000  Uiso   1.00
O1024  O     0.20488   0.77225   0.75000   0.00000  Uiso   1.00
O1025  O     0.14742   0.83335   0.67319   0.00000  Uiso   1.00
O1026  O     0.22387   0.83334   0.67319   0.00000  Uiso   1.00
Zn1027 Zn    0.11562   0.83334   0.75000   0.00000  Uiso   1.00
Zn1028 Zn    0.21771   0.83333   0.75000   0.00000  Uiso   1.00
C1029  C     0.23986   0.70820   0.66388   0.00000  Uiso   1.00
H1030  H     0.22256   0.73099   0.64383   0.00000  Uiso   1.00
H1031  H     0.26481   0.72474   0.68003   0.00000  Uiso   1.00
H1032  H     0.26074   0.68536   0.63356   0.00000  Uiso   1.00
C1033  C     0.02994   0.90051   0.80332   0.00000  Uiso   1.00
H1034  H     0.05226   0.88921   0.82703   0.00000  Uiso   1.00
H1035  H     0.04837   0.92435   0.77424   0.00000  Uiso   1.00
H1036  H     0.33177   0.91622   0.83154   0.00000  Uiso   1.00
C1037  C     0.30820   0.79695   0.97327   0.00000  Uiso   1.00
H1038  H     0.29894   0.76989   0.95227   0.00000  Uiso   1.00
H1039  H     0.33053   0.81805   0.94358   0.00000  Uiso   1.00
H1040  H     0.32933   0.78498   0.99832   0.00000  Uiso   1.00
C1041  C     0.49970   0.91319   0.74992   0.00000  Uiso   1.00
C1042  C     0.48151   0.85502   0.98902   0.00000  Uiso   1.00
C1043  C     0.49572   0.85663   0.93334   0.00000  Uiso   1.00
C1044  C     0.51702   0.84702   0.51352   0.00000  Uiso   1.00
C1045  C     0.56433   0.83712   0.98207   0.00000  Uiso   1.00
C1046  C     0.57812   0.84747   0.92856   0.00000  Uiso   1.00
C1047  C     0.54434   0.86108   0.90619   0.00000  Uiso   1.00
C1048  C     0.50682   0.84758   0.56805   0.00000  Uiso   1.00
C1049  C     0.58454   0.81861   0.56087   0.00000  Uiso   1.00
C1050  C     0.46122   0.85284   0.90677   0.00000  Uiso   1.00
C1051  C     0.53541   0.97686   0.70956   0.00000  Uiso   1.00
C1052  C     0.47468   0.83938   0.85073   0.00000  Uiso   1.00
C1053  C     0.53637   0.68681   0.70815   0.00000  Uiso   1.00
C1054  C     0.50134   0.70916   0.74767   0.00000  Uiso   1.00
C1055  C     0.46506   0.68909   0.78591   0.00000  Uiso   1.00
C1056  C     0.46401   0.97944   0.78618   0.00000  Uiso   1.00
C1057  C     0.49950   0.95721   0.74846   0.00000  Uiso   1.00
C1058  C     0.65022   0.80184   0.72574   0.00000  Uiso   1.00
C1059  C     0.36473   0.80195   0.72546   0.00000  Uiso   1.00
C1060  C     0.34919   0.86491   0.77480   0.00000  Uiso   1.00
C1061  C     0.63522   0.86508   0.77340   0.00000  Uiso   1.00
C1062  C     0.50060   0.75343   0.74895   0.00000  Uiso   1.00
C1063  C     0.52572   0.83309   0.64869   0.00000  Uiso   1.00
C1064  C     0.59680   0.81934   0.50567   0.00000  Uiso   1.00
C1065  C     0.54018   0.83386   0.59156   0.00000  Uiso   1.00
C1066  C     0.41355   0.85987   0.93515   0.00000  Uiso   1.00
C1067  C     0.39933   0.86362   0.99011   0.00000  Uiso   1.00
C1068  C     0.43249   0.85920   0.51720   0.00000  Uiso   1.00
H1069  H     0.60888   0.80534   0.57994   0.00000  Uiso   1.00
H1070  H     0.43802   0.70675   0.81575   0.00000  Uiso   1.00
H1071  H     0.43650   0.96356   0.81631   0.00000  Uiso   1.00
H1072  H     0.63839   0.77668   0.70607   0.00000  Uiso   1.00
H1073  H     0.38867   0.77683   0.70560   0.00000  Uiso   1.00
H1074  H     0.61146   0.89101   0.79065   0.00000  Uiso   1.00
H1075  H     0.61483   0.84678   0.90419   0.00000  Uiso   1.00
H1076  H     0.47316   0.85958   0.59310   0.00000  Uiso   1.00
H1077  H     0.38745   0.86204   0.91461   0.00000  Uiso   1.00
H1078  H     0.41853   0.85863   0.55983   0.00000  Uiso   1.00
H1079  H     0.36215   0.86793   0.51199   0.00000  Uiso   1.00
H1080  H     0.55680   0.87452   0.86735   0.00000  Uiso   1.00
H1081  H     0.56200   0.95836   0.68022   0.00000  Uiso   1.00
N1082  N     0.38093   0.83334   0.75002   0.00000  Uiso   1.00
N1083  N     0.61906   0.83331   0.75001   0.00000  Uiso   1.00
O1084  O     0.46179   0.89442   0.75001   0.00000  Uiso   1.00
O1085  O     0.53823   0.89441   0.75001   0.00000  Uiso   1.00
O1086  O     0.44280   0.83333   0.82681   0.00000  Uiso   1.00
O1087  O     0.51924   0.83332   0.82681   0.00000  Uiso   1.00
O1088  O     0.46177   0.77226   0.75000   0.00000  Uiso   1.00
O1089  O     0.53821   0.77225   0.75000   0.00000  Uiso   1.00
O1090  O     0.48076   0.83335   0.67319   0.00000  Uiso   1.00
O1091  O     0.55720   0.83334   0.67319   0.00000  Uiso   1.00
Zn1092 Zn    0.44896   0.83334   0.75000   0.00000  Uiso   1.00
Zn1093 Zn    0.55104   0.83333   0.75000   0.00000  Uiso   1.00
C1094  C     0.57320   0.70820   0.66388   0.00000  Uiso   1.00
H1095  H     0.55590   0.73099   0.64383   0.00000  Uiso   1.00
H1096  H     0.59814   0.72474   0.68003   0.00000  Uiso   1.00
H1097  H     0.59408   0.68536   0.63356   0.00000  Uiso   1.00
C1098  C     0.36327   0.90051   0.80332   0.00000  Uiso   1.00
H1099  H     0.38560   0.88921   0.82703   0.00000  Uiso   1.00
H1100  H     0.38170   0.92435   0.77424   0.00000  Uiso   1.00
H1101  H     0.66510   0.91622   0.83154   0.00000  Uiso   1.00
C1102  C     0.64153   0.79695   0.97327   0.00000  Uiso   1.00
H1103  H     0.63227   0.76989   0.95227   0.00000  Uiso   1.00
H1104  H     0.66387   0.81805   0.94358   0.00000  Uiso   1.00
H1105  H     0.66266   0.78498   0.99832   0.00000  Uiso   1.00
C1106  C     0.83303   0.91319   0.74992   0.00000  Uiso   1.00
C1107  C     0.81484   0.85502   0.98902   0.00000  Uiso   1.00
C1108  C     0.82906   0.85663   0.93334   0.00000  Uiso   1.00
C1109  C     0.85035   0.84702   0.51352   0.00000  Uiso   1.00
C1110  C     0.89766   0.83712   0.98207   0.00000  Uiso   1.00
C1111  C     0.91145   0.84747   0.92856   0.00000  Uiso   1.00
C1112  C     0.87768   0.86108   0.90619   0.00000  Uiso   1.00
C1113  C     0.84015   0.84758   0.56805   0.00000  Uiso   1.00
C1114  C     0.91787   0.81861   0.56087   0.00000  Uiso   1.00
C1115  C     0.79455   0.85284   0.90677   0.00000  Uiso   1.00
C1116  C     0.86874   0.97686   0.70956   0.00000  Uiso   1.00
C1117  C     0.80801   0.83938   0.85073   0.00000  Uiso   1.00
C1118  C     0.86970   0.68681   0.70815   0.00000  Uiso   1.00
C1119  C     0.83468   0.70916   0.74767   0.00000  Uiso   1.00
C1120  C     0.79840   0.68909   0.78591   0.00000  Uiso   1.00
C1121  C     0.79735   0.97944   0.78618   0.00000  Uiso   1.00
C1122  C     0.83283   0.95721   0.74846   0.00000  Uiso   1.00
C1123  C     0.98355   0.80184   0.72574   0.00000  Uiso   1.00
C1124  C     0.69806   0.80195   0.72546   0.00000  Uiso   1.00
C1125  C     0.68252   0.86491   0.77480   0.00000  Uiso   1.00
C1126  C     0.96855   0.86508   0.77340   0.00000  Uiso   1.00
C1127  C     0.83393   0.75343   0.74895   0.00000  Uiso   1.00
C1128  C     0.85905   0.83309   0.64869   0.00000  Uiso   1.00
C1129  C     0.93014   0.81934   0.50567   0.00000  Uiso   1.00
C1130  C     0.87351   0.83386   0.59156   0.00000  Uiso   1.00
C1131  C     0.74688   0.85987   0.93515   0.00000  Uiso   1.00
C1132  C     0.73266   0.86362   0.99011   0.00000  Uiso   1.00
C1133  C     0.76583   0.85920   0.51720   0.00000  Uiso   1.00
H1134  H     0.94221   0.80534   0.57994   0.00000  Uiso   1.00
H1135  H     0.77135   0.70675   0.81575   0.00000  Uiso   1.00
H1136  H     0.76983   0.96356   0.81631   0.00000  Uiso   1.00
H1137  H     0.97172   0.77668   0.70607   0.00000  Uiso   1.00
H1138  H     0.72200   0.77683   0.70560   0.00000  Uiso   1.00
H1139  H     0.94479   0.89101   0.79065   0.00000  Uiso   1.00
H1140  H     0.94816   0.84678   0.90419   0.00000  Uiso   1.00
H1141  H     0.80649   0.85958   0.59310   0.00000  Uiso   1.00
H1142  H     0.72078   0.86204   0.91461   0.00000  Uiso   1.00
H1143  H     0.75186   0.85863   0.55983   0.00000  Uiso   1.00
H1144  H     0.69548   0.86793   0.51199   0.00000  Uiso   1.00
H1145  H     0.89013   0.87452   0.86735   0.00000  Uiso   1.00
H1146  H     0.89533   0.95836   0.68022   0.00000  Uiso   1.00
N1147  N     0.71426   0.83334   0.75002   0.00000  Uiso   1.00
N1148  N     0.95239   0.83331   0.75001   0.00000  Uiso   1.00
O1149  O     0.79512   0.89442   0.75001   0.00000  Uiso   1.00
O1150  O     0.87157   0.89441   0.75001   0.00000  Uiso   1.00
O1151  O     0.77613   0.83333   0.82681   0.00000  Uiso   1.00
O1152  O     0.85258   0.83332   0.82681   0.00000  Uiso   1.00
O1153  O     0.79510   0.77226   0.75000   0.00000  Uiso   1.00
O1154  O     0.87154   0.77225   0.75000   0.00000  Uiso   1.00
O1155  O     0.81409   0.83335   0.67319   0.00000  Uiso   1.00
O1156  O     0.89053   0.83334   0.67319   0.00000  Uiso   1.00
Zn1157 Zn    0.78229   0.83334   0.75000   0.00000  Uiso   1.00
Zn1158 Zn    0.88438   0.83333   0.75000   0.00000  Uiso   1.00
C1159  C     0.90653   0.70820   0.66388   0.00000  Uiso   1.00
H1160  H     0.88923   0.73099   0.64383   0.00000  Uiso   1.00
H1161  H     0.93147   0.72474   0.68003   0.00000  Uiso   1.00
H1162  H     0.92741   0.68536   0.63356   0.00000  Uiso   1.00
C1163  C     0.69661   0.90051   0.80332   0.00000  Uiso   1.00
H1164  H     0.71893   0.88921   0.82703   0.00000  Uiso   1.00
H1165  H     0.71503   0.92435   0.77424   0.00000  Uiso   1.00
H1166  H     0.99843   0.91622   0.83154   0.00000  Uiso   1.00
C1167  C     0.97486   0.79695   0.97327   0.00000  Uiso   1.00
H1168  H     0.96561   0.76989   0.95227   0.00000  Uiso   1.00
H1169  H     0.99720   0.81805   0.94358   0.00000  Uiso   1.00
H1170  H     0.99600   0.78498   0.99832   0.00000  Uiso   1.00
loop_
_geom_bond_atom_site_label_1
_geom_bond_atom_site_label_2
_geom_bond_distance
_geom_bond_site_symmetry_2
_ccdc_geom_bond_type
C1     O44     1.285   .     A
C1     O45     1.283   .     A
C1     C17     1.404   .     S
C2     C3      1.406   .     A
C2     C589    1.421   .     S
C2     C613    1.419   .     S
C3     C10     1.420   .     A
C3     C7      1.410   .     A
C4     C8      1.383   .     A
C4     C587    1.421   1_554 S
C4     C590    1.423   1_554 S
C5     C6      1.392   .     A
C5     C589    1.423   .     S
C5     C609    1.415   .     S
C6     C7      1.380   .     A
C6     H35     1.081   .     S
C7     H40     1.074   .     S
C8     C25     1.390   .     A
C8     H36     1.077   .     S
C9     H29     1.084   .     S
C9     C25     1.395   .     A
C9     C24     1.396   .     A
C10    C12     1.475   .     S
C10    C26     1.396   .     A
C11    H41     1.085   .     S
C11    C17     1.392   .     A
C11    C208    1.381   .     S
C12    O47     1.289   .     A
C12    O46     1.311   .     A
C13    C54     1.508   .     S
C13    C14     1.408   .     A
C13    C401    1.381   1_545 S
C14    C15     1.396   .     A
C14    C22     1.411   .     S
C15    H30     1.084   .     S
C15    C406    1.371   1_545 S
C16    H31     1.084   .     S
C16    C17     1.389   .     A
C16    C210    1.371   .     S
C18    N43     1.368   .     A
C18    H32     1.078   .     S
C18    C84     1.420   .     S
C19    N42     1.367   .     A
C19    H33     1.082   .     S
C19    C148    1.420   1_455 S
C20    N42     1.383   .     A
C20    C58     1.499   .     S
C20    C151    1.418   1_455 S
C21    H34     1.080   .     S
C21    N43     1.357   .     A
C21    C85     1.418   .     S
C22    O48     1.284   .     A
C22    O49     1.286   .     A
C23    C25     1.442   .     S
C23    O50     1.292   .     A
C23    O51     1.295   .     A
C24    C590    1.415   1_554 S
C24    C647    1.506   1_554 S
C26    H37     1.079   .     S
C26    C27     1.390   .     A
C27    C613    1.394   .     S
C27    H624    1.083   .     S
C28    H38     1.077   .     S
C28    C587    1.419   1_554 S
C28    C612    1.394   1_554 S
H39    C612    1.083   1_554 S
N42    Zn52    2.022   .     S
N43    Zn53    2.022   .     S
O44    Zn52    1.991   .     S
O45    Zn53    1.977   .     S
O46    Zn52    1.989   .     S
O47    Zn53    1.962   .     S
O48    Zn52    1.977   .     S
O49    Zn53    1.991   .     S
O50    Zn52    1.962   .     S
O51    Zn53    1.989   .     S
C54    H56     1.105   .     S
C54    H55     1.111   .     S
C54    H57     1.111   .     S
C58    H60     1.108   .     S
C58    H59     1.103   .     S
C58    H191    1.111   1_455 S
H61    C123    1.111   .     S
C62    H63     1.110   .     S
C62    H64     1.099   .     S
C62    H65     1.111   .     S
C62    C609    1.506   .     S
C66    O109    1.285   .     A
C66    O110    1.283   .     A
C66    C82     1.404   .     S
C67    C68     1.406   .     A
C67    C654    1.421   .     S
C67    C678    1.419   .     S
C68    C75     1.420   .     A
C68    C72     1.410   .     A
C69    C73     1.383   .     A
C69    C652    1.421   1_554 S
C69    C655    1.423   1_554 S
C70    C71     1.392   .     A
C70    C654    1.423   .     S
C70    C674    1.415   .     S
C71    C72     1.380   .     A
C71    H100    1.081   .     S
C72    H105    1.074   .     S
C73    C90     1.390   .     A
C73    H101    1.077   .     S
C74    H94     1.084   .     S
C74    C90     1.395   .     A
C74    C89     1.396   .     A
C75    C77     1.475   .     S
C75    C91     1.396   .     A
C76    H106    1.085   .     S
C76    C82     1.392   .     A
C76    C273    1.381   .     S
C77    O112    1.289   .     A
C77    O111    1.311   .     A
C78    C119    1.508   .     S
C78    C79     1.408   .     A
C78    C466    1.381   1_545 S
C79    C80     1.396   .     A
C79    C87     1.411   .     S
C80    H95     1.084   .     S
C80    C471    1.371   1_545 S
C81    H96     1.084   .     S
C81    C82     1.389   .     A
C81    C275    1.371   .     S
C83    N108    1.368   .     A
C83    H97     1.078   .     S
C83    C149    1.420   .     S
C84    N107    1.367   .     A
C84    H98     1.082   .     S
C85    N107    1.383   .     A
C85    C123    1.499   .     S
C86    H99     1.080   .     S
C86    N108    1.357   .     A
C86    C150    1.418   .     S
C87    O113    1.284   .     A
C87    O114    1.286   .     A
C88    C90     1.442   .     S
C88    O115    1.292   .     A
C88    O116    1.295   .     A
C89    C655    1.415   1_554 S
C89    C712    1.506   1_554 S
C91    H102    1.079   .     S
C91    C92     1.390   .     A
C92    C678    1.394   .     S
C92    H689    1.083   .     S
C93    H103    1.077   .     S
C93    C652    1.419   1_554 S
C93    C677    1.394   1_554 S
H104   C677    1.083   1_554 S
N107   Zn117   2.022   .     S
N108   Zn118   2.022   .     S
O109   Zn117   1.991   .     S
O110   Zn118   1.977   .     S
O111   Zn117   1.989   .     S
O112   Zn118   1.962   .     S
O113   Zn117   1.977   .     S
O114   Zn118   1.991   .     S
O115   Zn117   1.962   .     S
O116   Zn118   1.989   .     S
C119   H121    1.105   .     S
C119   H120    1.111   .     S
C119   H122    1.111   .     S
C123   H125    1.108   .     S
C123   H124    1.103   .     S
H126   C188    1.111   .     S
C127   H128    1.110   .     S
C127   H129    1.099   .     S
C127   H130    1.111   .     S
C127   C674    1.506   .     S
C131   O174    1.285   .     A
C131   O175    1.283   .     A
C131   C147    1.404   .     S
C132   C133    1.406   .     A
C132   C719    1.421   .     S
C132   C743    1.419   .     S
C133   C140    1.420   .     A
C133   C137    1.410   .     A
C134   C138    1.383   .     A
C134   C717    1.421   1_554 S
C134   C720    1.423   1_554 S
C135   C136    1.392   .     A
C135   C719    1.423   .     S
C135   C739    1.415   .     S
C136   C137    1.380   .     A
C136   H165    1.081   .     S
C137   H170    1.074   .     S
C138   C155    1.390   .     A
C138   H166    1.077   .     S
C139   H159    1.084   .     S
C139   C155    1.395   .     A
C139   C154    1.396   .     A
C140   C142    1.475   .     S
C140   C156    1.396   .     A
C141   H171    1.085   .     S
C141   C147    1.392   .     A
C141   C338    1.381   .     S
C142   O177    1.289   .     A
C142   O176    1.311   .     A
C143   C184    1.508   .     S
C143   C144    1.408   .     A
C143   C531    1.381   1_545 S
C144   C145    1.396   .     A
C144   C152    1.411   .     S
C145   H160    1.084   .     S
C145   C536    1.371   1_545 S
C146   H161    1.084   .     S
C146   C147    1.389   .     A
C146   C340    1.371   .     S
C148   N173    1.368   .     A
C148   H162    1.078   .     S
C148   C19     1.420   1_655 S
C149   N172    1.367   .     A
C149   H163    1.082   .     S
C150   N172    1.383   .     A
C150   C188    1.499   .     S
C151   H164    1.080   .     S
C151   N173    1.357   .     A
C151   C20     1.418   1_655 S
C152   O178    1.284   .     A
C152   O179    1.286   .     A
C153   C155    1.442   .     S
C153   O180    1.292   .     A
C153   O181    1.295   .     A
C154   C720    1.415   1_554 S
C154   C777    1.506   1_554 S
C156   H167    1.079   .     S
C156   C157    1.390   .     A
C157   C743    1.394   .     S
C157   H754    1.083   .     S
C158   H168    1.077   .     S
C158   C717    1.419   1_554 S
C158   C742    1.394   1_554 S
H169   C742    1.083   1_554 S
N172   Zn182   2.022   .     S
N173   Zn183   2.022   .     S
O174   Zn182   1.991   .     S
O175   Zn183   1.977   .     S
O176   Zn182   1.989   .     S
O177   Zn183   1.962   .     S
O178   Zn182   1.977   .     S
O179   Zn183   1.991   .     S
O180   Zn182   1.962   .     S
O181   Zn183   1.989   .     S
C184   H186    1.105   .     S
C184   H185    1.111   .     S
C184   H187    1.111   .     S
C188   H190    1.108   .     S
C188   H189    1.103   .     S
H191   C58     1.111   1_655 S
C192   H193    1.110   .     S
C192   H194    1.099   .     S
C192   H195    1.111   .     S
C192   C739    1.506   .     S
C196   O239    1.285   .     A
C196   O240    1.283   .     A
C196   C212    1.404   .     S
C197   C198    1.406   .     A
C197   C784    1.421   .     S
C197   C808    1.419   .     S
C198   C205    1.420   .     A
C198   C202    1.410   .     A
C199   C203    1.383   .     A
C199   C782    1.421   1_554 S
C199   C785    1.423   1_554 S
C200   C201    1.392   .     A
C200   C784    1.423   .     S
C200   C804    1.415   .     S
C201   C202    1.380   .     A
C201   H230    1.081   .     S
C202   H235    1.074   .     S
C203   C220    1.390   .     A
C203   H231    1.077   .     S
C204   H224    1.084   .     S
C204   C220    1.395   .     A
C204   C219    1.396   .     A
C205   C207    1.475   .     S
C205   C221    1.396   .     A
C206   H236    1.085   .     S
C206   C212    1.392   .     A
C206   C403    1.381   .     S
C207   O242    1.289   .     A
C207   O241    1.311   .     A
C208   C249    1.508   .     S
C208   C209    1.408   .     A
C209   C210    1.396   .     A
C209   C217    1.411   .     S
C210   H225    1.084   .     S
C211   H226    1.084   .     S
C211   C212    1.389   .     A
C211   C405    1.371   .     S
C213   N238    1.368   .     A
C213   H227    1.078   .     S
C213   C279    1.420   .     S
C214   N237    1.367   .     A
C214   H228    1.082   .     S
C214   C343    1.420   1_455 S
C215   N237    1.383   .     A
C215   C253    1.499   .     S
C215   C346    1.418   1_455 S
C216   H229    1.080   .     S
C216   N238    1.357   .     A
C216   C280    1.418   .     S
C217   O243    1.284   .     A
C217   O244    1.286   .     A
C218   C220    1.442   .     S
C218   O245    1.292   .     A
C218   O246    1.295   .     A
C219   C785    1.415   1_554 S
C219   C842    1.506   1_554 S
C221   H232    1.079   .     S
C221   C222    1.390   .     A
C222   C808    1.394   .     S
C222   H819    1.083   .     S
C223   H233    1.077   .     S
C223   C782    1.419   1_554 S
C223   C807    1.394   1_554 S
H234   C807    1.083   1_554 S
N237   Zn247   2.022   .     S
N238   Zn248   2.022   .     S
O239   Zn247   1.991   .     S
O240   Zn248   1.977   .     S
O241   Zn247   1.989   .     S
O242   Zn248   1.962   .     S
O243   Zn247   1.977   .     S
O244   Zn248   1.991   .     S
O245   Zn247   1.962   .     S
O246   Zn248   1.989   .     S
C249   H251    1.105   .     S
C249   H250    1.111   .     S
C249   H252    1.111   .     S
C253   H255    1.108   .     S
C253   H254    1.103   .     S
C253   H386    1.111   1_455 S
H256   C318    1.111   .     S
C257   H258    1.110   .     S
C257   H259    1.099   .     S
C257   H260    1.111   .     S
C257   C804    1.506   .     S
C261   O304    1.285   .     A
C261   O305    1.283   .     A
C261   C277    1.404   .     S
C262   C263    1.406   .     A
C262   C849    1.421   .     S
C262   C873    1.419   .     S
C263   C270    1.420   .     A
C263   C267    1.410   .     A
C264   C268    1.383   .     A
C264   C847    1.421   1_554 S
C264   C850    1.423   1_554 S
C265   C266    1.392   .     A
C265   C849    1.423   .     S
C265   C869    1.415   .     S
C266   C267    1.380   .     A
C266   H295    1.081   .     S
C267   H300    1.074   .     S
C268   C285    1.390   .     A
C268   H296    1.077   .     S
C269   H289    1.084   .     S
C269   C285    1.395   .     A
C269   C284    1.396   .     A
C270   C272    1.475   .     S
C270   C286    1.396   .     A
C271   H301    1.085   .     S
C271   C277    1.392   .     A
C271   C468    1.381   .     S
C272   O307    1.289   .     A
C272   O306    1.311   .     A
C273   C314    1.508   .     S
C273   C274    1.408   .     A
C274   C275    1.396   .     A
C274   C282    1.411   .     S
C275   H290    1.084   .     S
C276   H291    1.084   .     S
C276   C277    1.389   .     A
C276   C470    1.371   .     S
C278   N303    1.368   .     A
C278   H292    1.078   .     S
C278   C344    1.420   .     S
C279   N302    1.367   .     A
C279   H293    1.082   .     S
C280   N302    1.383   .     A
C280   C318    1.499   .     S
C281   H294    1.080   .     S
C281   N303    1.357   .     A
C281   C345    1.418   .     S
C282   O308    1.284   .     A
C282   O309    1.286   .     A
C283   C285    1.442   .     S
C283   O310    1.292   .     A
C283   O311    1.295   .     A
C284   C850    1.415   1_554 S
C284   C907    1.506   1_554 S
C286   H297    1.079   .     S
C286   C287    1.390   .     A
C287   C873    1.394   .     S
C287   H884    1.083   .     S
C288   H298    1.077   .     S
C288   C847    1.419   1_554 S
C288   C872    1.394   1_554 S
H299   C872    1.083   1_554 S
N302   Zn312   2.022   .     S
N303   Zn313   2.022   .     S
O304   Zn312   1.991   .     S
O305   Zn313   1.977   .     S
O306   Zn312   1.989   .     S
O307   Zn313   1.962   .     S
O308   Zn312   1.977   .     S
O309   Zn313   1.991   .     S
O310   Zn312   1.962   .     S
O311   Zn313   1.989   .     S
C314   H316    1.105   .     S
C314   H315    1.111   .     S
C314   H317    1.111   .     S
C318   H320    1.108   .     S
C318   H319    1.103   .     S
H321   C383    1.111   .     S
C322   H323    1.110   .     S
C322   H324    1.099   .     S
C322   H325    1.111   .     S
C322   C869    1.506   .     S
C326   O369    1.285   .     A
C326   O370    1.283   .     A
C326   C342    1.404   .     S
C327   C328    1.406   .     A
C327   C914    1.421   .     S
C327   C938    1.419   .     S
C328   C335    1.420   .     A
C328   C332    1.410   .     A
C329   C333    1.383   .     A
C329   C912    1.421   1_554 S
C329   C915    1.423   1_554 S
C330   C331    1.392   .     A
C330   C914    1.423   .     S
C330   C934    1.415   .     S
C331   C332    1.380   .     A
C331   H360    1.081   .     S
C332   H365    1.074   .     S
C333   C350    1.390   .     A
C333   H361    1.077   .     S
C334   H354    1.084   .     S
C334   C350    1.395   .     A
C334   C349    1.396   .     A
C335   C337    1.475   .     S
C335   C351    1.396   .     A
C336   H366    1.085   .     S
C336   C342    1.392   .     A
C336   C533    1.381   .     S
C337   O372    1.289   .     A
C337   O371    1.311   .     A
C338   C379    1.508   .     S
C338   C339    1.408   .     A
C339   C340    1.396   .     A
C339   C347    1.411   .     S
C340   H355    1.084   .     S
C341   H356    1.084   .     S
C341   C342    1.389   .     A
C341   C535    1.371   .     S
C343   N368    1.368   .     A
C343   H357    1.078   .     S
C343   C214    1.420   1_655 S
C344   N367    1.367   .     A
C344   H358    1.082   .     S
C345   N367    1.383   .     A
C345   C383    1.499   .     S
C346   H359    1.080   .     S
C346   N368    1.357   .     A
C346   C215    1.418   1_655 S
C347   O373    1.284   .     A
C347   O374    1.286   .     A
C348   C350    1.442   .     S
C348   O375    1.292   .     A
C348   O376    1.295   .     A
C349   C915    1.415   1_554 S
C349   C972    1.506   1_554 S
C351   H362    1.079   .     S
C351   C352    1.390   .     A
C352   C938    1.394   .     S
C352   H949    1.083   .     S
C353   H363    1.077   .     S
C353   C912    1.419   1_554 S
C353   C937    1.394   1_554 S
H364   C937    1.083   1_554 S
N367   Zn377   2.022   .     S
N368   Zn378   2.022   .     S
O369   Zn377   1.991   .     S
O370   Zn378   1.977   .     S
O371   Zn377   1.989   .     S
O372   Zn378   1.962   .     S
O373   Zn377   1.977   .     S
O374   Zn378   1.991   .     S
O375   Zn377   1.962   .     S
O376   Zn378   1.989   .     S
C379   H381    1.105   .     S
C379   H380    1.111   .     S
C379   H382    1.111   .     S
C383   H385    1.108   .     S
C383   H384    1.103   .     S
H386   C253    1.111   1_655 S
C387   H388    1.110   .     S
C387   H389    1.099   .     S
C387   H390    1.111   .     S
C387   C934    1.506   .     S
C391   O434    1.285   .     A
C391   O435    1.283   .     A
C391   C407    1.404   .     S
C392   C393    1.406   .     A
C392   C979    1.421   .     S
C392   C1003   1.419   .     S
C393   C400    1.420   .     A
C393   C397    1.410   .     A
C394   C398    1.383   .     A
C394   C977    1.421   1_554 S
C394   C980    1.423   1_554 S
C395   C396    1.392   .     A
C395   C979    1.423   .     S
C395   C999    1.415   .     S
C396   C397    1.380   .     A
C396   H425    1.081   .     S
C397   H430    1.074   .     S
C398   C415    1.390   .     A
C398   H426    1.077   .     S
C399   H419    1.084   .     S
C399   C415    1.395   .     A
C399   C414    1.396   .     A
C400   C402    1.475   .     S
C400   C416    1.396   .     A
C401   H431    1.085   .     S
C401   C407    1.392   .     A
C401   C13     1.381   1_565 S
C402   O437    1.289   .     A
C402   O436    1.311   .     A
C403   C444    1.508   .     S
C403   C404    1.408   .     A
C404   C405    1.396   .     A
C404   C412    1.411   .     S
C405   H420    1.084   .     S
C406   H421    1.084   .     S
C406   C407    1.389   .     A
C406   C15     1.371   1_565 S
C408   N433    1.368   .     A
C408   H422    1.078   .     S
C408   C474    1.420   .     S
C409   N432    1.367   .     A
C409   H423    1.082   .     S
C409   C538    1.420   1_455 S
C410   N432    1.383   .     A
C410   C448    1.499   .     S
C410   C541    1.418   1_455 S
C411   H424    1.080   .     S
C411   N433    1.357   .     A
C411   C475    1.418   .     S
C412   O438    1.284   .     A
C412   O439    1.286   .     A
C413   C415    1.442   .     S
C413   O440    1.292   .     A
C413   O441    1.295   .     A
C414   C980    1.415   1_554 S
C414   C1037   1.506   1_554 S
C416   H427    1.079   .     S
C416   C417    1.390   .     A
C417   C1003   1.394   .     S
C417   H1014   1.083   .     S
C418   H428    1.077   .     S
C418   C977    1.419   1_554 S
C418   C1002   1.394   1_554 S
H429   C1002   1.083   1_554 S
N432   Zn442   2.022   .     S
N433   Zn443   2.022   .     S
O434   Zn442   1.991   .     S
O435   Zn443   1.977   .     S
O436   Zn442   1.989   .     S
O437   Zn443   1.962   .     S
O438   Zn442   1.977   .     S
O439   Zn443   1.991   .     S
O440   Zn442   1.962   .     S
O441   Zn443   1.989   .     S
C444   H446    1.105   .     S
C444   H445    1.111   .     S
C444   H447    1.111   .     S
C448   H450    1.108   .     S
C448   H449    1.103   .     S
C448   H581    1.111   1_455 S
H451   C513    1.111   .     S
C452   H453    1.110   .     S
C452   H454    1.099   .     S
C452   H455    1.111   .     S
C452   C999    1.506   .     S
C456   O499    1.285   .     A
C456   O500    1.283   .     A
C456   C472    1.404   .     S
C457   C458    1.406   .     A
C457   C1044   1.421   .     S
C457   C1068   1.419   .     S
C458   C465    1.420   .     A
C458   C462    1.410   .     A
C459   C463    1.383   .     A
C459   C1042   1.421   1_554 S
C459   C1045   1.423   1_554 S
C460   C461    1.392   .     A
C460   C1044   1.423   .     S
C460   C1064   1.415   .     S
C461   C462    1.380   .     A
C461   H490    1.081   .     S
C462   H495    1.074   .     S
C463   C480    1.390   .     A
C463   H491    1.077   .     S
C464   H484    1.084   .     S
C464   C480    1.395   .     A
C464   C479    1.396   .     A
C465   C467    1.475   .     S
C465   C481    1.396   .     A
C466   H496    1.085   .     S
C466   C472    1.392   .     A
C466   C78     1.381   1_565 S
C467   O502    1.289   .     A
C467   O501    1.311   .     A
C468   C509    1.508   .     S
C468   C469    1.408   .     A
C469   C470    1.396   .     A
C469   C477    1.411   .     S
C470   H485    1.084   .     S
C471   H486    1.084   .     S
C471   C472    1.389   .     A
C471   C80     1.371   1_565 S
C473   N498    1.368   .     A
C473   H487    1.078   .     S
C473   C539    1.420   .     S
C474   N497    1.367   .     A
C474   H488    1.082   .     S
C475   N497    1.383   .     A
C475   C513    1.499   .     S
C476   H489    1.080   .     S
C476   N498    1.357   .     A
C476   C540    1.418   .     S
C477   O503    1.284   .     A
C477   O504    1.286   .     A
C478   C480    1.442   .     S
C478   O505    1.292   .     A
C478   O506    1.295   .     A
C479   C1045   1.415   1_554 S
C479   C1102   1.506   1_554 S
C481   H492    1.079   .     S
C481   C482    1.390   .     A
C482   C1068   1.394   .     S
C482   H1079   1.083   .     S
C483   H493    1.077   .     S
C483   C1042   1.419   1_554 S
C483   C1067   1.394   1_554 S
H494   C1067   1.083   1_554 S
N497   Zn507   2.022   .     S
N498   Zn508   2.022   .     S
O499   Zn507   1.991   .     S
O500   Zn508   1.977   .     S
O501   Zn507   1.989   .     S
O502   Zn508   1.962   .     S
O503   Zn507   1.977   .     S
O504   Zn508   1.991   .     S
O505   Zn507   1.962   .     S
O506   Zn508   1.989   .     S
C509   H511    1.105   .     S
C509   H510    1.111   .     S
C509   H512    1.111   .     S
C513   H515    1.108   .     S
C513   H514    1.103   .     S
H516   C578    1.111   .     S
C517   H518    1.110   .     S
C517   H519    1.099   .     S
C517   H520    1.111   .     S
C517   C1064   1.506   .     S
C521   O564    1.285   .     A
C521   O565    1.283   .     A
C521   C537    1.404   .     S
C522   C523    1.406   .     A
C522   C1109   1.421   .     S
C522   C1133   1.419   .     S
C523   C530    1.420   .     A
C523   C527    1.410   .     A
C524   C528    1.383   .     A
C524   C1107   1.421   1_554 S
C524   C1110   1.423   1_554 S
C525   C526    1.392   .     A
C525   C1109   1.423   .     S
C525   C1129   1.415   .     S
C526   C527    1.380   .     A
C526   H555    1.081   .     S
C527   H560    1.074   .     S
C528   C545    1.390   .     A
C528   H556    1.077   .     S
C529   H549    1.084   .     S
C529   C545    1.395   .     A
C529   C544    1.396   .     A
C530   C532    1.475   .     S
C530   C546    1.396   .     A
C531   H561    1.085   .     S
C531   C537    1.392   .     A
C531   C143    1.381   1_565 S
C532   O567    1.289   .     A
C532   O566    1.311   .     A
C533   C574    1.508   .     S
C533   C534    1.408   .     A
C534   C535    1.396   .     A
C534   C542    1.411   .     S
C535   H550    1.084   .     S
C536   H551    1.084   .     S
C536   C537    1.389   .     A
C536   C145    1.371   1_565 S
C538   N563    1.368   .     A
C538   H552    1.078   .     S
C538   C409    1.420   1_655 S
C539   N562    1.367   .     A
C539   H553    1.082   .     S
C540   N562    1.383   .     A
C540   C578    1.499   .     S
C541   H554    1.080   .     S
C541   N563    1.357   .     A
C541   C410    1.418   1_655 S
C542   O568    1.284   .     A
C542   O569    1.286   .     A
C543   C545    1.442   .     S
C543   O570    1.292   .     A
C543   O571    1.295   .     A
C544   C1110   1.415   1_554 S
C544   C1167   1.506   1_554 S
C546   H557    1.079   .     S
C546   C547    1.390   .     A
C547   C1133   1.394   .     S
C547   H1144   1.083   .     S
C548   H558    1.077   .     S
C548   C1107   1.419   1_554 S
C548   C1132   1.394   1_554 S
H559   C1132   1.083   1_554 S
N562   Zn572   2.022   .     S
N563   Zn573   2.022   .     S
O564   Zn572   1.991   .     S
O565   Zn573   1.977   .     S
O566   Zn572   1.989   .     S
O567   Zn573   1.962   .     S
O568   Zn572   1.977   .     S
O569   Zn573   1.991   .     S
O570   Zn572   1.962   .     S
O571   Zn573   1.989   .     S
C574   H576    1.105   .     S
C574   H575    1.111   .     S
C574   H577    1.111   .     S
C578   H580    1.108   .     S
C578   H579    1.103   .     S
H581   C448    1.111   1_655 S
C582   H583    1.110   .     S
C582   H584    1.099   .     S
C582   H585    1.111   .     S
C582   C1129   1.506   .     S
C586   O629    1.285   .     A
C586   O630    1.283   .     A
C586   C602    1.404   .     S
C587   C588    1.406   .     A
C587   C4      1.421   1_556 S
C587   C28     1.419   1_556 S
C588   C595    1.420   .     A
C588   C592    1.410   .     A
C589   C593    1.383   .     A
C590   C591    1.392   .     A
C590   C4      1.423   1_556 S
C590   C24     1.415   1_556 S
C591   C592    1.380   .     A
C591   H620    1.081   .     S
C592   H625    1.074   .     S
C593   C610    1.390   .     A
C593   H621    1.077   .     S
C594   H614    1.084   .     S
C594   C610    1.395   .     A
C594   C609    1.396   .     A
C595   C597    1.475   .     S
C595   C611    1.396   .     A
C596   H626    1.085   .     S
C596   C602    1.392   .     A
C596   C793    1.381   .     S
C597   O632    1.289   .     A
C597   O631    1.311   .     A
C598   C639    1.508   .     S
C598   C599    1.408   .     A
C598   C986    1.381   1_545 S
C599   C600    1.396   .     A
C599   C607    1.411   .     S
C600   H615    1.084   .     S
C600   C991    1.371   1_545 S
C601   H616    1.084   .     S
C601   C602    1.389   .     A
C601   C795    1.371   .     S
C603   N628    1.368   .     A
C603   H617    1.078   .     S
C603   C669    1.420   .     S
C604   N627    1.367   .     A
C604   H618    1.082   .     S
C604   C733    1.420   1_455 S
C605   N627    1.383   .     A
C605   C643    1.499   .     S
C605   C736    1.418   1_455 S
C606   H619    1.080   .     S
C606   N628    1.357   .     A
C606   C670    1.418   .     S
C607   O633    1.284   .     A
C607   O634    1.286   .     A
C608   C610    1.442   .     S
C608   O635    1.292   .     A
C608   O636    1.295   .     A
C611   H622    1.079   .     S
C611   C612    1.390   .     A
C612   C28     1.394   1_556 S
C612   H39     1.083   1_556 S
C613   H623    1.077   .     S
N627   Zn637   2.022   .     S
N628   Zn638   2.022   .     S
O629   Zn637   1.991   .     S
O630   Zn638   1.977   .     S
O631   Zn637   1.989   .     S
O632   Zn638   1.962   .     S
O633   Zn637   1.977   .     S
O634   Zn638   1.991   .     S
O635   Zn637   1.962   .     S
O636   Zn638   1.989   .     S
C639   H641    1.105   .     S
C639   H640    1.111   .     S
C639   H642    1.111   .     S
C643   H645    1.108   .     S
C643   H644    1.103   .     S
C643   H776    1.111   1_455 S
H646   C708    1.111   .     S
C647   H648    1.110   .     S
C647   H649    1.099   .     S
C647   H650    1.111   .     S
C647   C24     1.506   1_556 S
C651   O694    1.285   .     A
C651   O695    1.283   .     A
C651   C667    1.404   .     S
C652   C653    1.406   .     A
C652   C69     1.421   1_556 S
C652   C93     1.419   1_556 S
C653   C660    1.420   .     A
C653   C657    1.410   .     A
C654   C658    1.383   .     A
C655   C656    1.392   .     A
C655   C69     1.423   1_556 S
C655   C89     1.415   1_556 S
C656   C657    1.380   .     A
C656   H685    1.081   .     S
C657   H690    1.074   .     S
C658   C675    1.390   .     A
C658   H686    1.077   .     S
C659   H679    1.084   .     S
C659   C675    1.395   .     A
C659   C674    1.396   .     A
C660   C662    1.475   .     S
C660   C676    1.396   .     A
C661   H691    1.085   .     S
C661   C667    1.392   .     A
C661   C858    1.381   .     S
C662   O697    1.289   .     A
C662   O696    1.311   .     A
C663   C704    1.508   .     S
C663   C664    1.408   .     A
C663   C1051   1.381   1_545 S
C664   C665    1.396   .     A
C664   C672    1.411   .     S
C665   H680    1.084   .     S
C665   C1056   1.371   1_545 S
C666   H681    1.084   .     S
C666   C667    1.389   .     A
C666   C860    1.371   .     S
C668   N693    1.368   .     A
C668   H682    1.078   .     S
C668   C734    1.420   .     S
C669   N692    1.367   .     A
C669   H683    1.082   .     S
C670   N692    1.383   .     A
C670   C708    1.499   .     S
C671   H684    1.080   .     S
C671   N693    1.357   .     A
C671   C735    1.418   .     S
C672   O698    1.284   .     A
C672   O699    1.286   .     A
C673   C675    1.442   .     S
C673   O700    1.292   .     A
C673   O701    1.295   .     A
C676   H687    1.079   .     S
C676   C677    1.390   .     A
C677   C93     1.394   1_556 S
C677   H104    1.083   1_556 S
C678   H688    1.077   .     S
N692   Zn702   2.022   .     S
N693   Zn703   2.022   .     S
O694   Zn702   1.991   .     S
O695   Zn703   1.977   .     S
O696   Zn702   1.989   .     S
O697   Zn703   1.962   .     S
O698   Zn702   1.977   .     S
O699   Zn703   1.991   .     S
O700   Zn702   1.962   .     S
O701   Zn703   1.989   .     S
C704   H706    1.105   .     S
C704   H705    1.111   .     S
C704   H707    1.111   .     S
C708   H710    1.108   .     S
C708   H709    1.103   .     S
H711   C773    1.111   .     S
C712   H713    1.110   .     S
C712   H714    1.099   .     S
C712   H715    1.111   .     S
C712   C89     1.506   1_556 S
C716   O759    1.285   .     A
C716   O760    1.283   .     A
C716   C732    1.404   .     S
C717   C718    1.406   .     A
C717   C134    1.421   1_556 S
C717   C158    1.419   1_556 S
C718   C725    1.420   .     A
C718   C722    1.410   .     A
C719   C723    1.383   .     A
C720   C721    1.392   .     A
C720   C134    1.423   1_556 S
C720   C154    1.415   1_556 S
C721   C722    1.380   .     A
C721   H750    1.081   .     S
C722   H755    1.074   .     S
C723   C740    1.390   .     A
C723   H751    1.077   .     S
C724   H744    1.084   .     S
C724   C740    1.395   .     A
C724   C739    1.396   .     A
C725   C727    1.475   .     S
C725   C741    1.396   .     A
C726   H756    1.085   .     S
C726   C732    1.392   .     A
C726   C923    1.381   .     S
C727   O762    1.289   .     A
C727   O761    1.311   .     A
C728   C769    1.508   .     S
C728   C729    1.408   .     A
C728   C1116   1.381   1_545 S
C729   C730    1.396   .     A
C729   C737    1.411   .     S
C730   H745    1.084   .     S
C730   C1121   1.371   1_545 S
C731   H746    1.084   .     S
C731   C732    1.389   .     A
C731   C925    1.371   .     S
C733   N758    1.368   .     A
C733   H747    1.078   .     S
C733   C604    1.420   1_655 S
C734   N757    1.367   .     A
C734   H748    1.082   .     S
C735   N757    1.383   .     A
C735   C773    1.499   .     S
C736   H749    1.080   .     S
C736   N758    1.357   .     A
C736   C605    1.418   1_655 S
C737   O763    1.284   .     A
C737   O764    1.286   .     A
C738   C740    1.442   .     S
C738   O765    1.292   .     A
C738   O766    1.295   .     A
C741   H752    1.079   .     S
C741   C742    1.390   .     A
C742   C158    1.394   1_556 S
C742   H169    1.083   1_556 S
C743   H753    1.077   .     S
N757   Zn767   2.022   .     S
N758   Zn768   2.022   .     S
O759   Zn767   1.991   .     S
O760   Zn768   1.977   .     S
O761   Zn767   1.989   .     S
O762   Zn768   1.962   .     S
O763   Zn767   1.977   .     S
O764   Zn768   1.991   .     S
O765   Zn767   1.962   .     S
O766   Zn768   1.989   .     S
C769   H771    1.105   .     S
C769   H770    1.111   .     S
C769   H772    1.111   .     S
C773   H775    1.108   .     S
C773   H774    1.103   .     S
H776   C643    1.111   1_655 S
C777   H778    1.110   .     S
C777   H779    1.099   .     S
C777   H780    1.111   .     S
C777   C154    1.506   1_556 S
C781   O824    1.285   .     A
C781   O825    1.283   .     A
C781   C797    1.404   .     S
C782   C783    1.406   .     A
C782   C199    1.421   1_556 S
C782   C223    1.419   1_556 S
C783   C790    1.420   .     A
C783   C787    1.410   .     A
C784   C788    1.383   .     A
C785   C786    1.392   .     A
C785   C199    1.423   1_556 S
C785   C219    1.415   1_556 S
C786   C787    1.380   .     A
C786   H815    1.081   .     S
C787   H820    1.074   .     S
C788   C805    1.390   .     A
C788   H816    1.077   .     S
C789   H809    1.084   .     S
C789   C805    1.395   .     A
C789   C804    1.396   .     A
C790   C792    1.475   .     S
C790   C806    1.396   .     A
C791   H821    1.085   .     S
C791   C797    1.392   .     A
C791   C988    1.381   .     S
C792   O827    1.289   .     A
C792   O826    1.311   .     A
C793   C834    1.508   .     S
C793   C794    1.408   .     A
C794   C795    1.396   .     A
C794   C802    1.411   .     S
C795   H810    1.084   .     S
C796   H811    1.084   .     S
C796   C797    1.389   .     A
C796   C990    1.371   .     S
C798   N823    1.368   .     A
C798   H812    1.078   .     S
C798   C864    1.420   .     S
C799   N822    1.367   .     A
C799   H813    1.082   .     S
C799   C928    1.420   1_455 S
C800   N822    1.383   .     A
C800   C838    1.499   .     S
C800   C931    1.418   1_455 S
C801   H814    1.080   .     S
C801   N823    1.357   .     A
C801   C865    1.418   .     S
C802   O828    1.284   .     A
C802   O829    1.286   .     A
C803   C805    1.442   .     S
C803   O830    1.292   .     A
C803   O831    1.295   .     A
C806   H817    1.079   .     S
C806   C807    1.390   .     A
C807   C223    1.394   1_556 S
C807   H234    1.083   1_556 S
C808   H818    1.077   .     S
N822   Zn832   2.022   .     S
N823   Zn833   2.022   .     S
O824   Zn832   1.991   .     S
O825   Zn833   1.977   .     S
O826   Zn832   1.989   .     S
O827   Zn833   1.962   .     S
O828   Zn832   1.977   .     S
O829   Zn833   1.991   .     S
O830   Zn832   1.962   .     S
O831   Zn833   1.989   .     S
C834   H836    1.105   .     S
C834   H835    1.111   .     S
C834   H837    1.111   .     S
C838   H840    1.108   .     S
C838   H839    1.103   .     S
C838   H971    1.111   1_455 S
H841   C903    1.111   .     S
C842   H843    1.110   .     S
C842   H844    1.099   .     S
C842   H845    1.111   .     S
C842   C219    1.506   1_556 S
C846   O889    1.285   .     A
C846   O890    1.283   .     A
C846   C862    1.404   .     S
C847   C848    1.406   .     A
C847   C264    1.421   1_556 S
C847   C288    1.419   1_556 S
C848   C855    1.420   .     A
C848   C852    1.410   .     A
C849   C853    1.383   .     A
C850   C851    1.392   .     A
C850   C264    1.423   1_556 S
C850   C284    1.415   1_556 S
C851   C852    1.380   .     A
C851   H880    1.081   .     S
C852   H885    1.074   .     S
C853   C870    1.390   .     A
C853   H881    1.077   .     S
C854   H874    1.084   .     S
C854   C870    1.395   .     A
C854   C869    1.396   .     A
C855   C857    1.475   .     S
C855   C871    1.396   .     A
C856   H886    1.085   .     S
C856   C862    1.392   .     A
C856   C1053   1.381   .     S
C857   O892    1.289   .     A
C857   O891    1.311   .     A
C858   C899    1.508   .     S
C858   C859    1.408   .     A
C859   C860    1.396   .     A
C859   C867    1.411   .     S
C860   H875    1.084   .     S
C861   H876    1.084   .     S
C861   C862    1.389   .     A
C861   C1055   1.371   .     S
C863   N888    1.368   .     A
C863   H877    1.078   .     S
C863   C929    1.420   .     S
C864   N887    1.367   .     A
C864   H878    1.082   .     S
C865   N887    1.383   .     A
C865   C903    1.499   .     S
C866   H879    1.080   .     S
C866   N888    1.357   .     A
C866   C930    1.418   .     S
C867   O893    1.284   .     A
C867   O894    1.286   .     A
C868   C870    1.442   .     S
C868   O895    1.292   .     A
C868   O896    1.295   .     A
C871   H882    1.079   .     S
C871   C872    1.390   .     A
C872   C288    1.394   1_556 S
C872   H299    1.083   1_556 S
C873   H883    1.077   .     S
N887   Zn897   2.022   .     S
N888   Zn898   2.022   .     S
O889   Zn897   1.991   .     S
O890   Zn898   1.977   .     S
O891   Zn897   1.989   .     S
O892   Zn898   1.962   .     S
O893   Zn897   1.977   .     S
O894   Zn898   1.991   .     S
O895   Zn897   1.962   .     S
O896   Zn898   1.989   .     S
C899   H901    1.105   .     S
C899   H900    1.111   .     S
C899   H902    1.111   .     S
C903   H905    1.108   .     S
C903   H904    1.103   .     S
H906   C968    1.111   .     S
C907   H908    1.110   .     S
C907   H909    1.099   .     S
C907   H910    1.111   .     S
C907   C284    1.506   1_556 S
C911   O954    1.285   .     A
C911   O955    1.283   .     A
C911   C927    1.404   .     S
C912   C913    1.406   .     A
C912   C329    1.421   1_556 S
C912   C353    1.419   1_556 S
C913   C920    1.420   .     A
C913   C917    1.410   .     A
C914   C918    1.383   .     A
C915   C916    1.392   .     A
C915   C329    1.423   1_556 S
C915   C349    1.415   1_556 S
C916   C917    1.380   .     A
C916   H945    1.081   .     S
C917   H950    1.074   .     S
C918   C935    1.390   .     A
C918   H946    1.077   .     S
C919   H939    1.084   .     S
C919   C935    1.395   .     A
C919   C934    1.396   .     A
C920   C922    1.475   .     S
C920   C936    1.396   .     A
C921   H951    1.085   .     S
C921   C927    1.392   .     A
C921   C1118   1.381   .     S
C922   O957    1.289   .     A
C922   O956    1.311   .     A
C923   C964    1.508   .     S
C923   C924    1.408   .     A
C924   C925    1.396   .     A
C924   C932    1.411   .     S
C925   H940    1.084   .     S
C926   H941    1.084   .     S
C926   C927    1.389   .     A
C926   C1120   1.371   .     S
C928   N953    1.368   .     A
C928   H942    1.078   .     S
C928   C799    1.420   1_655 S
C929   N952    1.367   .     A
C929   H943    1.082   .     S
C930   N952    1.383   .     A
C930   C968    1.499   .     S
C931   H944    1.080   .     S
C931   N953    1.357   .     A
C931   C800    1.418   1_655 S
C932   O958    1.284   .     A
C932   O959    1.286   .     A
C933   C935    1.442   .     S
C933   O960    1.292   .     A
C933   O961    1.295   .     A
C936   H947    1.079   .     S
C936   C937    1.390   .     A
C937   C353    1.394   1_556 S
C937   H364    1.083   1_556 S
C938   H948    1.077   .     S
N952   Zn962   2.022   .     S
N953   Zn963   2.022   .     S
O954   Zn962   1.991   .     S
O955   Zn963   1.977   .     S
O956   Zn962   1.989   .     S
O957   Zn963   1.962   .     S
O958   Zn962   1.977   .     S
O959   Zn963   1.991   .     S
O960   Zn962   1.962   .     S
O961   Zn963   1.989   .     S
C964   H966    1.105   .     S
C964   H965    1.111   .     S
C964   H967    1.111   .     S
C968   H970    1.108   .     S
C968   H969    1.103   .     S
H971   C838    1.111   1_655 S
C972   H973    1.110   .     S
C972   H974    1.099   .     S
C972   H975    1.111   .     S
C972   C349    1.506   1_556 S
C976   O1019   1.285   .     A
C976   O1020   1.283   .     A
C976   C992    1.404   .     S
C977   C978    1.406   .     A
C977   C394    1.421   1_556 S
C977   C418    1.419   1_556 S
C978   C985    1.420   .     A
C978   C982    1.410   .     A
C979   C983    1.383   .     A
C980   C981    1.392   .     A
C980   C394    1.423   1_556 S
C980   C414    1.415   1_556 S
C981   C982    1.380   .     A
C981   H1010   1.081   .     S
C982   H1015   1.074   .     S
C983   C1000   1.390   .     A
C983   H1011   1.077   .     S
C984   H1004   1.084   .     S
C984   C1000   1.395   .     A
C984   C999    1.396   .     A
C985   C987    1.475   .     S
C985   C1001   1.396   .     A
C986   H1016   1.085   .     S
C986   C992    1.392   .     A
C986   C598    1.381   1_565 S
C987   O1022   1.289   .     A
C987   O1021   1.311   .     A
C988   C1029   1.508   .     S
C988   C989    1.408   .     A
C989   C990    1.396   .     A
C989   C997    1.411   .     S
C990   H1005   1.084   .     S
C991   H1006   1.084   .     S
C991   C992    1.389   .     A
C991   C600    1.371   1_565 S
C993   N1018   1.368   .     A
C993   H1007   1.078   .     S
C993   C1059   1.420   .     S
C994   N1017   1.367   .     A
C994   H1008   1.082   .     S
C994   C1123   1.420   1_455 S
C995   N1017   1.383   .     A
C995   C1033   1.499   .     S
C995   C1126   1.418   1_455 S
C996   H1009   1.080   .     S
C996   N1018   1.357   .     A
C996   C1060   1.418   .     S
C997   O1023   1.284   .     A
C997   O1024   1.286   .     A
C998   C1000   1.442   .     S
C998   O1025   1.292   .     A
C998   O1026   1.295   .     A
C1001  H1012   1.079   .     S
C1001  C1002   1.390   .     A
C1002  C418    1.394   1_556 S
C1002  H429    1.083   1_556 S
C1003  H1013   1.077   .     S
N1017  Zn1027  2.022   .     S
N1018  Zn1028  2.022   .     S
O1019  Zn1027  1.991   .     S
O1020  Zn1028  1.977   .     S
O1021  Zn1027  1.989   .     S
O1022  Zn1028  1.962   .     S
O1023  Zn1027  1.977   .     S
O1024  Zn1028  1.991   .     S
O1025  Zn1027  1.962   .     S
O1026  Zn1028  1.989   .     S
C1029  H1031   1.105   .     S
C1029  H1030   1.111   .     S
C1029  H1032   1.111   .     S
C1033  H1035   1.108   .     S
C1033  H1034   1.103   .     S
C1033  H1166   1.111   1_455 S
H1036  C1098   1.111   .     S
C1037  H1038   1.110   .     S
C1037  H1039   1.099   .     S
C1037  H1040   1.111   .     S
C1037  C414    1.506   1_556 S
C1041  O1084   1.285   .     A
C1041  O1085   1.283   .     A
C1041  C1057   1.404   .     S
C1042  C1043   1.406   .     A
C1042  C459    1.421   1_556 S
C1042  C483    1.419   1_556 S
C1043  C1050   1.420   .     A
C1043  C1047   1.410   .     A
C1044  C1048   1.383   .     A
C1045  C1046   1.392   .     A
C1045  C459    1.423   1_556 S
C1045  C479    1.415   1_556 S
C1046  C1047   1.380   .     A
C1046  H1075   1.081   .     S
C1047  H1080   1.074   .     S
C1048  C1065   1.390   .     A
C1048  H1076   1.077   .     S
C1049  H1069   1.084   .     S
C1049  C1065   1.395   .     A
C1049  C1064   1.396   .     A
C1050  C1052   1.475   .     S
C1050  C1066   1.396   .     A
C1051  H1081   1.085   .     S
C1051  C1057   1.392   .     A
C1051  C663    1.381   1_565 S
C1052  O1087   1.289   .     A
C1052  O1086   1.311   .     A
C1053  C1094   1.508   .     S
C1053  C1054   1.408   .     A
C1054  C1055   1.396   .     A
C1054  C1062   1.411   .     S
C1055  H1070   1.084   .     S
C1056  H1071   1.084   .     S
C1056  C1057   1.389   .     A
C1056  C665    1.371   1_565 S
C1058  N1083   1.368   .     A
C1058  H1072   1.078   .     S
C1058  C1124   1.420   .     S
C1059  N1082   1.367   .     A
C1059  H1073   1.082   .     S
C1060  N1082   1.383   .     A
C1060  C1098   1.499   .     S
C1061  H1074   1.080   .     S
C1061  N1083   1.357   .     A
C1061  C1125   1.418   .     S
C1062  O1088   1.284   .     A
C1062  O1089   1.286   .     A
C1063  C1065   1.442   .     S
C1063  O1090   1.292   .     A
C1063  O1091   1.295   .     A
C1066  H1077   1.079   .     S
C1066  C1067   1.390   .     A
C1067  C483    1.394   1_556 S
C1067  H494    1.083   1_556 S
C1068  H1078   1.077   .     S
N1082  Zn1092  2.022   .     S
N1083  Zn1093  2.022   .     S
O1084  Zn1092  1.991   .     S
O1085  Zn1093  1.977   .     S
O1086  Zn1092  1.989   .     S
O1087  Zn1093  1.962   .     S
O1088  Zn1092  1.977   .     S
O1089  Zn1093  1.991   .     S
O1090  Zn1092  1.962   .     S
O1091  Zn1093  1.989   .     S
C1094  H1096   1.105   .     S
C1094  H1095   1.111   .     S
C1094  H1097   1.111   .     S
C1098  H1100   1.108   .     S
C1098  H1099   1.103   .     S
H1101  C1163   1.111   .     S
C1102  H1103   1.110   .     S
C1102  H1104   1.099   .     S
C1102  H1105   1.111   .     S
C1102  C479    1.506   1_556 S
C1106  O1149   1.285   .     A
C1106  O1150   1.283   .     A
C1106  C1122   1.404   .     S
C1107  C1108   1.406   .     A
C1107  C524    1.421   1_556 S
C1107  C548    1.419   1_556 S
C1108  C1115   1.420   .     A
C1108  C1112   1.410   .     A
C1109  C1113   1.383   .     A
C1110  C1111   1.392   .     A
C1110  C524    1.423   1_556 S
C1110  C544    1.415   1_556 S
C1111  C1112   1.380   .     A
C1111  H1140   1.081   .     S
C1112  H1145   1.074   .     S
C1113  C1130   1.390   .     A
C1113  H1141   1.077   .     S
C1114  H1134   1.084   .     S
C1114  C1130   1.395   .     A
C1114  C1129   1.396   .     A
C1115  C1117   1.475   .     S
C1115  C1131   1.396   .     A
C1116  H1146   1.085   .     S
C1116  C1122   1.392   .     A
C1116  C728    1.381   1_565 S
C1117  O1152   1.289   .     A
C1117  O1151   1.311   .     A
C1118  C1159   1.508   .     S
C1118  C1119   1.408   .     A
C1119  C1120   1.396   .     A
C1119  C1127   1.411   .     S
C1120  H1135   1.084   .     S
C1121  H1136   1.084   .     S
C1121  C1122   1.389   .     A
C1121  C730    1.371   1_565 S
C1123  N1148   1.368   .     A
C1123  H1137   1.078   .     S
C1123  C994    1.420   1_655 S
C1124  N1147   1.367   .     A
C1124  H1138   1.082   .     S
C1125  N1147   1.383   .     A
C1125  C1163   1.499   .     S
C1126  H1139   1.080   .     S
C1126  N1148   1.357   .     A
C1126  C995    1.418   1_655 S
C1127  O1153   1.284   .     A
C1127  O1154   1.286   .     A
C1128  C1130   1.442   .     S
C1128  O1155   1.292   .     A
C1128  O1156   1.295   .     A
C1131  H1142   1.079   .     S
C1131  C1132   1.390   .     A
C1132  C548    1.394   1_556 S
C1132  H559    1.083   1_556 S
C1133  H1143   1.077   .     S
N1147  Zn1157  2.022   .     S
N1148  Zn1158  2.022   .     S
O1149  Zn1157  1.991   .     S
O1150  Zn1158  1.977   .     S
O1151  Zn1157  1.989   .     S
O1152  Zn1158  1.962   .     S
O1153  Zn1157  1.977   .     S
O1154  Zn1158  1.991   .     S
O1155  Zn1157  1.962   .     S
O1156  Zn1158  1.989   .     S
C1159  H1161   1.105   .     S
C1159  H1160   1.111   .     S
C1159  H1162   1.111   .     S
C1163  H1165   1.108   .     S
C1163  H1164   1.103   .     S
H1166  C1033   1.111   1_655 S
C1167  H1168   1.110   .     S
C1167  H1169   1.099   .     S
C1167  H1170   1.111   .     S
C1167  C544    1.506   1_556 S
