data_str_m3_o10_o17_pcu_sym.12
_audit_creation_date              2020-01-03
_audit_creation_method            'Materials Studio'
_symmetry_space_group_name_H-M    'P1'
_symmetry_Int_Tables_number       1
_symmetry_cell_setting            triclinic
loop_
_symmetry_equiv_pos_as_xyz
  x,y,z
_cell_length_a                    23.3252
_cell_length_b                    25.6797
_cell_length_c                    29.7225
_cell_angle_alpha                 91.0006
_cell_angle_beta                  86.0097
_cell_angle_gamma                 93.6284
loop_
_atom_site_label
_atom_site_type_symbol
_atom_site_fract_x
_atom_site_fract_y
_atom_site_fract_z
_atom_site_U_iso_or_equiv
_atom_site_adp_type
_atom_site_occupancy
C1     C     0.18191   0.26489   0.24883   0.00000  Uiso   1.00
C2     C     0.18843   0.21097   0.40603   0.00000  Uiso   1.00
C3     C     0.16426   0.16739   0.11616   0.00000  Uiso   1.00
C4     C     0.16908   0.16595   0.38384   0.00000  Uiso   1.00
C5     C     0.18408   0.21246   0.09332   0.00000  Uiso   1.00
C6     C     0.14926   0.12088   0.40668   0.00000  Uiso   1.00
C7     C     0.18512   0.21309   0.04651   0.00000  Uiso   1.00
C8     C     0.14823   0.12024   0.45349   0.00000  Uiso   1.00
C9     C     0.16611   0.16704   0.02344   0.00000  Uiso   1.00
C10    C     0.16724   0.16629   0.47656   0.00000  Uiso   1.00
C11    C     0.14602   0.12166   0.04737   0.00000  Uiso   1.00
C12    C     0.15142   0.06844   0.25117   0.00000  Uiso   1.00
C13    C     0.18732   0.21168   0.45263   0.00000  Uiso   1.00
C14    C     0.20475   0.25837   0.02242   0.00000  Uiso   1.00
C15    C     0.12862   0.07496   0.47759   0.00000  Uiso   1.00
C16    C     0.20558   0.25716   0.47538   0.00000  Uiso   1.00
C17    C     0.12777   0.07617   0.02462   0.00000  Uiso   1.00
C18    C     0.18994   0.31940   0.24814   0.00000  Uiso   1.00
C19    C     0.14339   0.01394   0.25186   0.00000  Uiso   1.00
C20    C     0.16745   0.16657   0.33636   0.00000  Uiso   1.00
C21    C     0.16588   0.16676   0.16364   0.00000  Uiso   1.00
C22    C     0.14491   0.12236   0.09397   0.00000  Uiso   1.00
H23    H     0.13005   0.08784   0.11306   0.00000  Uiso   1.00
H24    H     0.32880   0.20581   0.28397   0.00000  Uiso   1.00
H25    H     0.26340   0.29895   0.05804   0.00000  Uiso   1.00
H26    H     0.23062   0.00303   0.02330   0.00000  Uiso   1.00
H27    H     0.06990   0.03431   0.44208   0.00000  Uiso   1.00
H28    H     0.10293   0.33026   0.47666   0.00000  Uiso   1.00
H29    H     0.20328   0.24549   0.38694   0.00000  Uiso   1.00
H30    H     0.19860   0.24658   0.11241   0.00000  Uiso   1.00
H31    H     0.13474   0.08676   0.38760   0.00000  Uiso   1.00
H32    H     0.22063   0.29170   0.45649   0.00000  Uiso   1.00
H33    H     0.11271   0.04163   0.04351   0.00000  Uiso   1.00
H34    H     0.23391   0.00307   0.24458   0.00000  Uiso   1.00
H35    H     0.09943   0.33027   0.25542   0.00000  Uiso   1.00
H36    H     0.00453   0.12752   0.21603   0.00000  Uiso   1.00
N37    N     0.31678   0.15265   0.23783   0.00000  Uiso   1.00
N38    N     0.01656   0.18068   0.26217   0.00000  Uiso   1.00
N39    N     0.22355   0.30528   0.04571   0.00000  Uiso   1.00
N40    N     0.10983   0.02804   0.45429   0.00000  Uiso   1.00
O41    O     0.12975   0.24619   0.25299   0.00000  Uiso   1.00
O42    O     0.20358   0.08714   0.24701   0.00000  Uiso   1.00
O43    O     0.22613   0.23721   0.24518   0.00000  Uiso   1.00
O44    O     0.10720   0.09613   0.25482   0.00000  Uiso   1.00
O45    O     0.11847   0.17117   0.31998   0.00000  Uiso   1.00
O46    O     0.21486   0.16216   0.18002   0.00000  Uiso   1.00
O47    O     0.21485   0.16219   0.31218   0.00000  Uiso   1.00
O48    O     0.11848   0.17115   0.18783   0.00000  Uiso   1.00
Zn49   Zn    0.10231   0.17266   0.25521   0.00000  Uiso   1.00
Zn50   Zn    0.23102   0.16067   0.24479   0.00000  Uiso   1.00
C51    C     0.51524   0.26489   0.24883   0.00000  Uiso   1.00
C52    C     0.52176   0.21097   0.40603   0.00000  Uiso   1.00
C53    C     0.49759   0.16739   0.11616   0.00000  Uiso   1.00
C54    C     0.50241   0.16595   0.38384   0.00000  Uiso   1.00
C55    C     0.51741   0.21246   0.09332   0.00000  Uiso   1.00
C56    C     0.48260   0.12088   0.40668   0.00000  Uiso   1.00
C57    C     0.51846   0.21309   0.04651   0.00000  Uiso   1.00
C58    C     0.48156   0.12024   0.45349   0.00000  Uiso   1.00
C59    C     0.49944   0.16704   0.02344   0.00000  Uiso   1.00
C60    C     0.50057   0.16629   0.47656   0.00000  Uiso   1.00
C61    C     0.47936   0.12166   0.04737   0.00000  Uiso   1.00
C62    C     0.48476   0.06844   0.25117   0.00000  Uiso   1.00
C63    C     0.52066   0.21168   0.45263   0.00000  Uiso   1.00
C64    C     0.53808   0.25837   0.02242   0.00000  Uiso   1.00
C65    C     0.46195   0.07496   0.47759   0.00000  Uiso   1.00
C66    C     0.53892   0.25716   0.47538   0.00000  Uiso   1.00
C67    C     0.46110   0.07617   0.02462   0.00000  Uiso   1.00
C68    C     0.52327   0.31940   0.24814   0.00000  Uiso   1.00
C69    C     0.47673   0.01394   0.25186   0.00000  Uiso   1.00
C70    C     0.50079   0.16657   0.33636   0.00000  Uiso   1.00
C71    C     0.49921   0.16676   0.16364   0.00000  Uiso   1.00
C72    C     0.47824   0.12236   0.09397   0.00000  Uiso   1.00
H73    H     0.46338   0.08784   0.11306   0.00000  Uiso   1.00
H74    H     0.66213   0.20581   0.28397   0.00000  Uiso   1.00
H75    H     0.59674   0.29895   0.05804   0.00000  Uiso   1.00
H76    H     0.56395   0.00303   0.02330   0.00000  Uiso   1.00
H77    H     0.40323   0.03431   0.44208   0.00000  Uiso   1.00
H78    H     0.43627   0.33026   0.47666   0.00000  Uiso   1.00
H79    H     0.53662   0.24549   0.38694   0.00000  Uiso   1.00
H80    H     0.53194   0.24658   0.11241   0.00000  Uiso   1.00
H81    H     0.46807   0.08676   0.38760   0.00000  Uiso   1.00
H82    H     0.55396   0.29170   0.45649   0.00000  Uiso   1.00
H83    H     0.44605   0.04163   0.04351   0.00000  Uiso   1.00
H84    H     0.56724   0.00307   0.24458   0.00000  Uiso   1.00
H85    H     0.43276   0.33027   0.25542   0.00000  Uiso   1.00
H86    H     0.33787   0.12752   0.21603   0.00000  Uiso   1.00
N87    N     0.65011   0.15265   0.23783   0.00000  Uiso   1.00
N88    N     0.34989   0.18068   0.26217   0.00000  Uiso   1.00
N89    N     0.55688   0.30528   0.04571   0.00000  Uiso   1.00
N90    N     0.44316   0.02804   0.45429   0.00000  Uiso   1.00
O91    O     0.46308   0.24619   0.25299   0.00000  Uiso   1.00
O92    O     0.53692   0.08714   0.24701   0.00000  Uiso   1.00
O93    O     0.55946   0.23721   0.24518   0.00000  Uiso   1.00
O94    O     0.44054   0.09613   0.25482   0.00000  Uiso   1.00
O95    O     0.45181   0.17117   0.31998   0.00000  Uiso   1.00
O96    O     0.54819   0.16216   0.18002   0.00000  Uiso   1.00
O97    O     0.54819   0.16219   0.31218   0.00000  Uiso   1.00
O98    O     0.45181   0.17115   0.18783   0.00000  Uiso   1.00
Zn99   Zn    0.43565   0.17266   0.25521   0.00000  Uiso   1.00
Zn100  Zn    0.56435   0.16067   0.24479   0.00000  Uiso   1.00
C101   C     0.84858   0.26489   0.24883   0.00000  Uiso   1.00
C102   C     0.85510   0.21097   0.40603   0.00000  Uiso   1.00
C103   C     0.83093   0.16739   0.11616   0.00000  Uiso   1.00
C104   C     0.83574   0.16595   0.38384   0.00000  Uiso   1.00
C105   C     0.85075   0.21246   0.09332   0.00000  Uiso   1.00
C106   C     0.81593   0.12088   0.40668   0.00000  Uiso   1.00
C107   C     0.85179   0.21309   0.04651   0.00000  Uiso   1.00
C108   C     0.81490   0.12024   0.45349   0.00000  Uiso   1.00
C109   C     0.83278   0.16704   0.02344   0.00000  Uiso   1.00
C110   C     0.83391   0.16629   0.47656   0.00000  Uiso   1.00
C111   C     0.81269   0.12166   0.04737   0.00000  Uiso   1.00
C112   C     0.81809   0.06844   0.25117   0.00000  Uiso   1.00
C113   C     0.85399   0.21168   0.45263   0.00000  Uiso   1.00
C114   C     0.87142   0.25837   0.02242   0.00000  Uiso   1.00
C115   C     0.79528   0.07496   0.47759   0.00000  Uiso   1.00
C116   C     0.87225   0.25716   0.47538   0.00000  Uiso   1.00
C117   C     0.79443   0.07617   0.02462   0.00000  Uiso   1.00
C118   C     0.85661   0.31940   0.24814   0.00000  Uiso   1.00
C119   C     0.81006   0.01394   0.25186   0.00000  Uiso   1.00
C120   C     0.83412   0.16657   0.33636   0.00000  Uiso   1.00
C121   C     0.83255   0.16676   0.16364   0.00000  Uiso   1.00
C122   C     0.81157   0.12236   0.09397   0.00000  Uiso   1.00
H123   H     0.79672   0.08784   0.11306   0.00000  Uiso   1.00
H124   H     0.99547   0.20581   0.28397   0.00000  Uiso   1.00
H125   H     0.93007   0.29895   0.05804   0.00000  Uiso   1.00
H126   H     0.89729   0.00303   0.02330   0.00000  Uiso   1.00
H127   H     0.73657   0.03431   0.44208   0.00000  Uiso   1.00
H128   H     0.76960   0.33026   0.47666   0.00000  Uiso   1.00
H129   H     0.86995   0.24549   0.38694   0.00000  Uiso   1.00
H130   H     0.86527   0.24658   0.11241   0.00000  Uiso   1.00
H131   H     0.80140   0.08676   0.38760   0.00000  Uiso   1.00
H132   H     0.88730   0.29170   0.45649   0.00000  Uiso   1.00
H133   H     0.77938   0.04163   0.04351   0.00000  Uiso   1.00
H134   H     0.90057   0.00307   0.24458   0.00000  Uiso   1.00
H135   H     0.76609   0.33027   0.25542   0.00000  Uiso   1.00
H136   H     0.67120   0.12752   0.21603   0.00000  Uiso   1.00
N137   N     0.98344   0.15265   0.23783   0.00000  Uiso   1.00
N138   N     0.68322   0.18068   0.26217   0.00000  Uiso   1.00
N139   N     0.89022   0.30528   0.04571   0.00000  Uiso   1.00
N140   N     0.77649   0.02804   0.45429   0.00000  Uiso   1.00
O141   O     0.79642   0.24619   0.25299   0.00000  Uiso   1.00
O142   O     0.87025   0.08714   0.24701   0.00000  Uiso   1.00
O143   O     0.89280   0.23721   0.24518   0.00000  Uiso   1.00
O144   O     0.77387   0.09613   0.25482   0.00000  Uiso   1.00
O145   O     0.78514   0.17117   0.31998   0.00000  Uiso   1.00
O146   O     0.88153   0.16216   0.18002   0.00000  Uiso   1.00
O147   O     0.88152   0.16219   0.31218   0.00000  Uiso   1.00
O148   O     0.78515   0.17115   0.18783   0.00000  Uiso   1.00
Zn149  Zn    0.76898   0.17266   0.25521   0.00000  Uiso   1.00
Zn150  Zn    0.89769   0.16067   0.24479   0.00000  Uiso   1.00
C151   C     0.18191   0.59822   0.24883   0.00000  Uiso   1.00
C152   C     0.18843   0.54431   0.40603   0.00000  Uiso   1.00
C153   C     0.16426   0.50072   0.11616   0.00000  Uiso   1.00
C154   C     0.16908   0.49928   0.38384   0.00000  Uiso   1.00
C155   C     0.18408   0.54579   0.09332   0.00000  Uiso   1.00
C156   C     0.14926   0.45421   0.40668   0.00000  Uiso   1.00
C157   C     0.18512   0.54642   0.04651   0.00000  Uiso   1.00
C158   C     0.14823   0.45358   0.45349   0.00000  Uiso   1.00
C159   C     0.16611   0.50038   0.02344   0.00000  Uiso   1.00
C160   C     0.16724   0.49962   0.47656   0.00000  Uiso   1.00
C161   C     0.14602   0.45499   0.04737   0.00000  Uiso   1.00
C162   C     0.15142   0.40178   0.25117   0.00000  Uiso   1.00
C163   C     0.18732   0.54501   0.45263   0.00000  Uiso   1.00
C164   C     0.20475   0.59170   0.02242   0.00000  Uiso   1.00
C165   C     0.12862   0.40829   0.47759   0.00000  Uiso   1.00
C166   C     0.20558   0.59049   0.47538   0.00000  Uiso   1.00
C167   C     0.12777   0.40951   0.02462   0.00000  Uiso   1.00
C168   C     0.18994   0.65273   0.24814   0.00000  Uiso   1.00
C169   C     0.14339   0.34727   0.25186   0.00000  Uiso   1.00
C170   C     0.16745   0.49991   0.33636   0.00000  Uiso   1.00
C171   C     0.16588   0.50009   0.16364   0.00000  Uiso   1.00
C172   C     0.14491   0.45569   0.09397   0.00000  Uiso   1.00
H173   H     0.13005   0.42118   0.11306   0.00000  Uiso   1.00
H174   H     0.32880   0.53914   0.28397   0.00000  Uiso   1.00
H175   H     0.26340   0.63228   0.05804   0.00000  Uiso   1.00
H176   H     0.23062   0.33636   0.02330   0.00000  Uiso   1.00
H177   H     0.06990   0.36764   0.44208   0.00000  Uiso   1.00
H178   H     0.10293   0.66360   0.47666   0.00000  Uiso   1.00
H179   H     0.20328   0.57882   0.38694   0.00000  Uiso   1.00
H180   H     0.19860   0.57991   0.11241   0.00000  Uiso   1.00
H181   H     0.13474   0.42009   0.38760   0.00000  Uiso   1.00
H182   H     0.22063   0.62504   0.45649   0.00000  Uiso   1.00
H183   H     0.11271   0.37496   0.04351   0.00000  Uiso   1.00
H184   H     0.23391   0.33640   0.24458   0.00000  Uiso   1.00
H185   H     0.09943   0.66360   0.25542   0.00000  Uiso   1.00
H186   H     0.00453   0.46086   0.21603   0.00000  Uiso   1.00
N187   N     0.31678   0.48598   0.23783   0.00000  Uiso   1.00
N188   N     0.01656   0.51402   0.26217   0.00000  Uiso   1.00
N189   N     0.22355   0.63862   0.04571   0.00000  Uiso   1.00
N190   N     0.10983   0.36137   0.45429   0.00000  Uiso   1.00
O191   O     0.12975   0.57952   0.25299   0.00000  Uiso   1.00
O192   O     0.20358   0.42048   0.24701   0.00000  Uiso   1.00
O193   O     0.22613   0.57054   0.24518   0.00000  Uiso   1.00
O194   O     0.10720   0.42946   0.25482   0.00000  Uiso   1.00
O195   O     0.11847   0.50450   0.31998   0.00000  Uiso   1.00
O196   O     0.21486   0.49550   0.18002   0.00000  Uiso   1.00
O197   O     0.21485   0.49552   0.31218   0.00000  Uiso   1.00
O198   O     0.11848   0.50448   0.18783   0.00000  Uiso   1.00
Zn199  Zn    0.10231   0.50600   0.25521   0.00000  Uiso   1.00
Zn200  Zn    0.23102   0.49400   0.24479   0.00000  Uiso   1.00
C201   C     0.51524   0.59822   0.24883   0.00000  Uiso   1.00
C202   C     0.52176   0.54431   0.40603   0.00000  Uiso   1.00
C203   C     0.49759   0.50072   0.11616   0.00000  Uiso   1.00
C204   C     0.50241   0.49928   0.38384   0.00000  Uiso   1.00
C205   C     0.51741   0.54579   0.09332   0.00000  Uiso   1.00
C206   C     0.48260   0.45421   0.40668   0.00000  Uiso   1.00
C207   C     0.51846   0.54642   0.04651   0.00000  Uiso   1.00
C208   C     0.48156   0.45358   0.45349   0.00000  Uiso   1.00
C209   C     0.49944   0.50038   0.02344   0.00000  Uiso   1.00
C210   C     0.50057   0.49962   0.47656   0.00000  Uiso   1.00
C211   C     0.47936   0.45499   0.04737   0.00000  Uiso   1.00
C212   C     0.48476   0.40178   0.25117   0.00000  Uiso   1.00
C213   C     0.52066   0.54501   0.45263   0.00000  Uiso   1.00
C214   C     0.53808   0.59170   0.02242   0.00000  Uiso   1.00
C215   C     0.46195   0.40829   0.47759   0.00000  Uiso   1.00
C216   C     0.53892   0.59049   0.47538   0.00000  Uiso   1.00
C217   C     0.46110   0.40951   0.02462   0.00000  Uiso   1.00
C218   C     0.52327   0.65273   0.24814   0.00000  Uiso   1.00
C219   C     0.47673   0.34727   0.25186   0.00000  Uiso   1.00
C220   C     0.50079   0.49991   0.33636   0.00000  Uiso   1.00
C221   C     0.49921   0.50009   0.16364   0.00000  Uiso   1.00
C222   C     0.47824   0.45569   0.09397   0.00000  Uiso   1.00
H223   H     0.46338   0.42118   0.11306   0.00000  Uiso   1.00
H224   H     0.66213   0.53914   0.28397   0.00000  Uiso   1.00
H225   H     0.59674   0.63228   0.05804   0.00000  Uiso   1.00
H226   H     0.56395   0.33636   0.02330   0.00000  Uiso   1.00
H227   H     0.40323   0.36764   0.44208   0.00000  Uiso   1.00
H228   H     0.43627   0.66360   0.47666   0.00000  Uiso   1.00
H229   H     0.53662   0.57882   0.38694   0.00000  Uiso   1.00
H230   H     0.53194   0.57991   0.11241   0.00000  Uiso   1.00
H231   H     0.46807   0.42009   0.38760   0.00000  Uiso   1.00
H232   H     0.55396   0.62504   0.45649   0.00000  Uiso   1.00
H233   H     0.44605   0.37496   0.04351   0.00000  Uiso   1.00
H234   H     0.56724   0.33640   0.24458   0.00000  Uiso   1.00
H235   H     0.43276   0.66360   0.25542   0.00000  Uiso   1.00
H236   H     0.33787   0.46086   0.21603   0.00000  Uiso   1.00
N237   N     0.65011   0.48598   0.23783   0.00000  Uiso   1.00
N238   N     0.34989   0.51402   0.26217   0.00000  Uiso   1.00
N239   N     0.55688   0.63862   0.04571   0.00000  Uiso   1.00
N240   N     0.44316   0.36137   0.45429   0.00000  Uiso   1.00
O241   O     0.46308   0.57952   0.25299   0.00000  Uiso   1.00
O242   O     0.53692   0.42048   0.24701   0.00000  Uiso   1.00
O243   O     0.55946   0.57054   0.24518   0.00000  Uiso   1.00
O244   O     0.44054   0.42946   0.25482   0.00000  Uiso   1.00
O245   O     0.45181   0.50450   0.31998   0.00000  Uiso   1.00
O246   O     0.54819   0.49550   0.18002   0.00000  Uiso   1.00
O247   O     0.54819   0.49552   0.31218   0.00000  Uiso   1.00
O248   O     0.45181   0.50448   0.18783   0.00000  Uiso   1.00
Zn249  Zn    0.43565   0.50600   0.25521   0.00000  Uiso   1.00
Zn250  Zn    0.56435   0.49400   0.24479   0.00000  Uiso   1.00
C251   C     0.84858   0.59822   0.24883   0.00000  Uiso   1.00
C252   C     0.85510   0.54431   0.40603   0.00000  Uiso   1.00
C253   C     0.83093   0.50072   0.11616   0.00000  Uiso   1.00
C254   C     0.83574   0.49928   0.38384   0.00000  Uiso   1.00
C255   C     0.85075   0.54579   0.09332   0.00000  Uiso   1.00
C256   C     0.81593   0.45421   0.40668   0.00000  Uiso   1.00
C257   C     0.85179   0.54642   0.04651   0.00000  Uiso   1.00
C258   C     0.81490   0.45358   0.45349   0.00000  Uiso   1.00
C259   C     0.83278   0.50038   0.02344   0.00000  Uiso   1.00
C260   C     0.83391   0.49962   0.47656   0.00000  Uiso   1.00
C261   C     0.81269   0.45499   0.04737   0.00000  Uiso   1.00
C262   C     0.81809   0.40178   0.25117   0.00000  Uiso   1.00
C263   C     0.85399   0.54501   0.45263   0.00000  Uiso   1.00
C264   C     0.87142   0.59170   0.02242   0.00000  Uiso   1.00
C265   C     0.79528   0.40829   0.47759   0.00000  Uiso   1.00
C266   C     0.87225   0.59049   0.47538   0.00000  Uiso   1.00
C267   C     0.79443   0.40951   0.02462   0.00000  Uiso   1.00
C268   C     0.85661   0.65273   0.24814   0.00000  Uiso   1.00
C269   C     0.81006   0.34727   0.25186   0.00000  Uiso   1.00
C270   C     0.83412   0.49991   0.33636   0.00000  Uiso   1.00
C271   C     0.83255   0.50009   0.16364   0.00000  Uiso   1.00
C272   C     0.81157   0.45569   0.09397   0.00000  Uiso   1.00
H273   H     0.79672   0.42118   0.11306   0.00000  Uiso   1.00
H274   H     0.99547   0.53914   0.28397   0.00000  Uiso   1.00
H275   H     0.93007   0.63228   0.05804   0.00000  Uiso   1.00
H276   H     0.89729   0.33636   0.02330   0.00000  Uiso   1.00
H277   H     0.73657   0.36764   0.44208   0.00000  Uiso   1.00
H278   H     0.76960   0.66360   0.47666   0.00000  Uiso   1.00
H279   H     0.86995   0.57882   0.38694   0.00000  Uiso   1.00
H280   H     0.86527   0.57991   0.11241   0.00000  Uiso   1.00
H281   H     0.80140   0.42009   0.38760   0.00000  Uiso   1.00
H282   H     0.88730   0.62504   0.45649   0.00000  Uiso   1.00
H283   H     0.77938   0.37496   0.04351   0.00000  Uiso   1.00
H284   H     0.90057   0.33640   0.24458   0.00000  Uiso   1.00
H285   H     0.76609   0.66360   0.25542   0.00000  Uiso   1.00
H286   H     0.67120   0.46086   0.21603   0.00000  Uiso   1.00
N287   N     0.98344   0.48598   0.23783   0.00000  Uiso   1.00
N288   N     0.68322   0.51402   0.26217   0.00000  Uiso   1.00
N289   N     0.89022   0.63862   0.04571   0.00000  Uiso   1.00
N290   N     0.77649   0.36137   0.45429   0.00000  Uiso   1.00
O291   O     0.79642   0.57952   0.25299   0.00000  Uiso   1.00
O292   O     0.87025   0.42048   0.24701   0.00000  Uiso   1.00
O293   O     0.89280   0.57054   0.24518   0.00000  Uiso   1.00
O294   O     0.77387   0.42946   0.25482   0.00000  Uiso   1.00
O295   O     0.78514   0.50450   0.31998   0.00000  Uiso   1.00
O296   O     0.88153   0.49550   0.18002   0.00000  Uiso   1.00
O297   O     0.88152   0.49552   0.31218   0.00000  Uiso   1.00
O298   O     0.78515   0.50448   0.18783   0.00000  Uiso   1.00
Zn299  Zn    0.76898   0.50600   0.25521   0.00000  Uiso   1.00
Zn300  Zn    0.89769   0.49400   0.24479   0.00000  Uiso   1.00
C301   C     0.18191   0.93156   0.24883   0.00000  Uiso   1.00
C302   C     0.18843   0.87764   0.40603   0.00000  Uiso   1.00
C303   C     0.16426   0.83405   0.11616   0.00000  Uiso   1.00
C304   C     0.16908   0.83262   0.38384   0.00000  Uiso   1.00
C305   C     0.18408   0.87912   0.09332   0.00000  Uiso   1.00
C306   C     0.14926   0.78754   0.40668   0.00000  Uiso   1.00
C307   C     0.18512   0.87975   0.04651   0.00000  Uiso   1.00
C308   C     0.14823   0.78691   0.45349   0.00000  Uiso   1.00
C309   C     0.16611   0.83371   0.02344   0.00000  Uiso   1.00
C310   C     0.16724   0.83295   0.47656   0.00000  Uiso   1.00
C311   C     0.14602   0.78832   0.04737   0.00000  Uiso   1.00
C312   C     0.15142   0.73511   0.25117   0.00000  Uiso   1.00
C313   C     0.18732   0.87834   0.45263   0.00000  Uiso   1.00
C314   C     0.20475   0.92504   0.02242   0.00000  Uiso   1.00
C315   C     0.12862   0.74162   0.47759   0.00000  Uiso   1.00
C316   C     0.20558   0.92382   0.47538   0.00000  Uiso   1.00
C317   C     0.12777   0.74284   0.02462   0.00000  Uiso   1.00
C318   C     0.18994   0.98606   0.24814   0.00000  Uiso   1.00
C319   C     0.14339   0.68060   0.25186   0.00000  Uiso   1.00
C320   C     0.16745   0.83324   0.33636   0.00000  Uiso   1.00
C321   C     0.16588   0.83343   0.16364   0.00000  Uiso   1.00
C322   C     0.14491   0.78903   0.09397   0.00000  Uiso   1.00
H323   H     0.13005   0.75451   0.11306   0.00000  Uiso   1.00
H324   H     0.32880   0.87248   0.28397   0.00000  Uiso   1.00
H325   H     0.26340   0.96562   0.05804   0.00000  Uiso   1.00
H326   H     0.23062   0.66969   0.02330   0.00000  Uiso   1.00
H327   H     0.06990   0.70097   0.44208   0.00000  Uiso   1.00
H328   H     0.10293   0.99693   0.47666   0.00000  Uiso   1.00
H329   H     0.20328   0.91216   0.38694   0.00000  Uiso   1.00
H330   H     0.19860   0.91324   0.11241   0.00000  Uiso   1.00
H331   H     0.13474   0.75342   0.38760   0.00000  Uiso   1.00
H332   H     0.22063   0.95837   0.45649   0.00000  Uiso   1.00
H333   H     0.11271   0.70829   0.04351   0.00000  Uiso   1.00
H334   H     0.23391   0.66973   0.24458   0.00000  Uiso   1.00
H335   H     0.09943   0.99693   0.25542   0.00000  Uiso   1.00
H336   H     0.00453   0.79419   0.21603   0.00000  Uiso   1.00
N337   N     0.31678   0.81932   0.23783   0.00000  Uiso   1.00
N338   N     0.01656   0.84735   0.26217   0.00000  Uiso   1.00
N339   N     0.22355   0.97195   0.04571   0.00000  Uiso   1.00
N340   N     0.10983   0.69471   0.45429   0.00000  Uiso   1.00
O341   O     0.12975   0.91286   0.25299   0.00000  Uiso   1.00
O342   O     0.20358   0.75381   0.24701   0.00000  Uiso   1.00
O343   O     0.22613   0.90387   0.24518   0.00000  Uiso   1.00
O344   O     0.10720   0.76279   0.25482   0.00000  Uiso   1.00
O345   O     0.11847   0.83784   0.31998   0.00000  Uiso   1.00
O346   O     0.21486   0.82883   0.18002   0.00000  Uiso   1.00
O347   O     0.21485   0.82885   0.31218   0.00000  Uiso   1.00
O348   O     0.11848   0.83781   0.18783   0.00000  Uiso   1.00
Zn349  Zn    0.10231   0.83933   0.25521   0.00000  Uiso   1.00
Zn350  Zn    0.23102   0.82734   0.24479   0.00000  Uiso   1.00
C351   C     0.51524   0.93156   0.24883   0.00000  Uiso   1.00
C352   C     0.52176   0.87764   0.40603   0.00000  Uiso   1.00
C353   C     0.49759   0.83405   0.11616   0.00000  Uiso   1.00
C354   C     0.50241   0.83262   0.38384   0.00000  Uiso   1.00
C355   C     0.51741   0.87912   0.09332   0.00000  Uiso   1.00
C356   C     0.48260   0.78754   0.40668   0.00000  Uiso   1.00
C357   C     0.51846   0.87975   0.04651   0.00000  Uiso   1.00
C358   C     0.48156   0.78691   0.45349   0.00000  Uiso   1.00
C359   C     0.49944   0.83371   0.02344   0.00000  Uiso   1.00
C360   C     0.50057   0.83295   0.47656   0.00000  Uiso   1.00
C361   C     0.47936   0.78832   0.04737   0.00000  Uiso   1.00
C362   C     0.48476   0.73511   0.25117   0.00000  Uiso   1.00
C363   C     0.52066   0.87834   0.45263   0.00000  Uiso   1.00
C364   C     0.53808   0.92504   0.02242   0.00000  Uiso   1.00
C365   C     0.46195   0.74162   0.47759   0.00000  Uiso   1.00
C366   C     0.53892   0.92382   0.47538   0.00000  Uiso   1.00
C367   C     0.46110   0.74284   0.02462   0.00000  Uiso   1.00
C368   C     0.52327   0.98606   0.24814   0.00000  Uiso   1.00
C369   C     0.47673   0.68060   0.25186   0.00000  Uiso   1.00
C370   C     0.50079   0.83324   0.33636   0.00000  Uiso   1.00
C371   C     0.49921   0.83343   0.16364   0.00000  Uiso   1.00
C372   C     0.47824   0.78903   0.09397   0.00000  Uiso   1.00
H373   H     0.46338   0.75451   0.11306   0.00000  Uiso   1.00
H374   H     0.66213   0.87248   0.28397   0.00000  Uiso   1.00
H375   H     0.59674   0.96562   0.05804   0.00000  Uiso   1.00
H376   H     0.56395   0.66969   0.02330   0.00000  Uiso   1.00
H377   H     0.40323   0.70097   0.44208   0.00000  Uiso   1.00
H378   H     0.43627   0.99693   0.47666   0.00000  Uiso   1.00
H379   H     0.53662   0.91216   0.38694   0.00000  Uiso   1.00
H380   H     0.53194   0.91324   0.11241   0.00000  Uiso   1.00
H381   H     0.46807   0.75342   0.38760   0.00000  Uiso   1.00
H382   H     0.55396   0.95837   0.45649   0.00000  Uiso   1.00
H383   H     0.44605   0.70829   0.04351   0.00000  Uiso   1.00
H384   H     0.56724   0.66973   0.24458   0.00000  Uiso   1.00
H385   H     0.43276   0.99693   0.25542   0.00000  Uiso   1.00
H386   H     0.33787   0.79419   0.21603   0.00000  Uiso   1.00
N387   N     0.65011   0.81932   0.23783   0.00000  Uiso   1.00
N388   N     0.34989   0.84735   0.26217   0.00000  Uiso   1.00
N389   N     0.55688   0.97195   0.04571   0.00000  Uiso   1.00
N390   N     0.44316   0.69471   0.45429   0.00000  Uiso   1.00
O391   O     0.46308   0.91286   0.25299   0.00000  Uiso   1.00
O392   O     0.53692   0.75381   0.24701   0.00000  Uiso   1.00
O393   O     0.55946   0.90387   0.24518   0.00000  Uiso   1.00
O394   O     0.44054   0.76279   0.25482   0.00000  Uiso   1.00
O395   O     0.45181   0.83784   0.31998   0.00000  Uiso   1.00
O396   O     0.54819   0.82883   0.18002   0.00000  Uiso   1.00
O397   O     0.54819   0.82885   0.31218   0.00000  Uiso   1.00
O398   O     0.45181   0.83781   0.18783   0.00000  Uiso   1.00
Zn399  Zn    0.43565   0.83933   0.25521   0.00000  Uiso   1.00
Zn400  Zn    0.56435   0.82734   0.24479   0.00000  Uiso   1.00
C401   C     0.84858   0.93156   0.24883   0.00000  Uiso   1.00
C402   C     0.85510   0.87764   0.40603   0.00000  Uiso   1.00
C403   C     0.83093   0.83405   0.11616   0.00000  Uiso   1.00
C404   C     0.83574   0.83262   0.38384   0.00000  Uiso   1.00
C405   C     0.85075   0.87912   0.09332   0.00000  Uiso   1.00
C406   C     0.81593   0.78754   0.40668   0.00000  Uiso   1.00
C407   C     0.85179   0.87975   0.04651   0.00000  Uiso   1.00
C408   C     0.81490   0.78691   0.45349   0.00000  Uiso   1.00
C409   C     0.83278   0.83371   0.02344   0.00000  Uiso   1.00
C410   C     0.83391   0.83295   0.47656   0.00000  Uiso   1.00
C411   C     0.81269   0.78832   0.04737   0.00000  Uiso   1.00
C412   C     0.81809   0.73511   0.25117   0.00000  Uiso   1.00
C413   C     0.85399   0.87834   0.45263   0.00000  Uiso   1.00
C414   C     0.87142   0.92504   0.02242   0.00000  Uiso   1.00
C415   C     0.79528   0.74162   0.47759   0.00000  Uiso   1.00
C416   C     0.87225   0.92382   0.47538   0.00000  Uiso   1.00
C417   C     0.79443   0.74284   0.02462   0.00000  Uiso   1.00
C418   C     0.85661   0.98606   0.24814   0.00000  Uiso   1.00
C419   C     0.81006   0.68060   0.25186   0.00000  Uiso   1.00
C420   C     0.83412   0.83324   0.33636   0.00000  Uiso   1.00
C421   C     0.83255   0.83343   0.16364   0.00000  Uiso   1.00
C422   C     0.81157   0.78903   0.09397   0.00000  Uiso   1.00
H423   H     0.79672   0.75451   0.11306   0.00000  Uiso   1.00
H424   H     0.99547   0.87248   0.28397   0.00000  Uiso   1.00
H425   H     0.93007   0.96562   0.05804   0.00000  Uiso   1.00
H426   H     0.89729   0.66969   0.02330   0.00000  Uiso   1.00
H427   H     0.73657   0.70097   0.44208   0.00000  Uiso   1.00
H428   H     0.76960   0.99693   0.47666   0.00000  Uiso   1.00
H429   H     0.86995   0.91216   0.38694   0.00000  Uiso   1.00
H430   H     0.86527   0.91324   0.11241   0.00000  Uiso   1.00
H431   H     0.80140   0.75342   0.38760   0.00000  Uiso   1.00
H432   H     0.88730   0.95837   0.45649   0.00000  Uiso   1.00
H433   H     0.77938   0.70829   0.04351   0.00000  Uiso   1.00
H434   H     0.90057   0.66973   0.24458   0.00000  Uiso   1.00
H435   H     0.76609   0.99693   0.25542   0.00000  Uiso   1.00
H436   H     0.67120   0.79419   0.21603   0.00000  Uiso   1.00
N437   N     0.98344   0.81932   0.23783   0.00000  Uiso   1.00
N438   N     0.68322   0.84735   0.26217   0.00000  Uiso   1.00
N439   N     0.89022   0.97195   0.04571   0.00000  Uiso   1.00
N440   N     0.77649   0.69471   0.45429   0.00000  Uiso   1.00
O441   O     0.79642   0.91286   0.25299   0.00000  Uiso   1.00
O442   O     0.87025   0.75381   0.24701   0.00000  Uiso   1.00
O443   O     0.89280   0.90387   0.24518   0.00000  Uiso   1.00
O444   O     0.77387   0.76279   0.25482   0.00000  Uiso   1.00
O445   O     0.78514   0.83784   0.31998   0.00000  Uiso   1.00
O446   O     0.88153   0.82883   0.18002   0.00000  Uiso   1.00
O447   O     0.88152   0.82885   0.31218   0.00000  Uiso   1.00
O448   O     0.78515   0.83781   0.18783   0.00000  Uiso   1.00
Zn449  Zn    0.76898   0.83933   0.25521   0.00000  Uiso   1.00
Zn450  Zn    0.89769   0.82734   0.24479   0.00000  Uiso   1.00
C451   C     0.18191   0.26489   0.74883   0.00000  Uiso   1.00
C452   C     0.18843   0.21097   0.90603   0.00000  Uiso   1.00
C453   C     0.16426   0.16739   0.61616   0.00000  Uiso   1.00
C454   C     0.16908   0.16595   0.88384   0.00000  Uiso   1.00
C455   C     0.18408   0.21246   0.59332   0.00000  Uiso   1.00
C456   C     0.14926   0.12088   0.90668   0.00000  Uiso   1.00
C457   C     0.18512   0.21309   0.54651   0.00000  Uiso   1.00
C458   C     0.14823   0.12024   0.95349   0.00000  Uiso   1.00
C459   C     0.16611   0.16704   0.52344   0.00000  Uiso   1.00
C460   C     0.16724   0.16629   0.97656   0.00000  Uiso   1.00
C461   C     0.14602   0.12166   0.54737   0.00000  Uiso   1.00
C462   C     0.15142   0.06844   0.75117   0.00000  Uiso   1.00
C463   C     0.18732   0.21168   0.95263   0.00000  Uiso   1.00
C464   C     0.20475   0.25837   0.52242   0.00000  Uiso   1.00
C465   C     0.12862   0.07496   0.97759   0.00000  Uiso   1.00
C466   C     0.20558   0.25716   0.97538   0.00000  Uiso   1.00
C467   C     0.12777   0.07617   0.52462   0.00000  Uiso   1.00
C468   C     0.18994   0.31940   0.74814   0.00000  Uiso   1.00
C469   C     0.14339   0.01394   0.75186   0.00000  Uiso   1.00
C470   C     0.16745   0.16657   0.83636   0.00000  Uiso   1.00
C471   C     0.16588   0.16676   0.66364   0.00000  Uiso   1.00
C472   C     0.14491   0.12236   0.59397   0.00000  Uiso   1.00
H473   H     0.13005   0.08784   0.61306   0.00000  Uiso   1.00
H474   H     0.32880   0.20581   0.78397   0.00000  Uiso   1.00
H475   H     0.26340   0.29895   0.55804   0.00000  Uiso   1.00
H476   H     0.23062   0.00303   0.52330   0.00000  Uiso   1.00
H477   H     0.06990   0.03431   0.94208   0.00000  Uiso   1.00
H478   H     0.10293   0.33026   0.97666   0.00000  Uiso   1.00
H479   H     0.20328   0.24549   0.88694   0.00000  Uiso   1.00
H480   H     0.19860   0.24658   0.61241   0.00000  Uiso   1.00
H481   H     0.13474   0.08676   0.88760   0.00000  Uiso   1.00
H482   H     0.22063   0.29170   0.95649   0.00000  Uiso   1.00
H483   H     0.11271   0.04163   0.54351   0.00000  Uiso   1.00
H484   H     0.23391   0.00307   0.74458   0.00000  Uiso   1.00
H485   H     0.09943   0.33027   0.75542   0.00000  Uiso   1.00
H486   H     0.00453   0.12752   0.71603   0.00000  Uiso   1.00
N487   N     0.31678   0.15265   0.73783   0.00000  Uiso   1.00
N488   N     0.01656   0.18068   0.76217   0.00000  Uiso   1.00
N489   N     0.22355   0.30528   0.54571   0.00000  Uiso   1.00
N490   N     0.10983   0.02804   0.95429   0.00000  Uiso   1.00
O491   O     0.12975   0.24619   0.75299   0.00000  Uiso   1.00
O492   O     0.20358   0.08714   0.74701   0.00000  Uiso   1.00
O493   O     0.22613   0.23721   0.74518   0.00000  Uiso   1.00
O494   O     0.10720   0.09613   0.75482   0.00000  Uiso   1.00
O495   O     0.11847   0.17117   0.81998   0.00000  Uiso   1.00
O496   O     0.21486   0.16216   0.68002   0.00000  Uiso   1.00
O497   O     0.21485   0.16219   0.81218   0.00000  Uiso   1.00
O498   O     0.11848   0.17115   0.68783   0.00000  Uiso   1.00
Zn499  Zn    0.10231   0.17266   0.75521   0.00000  Uiso   1.00
Zn500  Zn    0.23102   0.16067   0.74479   0.00000  Uiso   1.00
C501   C     0.51524   0.26489   0.74883   0.00000  Uiso   1.00
C502   C     0.52176   0.21097   0.90603   0.00000  Uiso   1.00
C503   C     0.49759   0.16739   0.61616   0.00000  Uiso   1.00
C504   C     0.50241   0.16595   0.88384   0.00000  Uiso   1.00
C505   C     0.51741   0.21246   0.59332   0.00000  Uiso   1.00
C506   C     0.48260   0.12088   0.90668   0.00000  Uiso   1.00
C507   C     0.51846   0.21309   0.54651   0.00000  Uiso   1.00
C508   C     0.48156   0.12024   0.95349   0.00000  Uiso   1.00
C509   C     0.49944   0.16704   0.52344   0.00000  Uiso   1.00
C510   C     0.50057   0.16629   0.97656   0.00000  Uiso   1.00
C511   C     0.47936   0.12166   0.54737   0.00000  Uiso   1.00
C512   C     0.48476   0.06844   0.75117   0.00000  Uiso   1.00
C513   C     0.52066   0.21168   0.95263   0.00000  Uiso   1.00
C514   C     0.53808   0.25837   0.52242   0.00000  Uiso   1.00
C515   C     0.46195   0.07496   0.97759   0.00000  Uiso   1.00
C516   C     0.53892   0.25716   0.97538   0.00000  Uiso   1.00
C517   C     0.46110   0.07617   0.52462   0.00000  Uiso   1.00
C518   C     0.52327   0.31940   0.74814   0.00000  Uiso   1.00
C519   C     0.47673   0.01394   0.75186   0.00000  Uiso   1.00
C520   C     0.50079   0.16657   0.83636   0.00000  Uiso   1.00
C521   C     0.49921   0.16676   0.66364   0.00000  Uiso   1.00
C522   C     0.47824   0.12236   0.59397   0.00000  Uiso   1.00
H523   H     0.46338   0.08784   0.61306   0.00000  Uiso   1.00
H524   H     0.66213   0.20581   0.78397   0.00000  Uiso   1.00
H525   H     0.59674   0.29895   0.55804   0.00000  Uiso   1.00
H526   H     0.56395   0.00303   0.52330   0.00000  Uiso   1.00
H527   H     0.40323   0.03431   0.94208   0.00000  Uiso   1.00
H528   H     0.43627   0.33026   0.97666   0.00000  Uiso   1.00
H529   H     0.53662   0.24549   0.88694   0.00000  Uiso   1.00
H530   H     0.53194   0.24658   0.61241   0.00000  Uiso   1.00
H531   H     0.46807   0.08676   0.88760   0.00000  Uiso   1.00
H532   H     0.55396   0.29170   0.95649   0.00000  Uiso   1.00
H533   H     0.44605   0.04163   0.54351   0.00000  Uiso   1.00
H534   H     0.56724   0.00307   0.74458   0.00000  Uiso   1.00
H535   H     0.43276   0.33027   0.75542   0.00000  Uiso   1.00
H536   H     0.33787   0.12752   0.71603   0.00000  Uiso   1.00
N537   N     0.65011   0.15265   0.73783   0.00000  Uiso   1.00
N538   N     0.34989   0.18068   0.76217   0.00000  Uiso   1.00
N539   N     0.55688   0.30528   0.54571   0.00000  Uiso   1.00
N540   N     0.44316   0.02804   0.95429   0.00000  Uiso   1.00
O541   O     0.46308   0.24619   0.75299   0.00000  Uiso   1.00
O542   O     0.53692   0.08714   0.74701   0.00000  Uiso   1.00
O543   O     0.55946   0.23721   0.74518   0.00000  Uiso   1.00
O544   O     0.44054   0.09613   0.75482   0.00000  Uiso   1.00
O545   O     0.45181   0.17117   0.81998   0.00000  Uiso   1.00
O546   O     0.54819   0.16216   0.68002   0.00000  Uiso   1.00
O547   O     0.54819   0.16219   0.81218   0.00000  Uiso   1.00
O548   O     0.45181   0.17115   0.68783   0.00000  Uiso   1.00
Zn549  Zn    0.43565   0.17266   0.75521   0.00000  Uiso   1.00
Zn550  Zn    0.56435   0.16067   0.74479   0.00000  Uiso   1.00
C551   C     0.84858   0.26489   0.74883   0.00000  Uiso   1.00
C552   C     0.85510   0.21097   0.90603   0.00000  Uiso   1.00
C553   C     0.83093   0.16739   0.61616   0.00000  Uiso   1.00
C554   C     0.83574   0.16595   0.88384   0.00000  Uiso   1.00
C555   C     0.85075   0.21246   0.59332   0.00000  Uiso   1.00
C556   C     0.81593   0.12088   0.90668   0.00000  Uiso   1.00
C557   C     0.85179   0.21309   0.54651   0.00000  Uiso   1.00
C558   C     0.81490   0.12024   0.95349   0.00000  Uiso   1.00
C559   C     0.83278   0.16704   0.52344   0.00000  Uiso   1.00
C560   C     0.83391   0.16629   0.97656   0.00000  Uiso   1.00
C561   C     0.81269   0.12166   0.54737   0.00000  Uiso   1.00
C562   C     0.81809   0.06844   0.75117   0.00000  Uiso   1.00
C563   C     0.85399   0.21168   0.95263   0.00000  Uiso   1.00
C564   C     0.87142   0.25837   0.52242   0.00000  Uiso   1.00
C565   C     0.79528   0.07496   0.97759   0.00000  Uiso   1.00
C566   C     0.87225   0.25716   0.97538   0.00000  Uiso   1.00
C567   C     0.79443   0.07617   0.52462   0.00000  Uiso   1.00
C568   C     0.85661   0.31940   0.74814   0.00000  Uiso   1.00
C569   C     0.81006   0.01394   0.75186   0.00000  Uiso   1.00
C570   C     0.83412   0.16657   0.83636   0.00000  Uiso   1.00
C571   C     0.83255   0.16676   0.66364   0.00000  Uiso   1.00
C572   C     0.81157   0.12236   0.59397   0.00000  Uiso   1.00
H573   H     0.79672   0.08784   0.61306   0.00000  Uiso   1.00
H574   H     0.99547   0.20581   0.78397   0.00000  Uiso   1.00
H575   H     0.93007   0.29895   0.55804   0.00000  Uiso   1.00
H576   H     0.89729   0.00303   0.52330   0.00000  Uiso   1.00
H577   H     0.73657   0.03431   0.94208   0.00000  Uiso   1.00
H578   H     0.76960   0.33026   0.97666   0.00000  Uiso   1.00
H579   H     0.86995   0.24549   0.88694   0.00000  Uiso   1.00
H580   H     0.86527   0.24658   0.61241   0.00000  Uiso   1.00
H581   H     0.80140   0.08676   0.88760   0.00000  Uiso   1.00
H582   H     0.88730   0.29170   0.95649   0.00000  Uiso   1.00
H583   H     0.77938   0.04163   0.54351   0.00000  Uiso   1.00
H584   H     0.90057   0.00307   0.74458   0.00000  Uiso   1.00
H585   H     0.76609   0.33027   0.75542   0.00000  Uiso   1.00
H586   H     0.67120   0.12752   0.71603   0.00000  Uiso   1.00
N587   N     0.98344   0.15265   0.73783   0.00000  Uiso   1.00
N588   N     0.68322   0.18068   0.76217   0.00000  Uiso   1.00
N589   N     0.89022   0.30528   0.54571   0.00000  Uiso   1.00
N590   N     0.77649   0.02804   0.95429   0.00000  Uiso   1.00
O591   O     0.79642   0.24619   0.75299   0.00000  Uiso   1.00
O592   O     0.87025   0.08714   0.74701   0.00000  Uiso   1.00
O593   O     0.89280   0.23721   0.74518   0.00000  Uiso   1.00
O594   O     0.77387   0.09613   0.75482   0.00000  Uiso   1.00
O595   O     0.78514   0.17117   0.81998   0.00000  Uiso   1.00
O596   O     0.88153   0.16216   0.68002   0.00000  Uiso   1.00
O597   O     0.88152   0.16219   0.81218   0.00000  Uiso   1.00
O598   O     0.78515   0.17115   0.68783   0.00000  Uiso   1.00
Zn599  Zn    0.76898   0.17266   0.75521   0.00000  Uiso   1.00
Zn600  Zn    0.89769   0.16067   0.74479   0.00000  Uiso   1.00
C601   C     0.18191   0.59822   0.74883   0.00000  Uiso   1.00
C602   C     0.18843   0.54431   0.90603   0.00000  Uiso   1.00
C603   C     0.16426   0.50072   0.61616   0.00000  Uiso   1.00
C604   C     0.16908   0.49928   0.88384   0.00000  Uiso   1.00
C605   C     0.18408   0.54579   0.59332   0.00000  Uiso   1.00
C606   C     0.14926   0.45421   0.90668   0.00000  Uiso   1.00
C607   C     0.18512   0.54642   0.54651   0.00000  Uiso   1.00
C608   C     0.14823   0.45358   0.95349   0.00000  Uiso   1.00
C609   C     0.16611   0.50038   0.52344   0.00000  Uiso   1.00
C610   C     0.16724   0.49962   0.97656   0.00000  Uiso   1.00
C611   C     0.14602   0.45499   0.54737   0.00000  Uiso   1.00
C612   C     0.15142   0.40178   0.75117   0.00000  Uiso   1.00
C613   C     0.18732   0.54501   0.95263   0.00000  Uiso   1.00
C614   C     0.20475   0.59170   0.52242   0.00000  Uiso   1.00
C615   C     0.12862   0.40829   0.97759   0.00000  Uiso   1.00
C616   C     0.20558   0.59049   0.97538   0.00000  Uiso   1.00
C617   C     0.12777   0.40951   0.52462   0.00000  Uiso   1.00
C618   C     0.18994   0.65273   0.74814   0.00000  Uiso   1.00
C619   C     0.14339   0.34727   0.75186   0.00000  Uiso   1.00
C620   C     0.16745   0.49991   0.83636   0.00000  Uiso   1.00
C621   C     0.16588   0.50009   0.66364   0.00000  Uiso   1.00
C622   C     0.14491   0.45569   0.59397   0.00000  Uiso   1.00
H623   H     0.13005   0.42118   0.61306   0.00000  Uiso   1.00
H624   H     0.32880   0.53914   0.78397   0.00000  Uiso   1.00
H625   H     0.26340   0.63228   0.55804   0.00000  Uiso   1.00
H626   H     0.23062   0.33636   0.52330   0.00000  Uiso   1.00
H627   H     0.06990   0.36764   0.94208   0.00000  Uiso   1.00
H628   H     0.10293   0.66360   0.97666   0.00000  Uiso   1.00
H629   H     0.20328   0.57882   0.88694   0.00000  Uiso   1.00
H630   H     0.19860   0.57991   0.61241   0.00000  Uiso   1.00
H631   H     0.13474   0.42009   0.88760   0.00000  Uiso   1.00
H632   H     0.22063   0.62504   0.95649   0.00000  Uiso   1.00
H633   H     0.11271   0.37496   0.54351   0.00000  Uiso   1.00
H634   H     0.23391   0.33640   0.74458   0.00000  Uiso   1.00
H635   H     0.09943   0.66360   0.75542   0.00000  Uiso   1.00
H636   H     0.00453   0.46086   0.71603   0.00000  Uiso   1.00
N637   N     0.31678   0.48598   0.73783   0.00000  Uiso   1.00
N638   N     0.01656   0.51402   0.76217   0.00000  Uiso   1.00
N639   N     0.22355   0.63862   0.54571   0.00000  Uiso   1.00
N640   N     0.10983   0.36137   0.95429   0.00000  Uiso   1.00
O641   O     0.12975   0.57952   0.75299   0.00000  Uiso   1.00
O642   O     0.20358   0.42048   0.74701   0.00000  Uiso   1.00
O643   O     0.22613   0.57054   0.74518   0.00000  Uiso   1.00
O644   O     0.10720   0.42946   0.75482   0.00000  Uiso   1.00
O645   O     0.11847   0.50450   0.81998   0.00000  Uiso   1.00
O646   O     0.21486   0.49550   0.68002   0.00000  Uiso   1.00
O647   O     0.21485   0.49552   0.81218   0.00000  Uiso   1.00
O648   O     0.11848   0.50448   0.68783   0.00000  Uiso   1.00
Zn649  Zn    0.10231   0.50600   0.75521   0.00000  Uiso   1.00
Zn650  Zn    0.23102   0.49400   0.74479   0.00000  Uiso   1.00
C651   C     0.51524   0.59822   0.74883   0.00000  Uiso   1.00
C652   C     0.52176   0.54431   0.90603   0.00000  Uiso   1.00
C653   C     0.49759   0.50072   0.61616   0.00000  Uiso   1.00
C654   C     0.50241   0.49928   0.88384   0.00000  Uiso   1.00
C655   C     0.51741   0.54579   0.59332   0.00000  Uiso   1.00
C656   C     0.48260   0.45421   0.90668   0.00000  Uiso   1.00
C657   C     0.51846   0.54642   0.54651   0.00000  Uiso   1.00
C658   C     0.48156   0.45358   0.95349   0.00000  Uiso   1.00
C659   C     0.49944   0.50038   0.52344   0.00000  Uiso   1.00
C660   C     0.50057   0.49962   0.97656   0.00000  Uiso   1.00
C661   C     0.47936   0.45499   0.54737   0.00000  Uiso   1.00
C662   C     0.48476   0.40178   0.75117   0.00000  Uiso   1.00
C663   C     0.52066   0.54501   0.95263   0.00000  Uiso   1.00
C664   C     0.53808   0.59170   0.52242   0.00000  Uiso   1.00
C665   C     0.46195   0.40829   0.97759   0.00000  Uiso   1.00
C666   C     0.53892   0.59049   0.97538   0.00000  Uiso   1.00
C667   C     0.46110   0.40951   0.52462   0.00000  Uiso   1.00
C668   C     0.52327   0.65273   0.74814   0.00000  Uiso   1.00
C669   C     0.47673   0.34727   0.75186   0.00000  Uiso   1.00
C670   C     0.50079   0.49991   0.83636   0.00000  Uiso   1.00
C671   C     0.49921   0.50009   0.66364   0.00000  Uiso   1.00
C672   C     0.47824   0.45569   0.59397   0.00000  Uiso   1.00
H673   H     0.46338   0.42118   0.61306   0.00000  Uiso   1.00
H674   H     0.66213   0.53914   0.78397   0.00000  Uiso   1.00
H675   H     0.59674   0.63228   0.55804   0.00000  Uiso   1.00
H676   H     0.56395   0.33636   0.52330   0.00000  Uiso   1.00
H677   H     0.40323   0.36764   0.94208   0.00000  Uiso   1.00
H678   H     0.43627   0.66360   0.97666   0.00000  Uiso   1.00
H679   H     0.53662   0.57882   0.88694   0.00000  Uiso   1.00
H680   H     0.53194   0.57991   0.61241   0.00000  Uiso   1.00
H681   H     0.46807   0.42009   0.88760   0.00000  Uiso   1.00
H682   H     0.55396   0.62504   0.95649   0.00000  Uiso   1.00
H683   H     0.44605   0.37496   0.54351   0.00000  Uiso   1.00
H684   H     0.56724   0.33640   0.74458   0.00000  Uiso   1.00
H685   H     0.43276   0.66360   0.75542   0.00000  Uiso   1.00
H686   H     0.33787   0.46086   0.71603   0.00000  Uiso   1.00
N687   N     0.65011   0.48598   0.73783   0.00000  Uiso   1.00
N688   N     0.34989   0.51402   0.76217   0.00000  Uiso   1.00
N689   N     0.55688   0.63862   0.54571   0.00000  Uiso   1.00
N690   N     0.44316   0.36137   0.95429   0.00000  Uiso   1.00
O691   O     0.46308   0.57952   0.75299   0.00000  Uiso   1.00
O692   O     0.53692   0.42048   0.74701   0.00000  Uiso   1.00
O693   O     0.55946   0.57054   0.74518   0.00000  Uiso   1.00
O694   O     0.44054   0.42946   0.75482   0.00000  Uiso   1.00
O695   O     0.45181   0.50450   0.81998   0.00000  Uiso   1.00
O696   O     0.54819   0.49550   0.68002   0.00000  Uiso   1.00
O697   O     0.54819   0.49552   0.81218   0.00000  Uiso   1.00
O698   O     0.45181   0.50448   0.68783   0.00000  Uiso   1.00
Zn699  Zn    0.43565   0.50600   0.75521   0.00000  Uiso   1.00
Zn700  Zn    0.56435   0.49400   0.74479   0.00000  Uiso   1.00
C701   C     0.84858   0.59822   0.74883   0.00000  Uiso   1.00
C702   C     0.85510   0.54431   0.90603   0.00000  Uiso   1.00
C703   C     0.83093   0.50072   0.61616   0.00000  Uiso   1.00
C704   C     0.83574   0.49928   0.88384   0.00000  Uiso   1.00
C705   C     0.85075   0.54579   0.59332   0.00000  Uiso   1.00
C706   C     0.81593   0.45421   0.90668   0.00000  Uiso   1.00
C707   C     0.85179   0.54642   0.54651   0.00000  Uiso   1.00
C708   C     0.81490   0.45358   0.95349   0.00000  Uiso   1.00
C709   C     0.83278   0.50038   0.52344   0.00000  Uiso   1.00
C710   C     0.83391   0.49962   0.97656   0.00000  Uiso   1.00
C711   C     0.81269   0.45499   0.54737   0.00000  Uiso   1.00
C712   C     0.81809   0.40178   0.75117   0.00000  Uiso   1.00
C713   C     0.85399   0.54501   0.95263   0.00000  Uiso   1.00
C714   C     0.87142   0.59170   0.52242   0.00000  Uiso   1.00
C715   C     0.79528   0.40829   0.97759   0.00000  Uiso   1.00
C716   C     0.87225   0.59049   0.97538   0.00000  Uiso   1.00
C717   C     0.79443   0.40951   0.52462   0.00000  Uiso   1.00
C718   C     0.85661   0.65273   0.74814   0.00000  Uiso   1.00
C719   C     0.81006   0.34727   0.75186   0.00000  Uiso   1.00
C720   C     0.83412   0.49991   0.83636   0.00000  Uiso   1.00
C721   C     0.83255   0.50009   0.66364   0.00000  Uiso   1.00
C722   C     0.81157   0.45569   0.59397   0.00000  Uiso   1.00
H723   H     0.79672   0.42118   0.61306   0.00000  Uiso   1.00
H724   H     0.99547   0.53914   0.78397   0.00000  Uiso   1.00
H725   H     0.93007   0.63228   0.55804   0.00000  Uiso   1.00
H726   H     0.89729   0.33636   0.52330   0.00000  Uiso   1.00
H727   H     0.73657   0.36764   0.94208   0.00000  Uiso   1.00
H728   H     0.76960   0.66360   0.97666   0.00000  Uiso   1.00
H729   H     0.86995   0.57882   0.88694   0.00000  Uiso   1.00
H730   H     0.86527   0.57991   0.61241   0.00000  Uiso   1.00
H731   H     0.80140   0.42009   0.88760   0.00000  Uiso   1.00
H732   H     0.88730   0.62504   0.95649   0.00000  Uiso   1.00
H733   H     0.77938   0.37496   0.54351   0.00000  Uiso   1.00
H734   H     0.90057   0.33640   0.74458   0.00000  Uiso   1.00
H735   H     0.76609   0.66360   0.75542   0.00000  Uiso   1.00
H736   H     0.67120   0.46086   0.71603   0.00000  Uiso   1.00
N737   N     0.98344   0.48598   0.73783   0.00000  Uiso   1.00
N738   N     0.68322   0.51402   0.76217   0.00000  Uiso   1.00
N739   N     0.89022   0.63862   0.54571   0.00000  Uiso   1.00
N740   N     0.77649   0.36137   0.95429   0.00000  Uiso   1.00
O741   O     0.79642   0.57952   0.75299   0.00000  Uiso   1.00
O742   O     0.87025   0.42048   0.74701   0.00000  Uiso   1.00
O743   O     0.89280   0.57054   0.74518   0.00000  Uiso   1.00
O744   O     0.77387   0.42946   0.75482   0.00000  Uiso   1.00
O745   O     0.78514   0.50450   0.81998   0.00000  Uiso   1.00
O746   O     0.88153   0.49550   0.68002   0.00000  Uiso   1.00
O747   O     0.88152   0.49552   0.81218   0.00000  Uiso   1.00
O748   O     0.78515   0.50448   0.68783   0.00000  Uiso   1.00
Zn749  Zn    0.76898   0.50600   0.75521   0.00000  Uiso   1.00
Zn750  Zn    0.89769   0.49400   0.74479   0.00000  Uiso   1.00
C751   C     0.18191   0.93156   0.74883   0.00000  Uiso   1.00
C752   C     0.18843   0.87764   0.90603   0.00000  Uiso   1.00
C753   C     0.16426   0.83405   0.61616   0.00000  Uiso   1.00
C754   C     0.16908   0.83262   0.88384   0.00000  Uiso   1.00
C755   C     0.18408   0.87912   0.59332   0.00000  Uiso   1.00
C756   C     0.14926   0.78754   0.90668   0.00000  Uiso   1.00
C757   C     0.18512   0.87975   0.54651   0.00000  Uiso   1.00
C758   C     0.14823   0.78691   0.95349   0.00000  Uiso   1.00
C759   C     0.16611   0.83371   0.52344   0.00000  Uiso   1.00
C760   C     0.16724   0.83295   0.97656   0.00000  Uiso   1.00
C761   C     0.14602   0.78832   0.54737   0.00000  Uiso   1.00
C762   C     0.15142   0.73511   0.75117   0.00000  Uiso   1.00
C763   C     0.18732   0.87834   0.95263   0.00000  Uiso   1.00
C764   C     0.20475   0.92504   0.52242   0.00000  Uiso   1.00
C765   C     0.12862   0.74162   0.97759   0.00000  Uiso   1.00
C766   C     0.20558   0.92382   0.97538   0.00000  Uiso   1.00
C767   C     0.12777   0.74284   0.52462   0.00000  Uiso   1.00
C768   C     0.18994   0.98606   0.74814   0.00000  Uiso   1.00
C769   C     0.14339   0.68060   0.75186   0.00000  Uiso   1.00
C770   C     0.16745   0.83324   0.83636   0.00000  Uiso   1.00
C771   C     0.16588   0.83343   0.66364   0.00000  Uiso   1.00
C772   C     0.14491   0.78903   0.59397   0.00000  Uiso   1.00
H773   H     0.13005   0.75451   0.61306   0.00000  Uiso   1.00
H774   H     0.32880   0.87248   0.78397   0.00000  Uiso   1.00
H775   H     0.26340   0.96562   0.55804   0.00000  Uiso   1.00
H776   H     0.23062   0.66969   0.52330   0.00000  Uiso   1.00
H777   H     0.06990   0.70097   0.94208   0.00000  Uiso   1.00
H778   H     0.10293   0.99693   0.97666   0.00000  Uiso   1.00
H779   H     0.20328   0.91216   0.88694   0.00000  Uiso   1.00
H780   H     0.19860   0.91324   0.61241   0.00000  Uiso   1.00
H781   H     0.13474   0.75342   0.88760   0.00000  Uiso   1.00
H782   H     0.22063   0.95837   0.95649   0.00000  Uiso   1.00
H783   H     0.11271   0.70829   0.54351   0.00000  Uiso   1.00
H784   H     0.23391   0.66973   0.74458   0.00000  Uiso   1.00
H785   H     0.09943   0.99693   0.75542   0.00000  Uiso   1.00
H786   H     0.00453   0.79419   0.71603   0.00000  Uiso   1.00
N787   N     0.31678   0.81932   0.73783   0.00000  Uiso   1.00
N788   N     0.01656   0.84735   0.76217   0.00000  Uiso   1.00
N789   N     0.22355   0.97195   0.54571   0.00000  Uiso   1.00
N790   N     0.10983   0.69471   0.95429   0.00000  Uiso   1.00
O791   O     0.12975   0.91286   0.75299   0.00000  Uiso   1.00
O792   O     0.20358   0.75381   0.74701   0.00000  Uiso   1.00
O793   O     0.22613   0.90387   0.74518   0.00000  Uiso   1.00
O794   O     0.10720   0.76279   0.75482   0.00000  Uiso   1.00
O795   O     0.11847   0.83784   0.81998   0.00000  Uiso   1.00
O796   O     0.21486   0.82883   0.68002   0.00000  Uiso   1.00
O797   O     0.21485   0.82885   0.81218   0.00000  Uiso   1.00
O798   O     0.11848   0.83781   0.68783   0.00000  Uiso   1.00
Zn799  Zn    0.10231   0.83933   0.75521   0.00000  Uiso   1.00
Zn800  Zn    0.23102   0.82734   0.74479   0.00000  Uiso   1.00
C801   C     0.51524   0.93156   0.74883   0.00000  Uiso   1.00
C802   C     0.52176   0.87764   0.90603   0.00000  Uiso   1.00
C803   C     0.49759   0.83405   0.61616   0.00000  Uiso   1.00
C804   C     0.50241   0.83262   0.88384   0.00000  Uiso   1.00
C805   C     0.51741   0.87912   0.59332   0.00000  Uiso   1.00
C806   C     0.48260   0.78754   0.90668   0.00000  Uiso   1.00
C807   C     0.51846   0.87975   0.54651   0.00000  Uiso   1.00
C808   C     0.48156   0.78691   0.95349   0.00000  Uiso   1.00
C809   C     0.49944   0.83371   0.52344   0.00000  Uiso   1.00
C810   C     0.50057   0.83295   0.97656   0.00000  Uiso   1.00
C811   C     0.47936   0.78832   0.54737   0.00000  Uiso   1.00
C812   C     0.48476   0.73511   0.75117   0.00000  Uiso   1.00
C813   C     0.52066   0.87834   0.95263   0.00000  Uiso   1.00
C814   C     0.53808   0.92504   0.52242   0.00000  Uiso   1.00
C815   C     0.46195   0.74162   0.97759   0.00000  Uiso   1.00
C816   C     0.53892   0.92382   0.97538   0.00000  Uiso   1.00
C817   C     0.46110   0.74284   0.52462   0.00000  Uiso   1.00
C818   C     0.52327   0.98606   0.74814   0.00000  Uiso   1.00
C819   C     0.47673   0.68060   0.75186   0.00000  Uiso   1.00
C820   C     0.50079   0.83324   0.83636   0.00000  Uiso   1.00
C821   C     0.49921   0.83343   0.66364   0.00000  Uiso   1.00
C822   C     0.47824   0.78903   0.59397   0.00000  Uiso   1.00
H823   H     0.46338   0.75451   0.61306   0.00000  Uiso   1.00
H824   H     0.66213   0.87248   0.78397   0.00000  Uiso   1.00
H825   H     0.59674   0.96562   0.55804   0.00000  Uiso   1.00
H826   H     0.56395   0.66969   0.52330   0.00000  Uiso   1.00
H827   H     0.40323   0.70097   0.94208   0.00000  Uiso   1.00
H828   H     0.43627   0.99693   0.97666   0.00000  Uiso   1.00
H829   H     0.53662   0.91216   0.88694   0.00000  Uiso   1.00
H830   H     0.53194   0.91324   0.61241   0.00000  Uiso   1.00
H831   H     0.46807   0.75342   0.88760   0.00000  Uiso   1.00
H832   H     0.55396   0.95837   0.95649   0.00000  Uiso   1.00
H833   H     0.44605   0.70829   0.54351   0.00000  Uiso   1.00
H834   H     0.56724   0.66973   0.74458   0.00000  Uiso   1.00
H835   H     0.43276   0.99693   0.75542   0.00000  Uiso   1.00
H836   H     0.33787   0.79419   0.71603   0.00000  Uiso   1.00
N837   N     0.65011   0.81932   0.73783   0.00000  Uiso   1.00
N838   N     0.34989   0.84735   0.76217   0.00000  Uiso   1.00
N839   N     0.55688   0.97195   0.54571   0.00000  Uiso   1.00
N840   N     0.44316   0.69471   0.95429   0.00000  Uiso   1.00
O841   O     0.46308   0.91286   0.75299   0.00000  Uiso   1.00
O842   O     0.53692   0.75381   0.74701   0.00000  Uiso   1.00
O843   O     0.55946   0.90387   0.74518   0.00000  Uiso   1.00
O844   O     0.44054   0.76279   0.75482   0.00000  Uiso   1.00
O845   O     0.45181   0.83784   0.81998   0.00000  Uiso   1.00
O846   O     0.54819   0.82883   0.68002   0.00000  Uiso   1.00
O847   O     0.54819   0.82885   0.81218   0.00000  Uiso   1.00
O848   O     0.45181   0.83781   0.68783   0.00000  Uiso   1.00
Zn849  Zn    0.43565   0.83933   0.75521   0.00000  Uiso   1.00
Zn850  Zn    0.56435   0.82734   0.74479   0.00000  Uiso   1.00
C851   C     0.84858   0.93156   0.74883   0.00000  Uiso   1.00
C852   C     0.85510   0.87764   0.90603   0.00000  Uiso   1.00
C853   C     0.83093   0.83405   0.61616   0.00000  Uiso   1.00
C854   C     0.83574   0.83262   0.88384   0.00000  Uiso   1.00
C855   C     0.85075   0.87912   0.59332   0.00000  Uiso   1.00
C856   C     0.81593   0.78754   0.90668   0.00000  Uiso   1.00
C857   C     0.85179   0.87975   0.54651   0.00000  Uiso   1.00
C858   C     0.81490   0.78691   0.95349   0.00000  Uiso   1.00
C859   C     0.83278   0.83371   0.52344   0.00000  Uiso   1.00
C860   C     0.83391   0.83295   0.97656   0.00000  Uiso   1.00
C861   C     0.81269   0.78832   0.54737   0.00000  Uiso   1.00
C862   C     0.81809   0.73511   0.75117   0.00000  Uiso   1.00
C863   C     0.85399   0.87834   0.95263   0.00000  Uiso   1.00
C864   C     0.87142   0.92504   0.52242   0.00000  Uiso   1.00
C865   C     0.79528   0.74162   0.97759   0.00000  Uiso   1.00
C866   C     0.87225   0.92382   0.97538   0.00000  Uiso   1.00
C867   C     0.79443   0.74284   0.52462   0.00000  Uiso   1.00
C868   C     0.85661   0.98606   0.74814   0.00000  Uiso   1.00
C869   C     0.81006   0.68060   0.75186   0.00000  Uiso   1.00
C870   C     0.83412   0.83324   0.83636   0.00000  Uiso   1.00
C871   C     0.83255   0.83343   0.66364   0.00000  Uiso   1.00
C872   C     0.81157   0.78903   0.59397   0.00000  Uiso   1.00
H873   H     0.79672   0.75451   0.61306   0.00000  Uiso   1.00
H874   H     0.99547   0.87248   0.78397   0.00000  Uiso   1.00
H875   H     0.93007   0.96562   0.55804   0.00000  Uiso   1.00
H876   H     0.89729   0.66969   0.52330   0.00000  Uiso   1.00
H877   H     0.73657   0.70097   0.94208   0.00000  Uiso   1.00
H878   H     0.76960   0.99693   0.97666   0.00000  Uiso   1.00
H879   H     0.86995   0.91216   0.88694   0.00000  Uiso   1.00
H880   H     0.86527   0.91324   0.61241   0.00000  Uiso   1.00
H881   H     0.80140   0.75342   0.88760   0.00000  Uiso   1.00
H882   H     0.88730   0.95837   0.95649   0.00000  Uiso   1.00
H883   H     0.77938   0.70829   0.54351   0.00000  Uiso   1.00
H884   H     0.90057   0.66973   0.74458   0.00000  Uiso   1.00
H885   H     0.76609   0.99693   0.75542   0.00000  Uiso   1.00
H886   H     0.67120   0.79419   0.71603   0.00000  Uiso   1.00
N887   N     0.98344   0.81932   0.73783   0.00000  Uiso   1.00
N888   N     0.68322   0.84735   0.76217   0.00000  Uiso   1.00
N889   N     0.89022   0.97195   0.54571   0.00000  Uiso   1.00
N890   N     0.77649   0.69471   0.95429   0.00000  Uiso   1.00
O891   O     0.79642   0.91286   0.75299   0.00000  Uiso   1.00
O892   O     0.87025   0.75381   0.74701   0.00000  Uiso   1.00
O893   O     0.89280   0.90387   0.74518   0.00000  Uiso   1.00
O894   O     0.77387   0.76279   0.75482   0.00000  Uiso   1.00
O895   O     0.78514   0.83784   0.81998   0.00000  Uiso   1.00
O896   O     0.88153   0.82883   0.68002   0.00000  Uiso   1.00
O897   O     0.88152   0.82885   0.81218   0.00000  Uiso   1.00
O898   O     0.78515   0.83781   0.68783   0.00000  Uiso   1.00
Zn899  Zn    0.76898   0.83933   0.75521   0.00000  Uiso   1.00
Zn900  Zn    0.89769   0.82734   0.74479   0.00000  Uiso   1.00
loop_
_geom_bond_atom_site_label_1
_geom_bond_atom_site_label_2
_geom_bond_distance
_geom_bond_site_symmetry_2
_ccdc_geom_bond_type
C1     C18     1.401   .     S
C1     O41     1.278   .     A
C1     O43     1.287   .     A
C2     C4      1.387   .     A
C2     H29     1.086   .     S
C2     C13     1.383   .     A
C3     C21     1.415   .     S
C3     C22     1.387   .     A
C3     C5      1.389   .     A
C4     C6      1.389   .     A
C4     C20     1.415   .     S
C5     H30     1.084   .     S
C5     C7      1.390   .     A
C6     H31     1.084   .     S
C6     C8      1.390   .     A
C7     C9      1.419   .     A
C7     C14     1.411   .     A
C8     C10     1.419   .     A
C8     C15     1.411   .     A
C9     C11     1.413   .     A
C9     C460    1.391   1_554 S
C10    C13     1.413   .     A
C10    C459    1.391   .     S
C11    C22     1.383   .     A
C11    C17     1.397   .     A
C12    O44     1.287   .     A
C12    C19     1.401   .     S
C12    O42     1.278   .     A
C13    C16     1.397   .     A
C14    N39     1.439   .     S
C14    C466    1.397   1_554 S
C15    N40     1.438   .     S
C15    C467    1.397   .     S
C16    H32     1.085   .     S
C16    C464    1.397   .     S
C17    H33     1.084   .     S
C17    C465    1.397   1_554 S
C18    C169    1.335   .     S
C18    H184    1.088   .     S
C19    C318    1.335   1_545 S
C19    H335    1.088   1_545 S
C20    O45     1.286   .     A
C20    O47     1.286   .     A
C21    O48     1.286   .     A
C21    O46     1.286   .     A
C22    H23     1.086   .     S
H24    N88     1.029   .     S
H25    N39     1.046   .     S
H26    N339    1.046   1_545 S
H27    N40     1.045   .     S
H28    N190    1.046   .     S
H34    C318    1.088   1_545 S
H35    C169    1.088   .     S
H36    N137    1.029   1_455 S
N37    Zn50    2.020   .     S
N37    H86     1.029   .     S
N37    N88     1.276   .     S
N38    Zn49    2.020   .     S
N38    H124    1.029   1_455 S
N38    N137    1.276   1_455 S
N39    H176    1.046   .     S
N40    H328    1.046   1_545 S
O41    Zn49    1.956   .     S
O42    Zn50    1.956   .     S
O43    Zn50    1.976   .     S
O44    Zn49    1.976   .     S
O45    Zn49    1.989   .     S
O46    Zn50    1.989   .     S
O47    Zn50    2.012   .     S
O48    Zn49    2.012   .     S
C51    C68     1.401   .     S
C51    O91     1.278   .     A
C51    O93     1.287   .     A
C52    C54     1.387   .     A
C52    H79     1.086   .     S
C52    C63     1.383   .     A
C53    C71     1.415   .     S
C53    C72     1.387   .     A
C53    C55     1.389   .     A
C54    C56     1.389   .     A
C54    C70     1.415   .     S
C55    H80     1.084   .     S
C55    C57     1.390   .     A
C56    H81     1.084   .     S
C56    C58     1.390   .     A
C57    C59     1.419   .     A
C57    C64     1.411   .     A
C58    C60     1.419   .     A
C58    C65     1.411   .     A
C59    C61     1.413   .     A
C59    C510    1.391   1_554 S
C60    C63     1.413   .     A
C60    C509    1.391   .     S
C61    C72     1.383   .     A
C61    C67     1.397   .     A
C62    O94     1.287   .     A
C62    C69     1.401   .     S
C62    O92     1.278   .     A
C63    C66     1.397   .     A
C64    N89     1.439   .     S
C64    C516    1.397   1_554 S
C65    N90     1.438   .     S
C65    C517    1.397   .     S
C66    H82     1.085   .     S
C66    C514    1.397   .     S
C67    H83     1.084   .     S
C67    C515    1.397   1_554 S
C68    C219    1.335   .     S
C68    H234    1.088   .     S
C69    C368    1.335   1_545 S
C69    H385    1.088   1_545 S
C70    O95     1.286   .     A
C70    O97     1.286   .     A
C71    O98     1.286   .     A
C71    O96     1.286   .     A
C72    H73     1.086   .     S
H74    N138    1.029   .     S
H75    N89     1.046   .     S
H76    N389    1.046   1_545 S
H77    N90     1.045   .     S
H78    N240    1.046   .     S
H84    C368    1.088   1_545 S
H85    C219    1.088   .     S
N87    Zn100   2.020   .     S
N87    H136    1.029   .     S
N87    N138    1.276   .     S
N88    Zn99    2.020   .     S
N89    H226    1.046   .     S
N90    H378    1.046   1_545 S
O91    Zn99    1.956   .     S
O92    Zn100   1.956   .     S
O93    Zn100   1.976   .     S
O94    Zn99    1.976   .     S
O95    Zn99    1.989   .     S
O96    Zn100   1.989   .     S
O97    Zn100   2.012   .     S
O98    Zn99    2.012   .     S
C101   C118    1.401   .     S
C101   O141    1.278   .     A
C101   O143    1.287   .     A
C102   C104    1.387   .     A
C102   H129    1.086   .     S
C102   C113    1.383   .     A
C103   C121    1.415   .     S
C103   C122    1.387   .     A
C103   C105    1.389   .     A
C104   C106    1.389   .     A
C104   C120    1.415   .     S
C105   H130    1.084   .     S
C105   C107    1.390   .     A
C106   H131    1.084   .     S
C106   C108    1.390   .     A
C107   C109    1.419   .     A
C107   C114    1.411   .     A
C108   C110    1.419   .     A
C108   C115    1.411   .     A
C109   C111    1.413   .     A
C109   C560    1.391   1_554 S
C110   C113    1.413   .     A
C110   C559    1.391   .     S
C111   C122    1.383   .     A
C111   C117    1.397   .     A
C112   O144    1.287   .     A
C112   C119    1.401   .     S
C112   O142    1.278   .     A
C113   C116    1.397   .     A
C114   N139    1.439   .     S
C114   C566    1.397   1_554 S
C115   N140    1.438   .     S
C115   C567    1.397   .     S
C116   H132    1.085   .     S
C116   C564    1.397   .     S
C117   H133    1.084   .     S
C117   C565    1.397   1_554 S
C118   C269    1.335   .     S
C118   H284    1.088   .     S
C119   C418    1.335   1_545 S
C119   H435    1.088   1_545 S
C120   O145    1.286   .     A
C120   O147    1.286   .     A
C121   O148    1.286   .     A
C121   O146    1.286   .     A
C122   H123    1.086   .     S
H124   N38     1.029   1_655 S
H125   N139    1.046   .     S
H126   N439    1.046   1_545 S
H127   N140    1.045   .     S
H128   N290    1.046   .     S
H134   C418    1.088   1_545 S
H135   C269    1.088   .     S
N137   Zn150   2.020   .     S
N137   H36     1.029   1_655 S
N137   N38     1.276   1_655 S
N138   Zn149   2.020   .     S
N139   H276    1.046   .     S
N140   H428    1.046   1_545 S
O141   Zn149   1.956   .     S
O142   Zn150   1.956   .     S
O143   Zn150   1.976   .     S
O144   Zn149   1.976   .     S
O145   Zn149   1.989   .     S
O146   Zn150   1.989   .     S
O147   Zn150   2.012   .     S
O148   Zn149   2.012   .     S
C151   C168    1.401   .     S
C151   O191    1.278   .     A
C151   O193    1.287   .     A
C152   C154    1.387   .     A
C152   H179    1.086   .     S
C152   C163    1.383   .     A
C153   C171    1.415   .     S
C153   C172    1.387   .     A
C153   C155    1.389   .     A
C154   C156    1.389   .     A
C154   C170    1.415   .     S
C155   H180    1.084   .     S
C155   C157    1.390   .     A
C156   H181    1.084   .     S
C156   C158    1.390   .     A
C157   C159    1.419   .     A
C157   C164    1.411   .     A
C158   C160    1.419   .     A
C158   C165    1.411   .     A
C159   C161    1.413   .     A
C159   C610    1.391   1_554 S
C160   C163    1.413   .     A
C160   C609    1.391   .     S
C161   C172    1.383   .     A
C161   C167    1.397   .     A
C162   O194    1.287   .     A
C162   C169    1.401   .     S
C162   O192    1.278   .     A
C163   C166    1.397   .     A
C164   N189    1.439   .     S
C164   C616    1.397   1_554 S
C165   N190    1.438   .     S
C165   C617    1.397   .     S
C166   H182    1.085   .     S
C166   C614    1.397   .     S
C167   H183    1.084   .     S
C167   C615    1.397   1_554 S
C168   C319    1.335   .     S
C168   H334    1.088   .     S
C170   O195    1.286   .     A
C170   O197    1.286   .     A
C171   O198    1.286   .     A
C171   O196    1.286   .     A
C172   H173    1.086   .     S
H174   N238    1.029   .     S
H175   N189    1.046   .     S
H177   N190    1.045   .     S
H178   N340    1.046   .     S
H185   C319    1.088   .     S
H186   N287    1.029   1_455 S
N187   Zn200   2.020   .     S
N187   H236    1.029   .     S
N187   N238    1.276   .     S
N188   Zn199   2.020   .     S
N188   H274    1.029   1_455 S
N188   N287    1.276   1_455 S
N189   H326    1.046   .     S
O191   Zn199   1.956   .     S
O192   Zn200   1.956   .     S
O193   Zn200   1.976   .     S
O194   Zn199   1.976   .     S
O195   Zn199   1.989   .     S
O196   Zn200   1.989   .     S
O197   Zn200   2.012   .     S
O198   Zn199   2.012   .     S
C201   C218    1.401   .     S
C201   O241    1.278   .     A
C201   O243    1.287   .     A
C202   C204    1.387   .     A
C202   H229    1.086   .     S
C202   C213    1.383   .     A
C203   C221    1.415   .     S
C203   C222    1.387   .     A
C203   C205    1.389   .     A
C204   C206    1.389   .     A
C204   C220    1.415   .     S
C205   H230    1.084   .     S
C205   C207    1.390   .     A
C206   H231    1.084   .     S
C206   C208    1.390   .     A
C207   C209    1.419   .     A
C207   C214    1.411   .     A
C208   C210    1.419   .     A
C208   C215    1.411   .     A
C209   C211    1.413   .     A
C209   C660    1.391   1_554 S
C210   C213    1.413   .     A
C210   C659    1.391   .     S
C211   C222    1.383   .     A
C211   C217    1.397   .     A
C212   O244    1.287   .     A
C212   C219    1.401   .     S
C212   O242    1.278   .     A
C213   C216    1.397   .     A
C214   N239    1.439   .     S
C214   C666    1.397   1_554 S
C215   N240    1.438   .     S
C215   C667    1.397   .     S
C216   H232    1.085   .     S
C216   C664    1.397   .     S
C217   H233    1.084   .     S
C217   C665    1.397   1_554 S
C218   C369    1.335   .     S
C218   H384    1.088   .     S
C220   O245    1.286   .     A
C220   O247    1.286   .     A
C221   O248    1.286   .     A
C221   O246    1.286   .     A
C222   H223    1.086   .     S
H224   N288    1.029   .     S
H225   N239    1.046   .     S
H227   N240    1.045   .     S
H228   N390    1.046   .     S
H235   C369    1.088   .     S
N237   Zn250   2.020   .     S
N237   H286    1.029   .     S
N237   N288    1.276   .     S
N238   Zn249   2.020   .     S
N239   H376    1.046   .     S
O241   Zn249   1.956   .     S
O242   Zn250   1.956   .     S
O243   Zn250   1.976   .     S
O244   Zn249   1.976   .     S
O245   Zn249   1.989   .     S
O246   Zn250   1.989   .     S
O247   Zn250   2.012   .     S
O248   Zn249   2.012   .     S
C251   C268    1.401   .     S
C251   O291    1.278   .     A
C251   O293    1.287   .     A
C252   C254    1.387   .     A
C252   H279    1.086   .     S
C252   C263    1.383   .     A
C253   C271    1.415   .     S
C253   C272    1.387   .     A
C253   C255    1.389   .     A
C254   C256    1.389   .     A
C254   C270    1.415   .     S
C255   H280    1.084   .     S
C255   C257    1.390   .     A
C256   H281    1.084   .     S
C256   C258    1.390   .     A
C257   C259    1.419   .     A
C257   C264    1.411   .     A
C258   C260    1.419   .     A
C258   C265    1.411   .     A
C259   C261    1.413   .     A
C259   C710    1.391   1_554 S
C260   C263    1.413   .     A
C260   C709    1.391   .     S
C261   C272    1.383   .     A
C261   C267    1.397   .     A
C262   O294    1.287   .     A
C262   C269    1.401   .     S
C262   O292    1.278   .     A
C263   C266    1.397   .     A
C264   N289    1.439   .     S
C264   C716    1.397   1_554 S
C265   N290    1.438   .     S
C265   C717    1.397   .     S
C266   H282    1.085   .     S
C266   C714    1.397   .     S
C267   H283    1.084   .     S
C267   C715    1.397   1_554 S
C268   C419    1.335   .     S
C268   H434    1.088   .     S
C270   O295    1.286   .     A
C270   O297    1.286   .     A
C271   O298    1.286   .     A
C271   O296    1.286   .     A
C272   H273    1.086   .     S
H274   N188    1.029   1_655 S
H275   N289    1.046   .     S
H277   N290    1.045   .     S
H278   N440    1.046   .     S
H285   C419    1.088   .     S
N287   Zn300   2.020   .     S
N287   H186    1.029   1_655 S
N287   N188    1.276   1_655 S
N288   Zn299   2.020   .     S
N289   H426    1.046   .     S
O291   Zn299   1.956   .     S
O292   Zn300   1.956   .     S
O293   Zn300   1.976   .     S
O294   Zn299   1.976   .     S
O295   Zn299   1.989   .     S
O296   Zn300   1.989   .     S
O297   Zn300   2.012   .     S
O298   Zn299   2.012   .     S
C301   C318    1.401   .     S
C301   O341    1.278   .     A
C301   O343    1.287   .     A
C302   C304    1.387   .     A
C302   H329    1.086   .     S
C302   C313    1.383   .     A
C303   C321    1.415   .     S
C303   C322    1.387   .     A
C303   C305    1.389   .     A
C304   C306    1.389   .     A
C304   C320    1.415   .     S
C305   H330    1.084   .     S
C305   C307    1.390   .     A
C306   H331    1.084   .     S
C306   C308    1.390   .     A
C307   C309    1.419   .     A
C307   C314    1.411   .     A
C308   C310    1.419   .     A
C308   C315    1.411   .     A
C309   C311    1.413   .     A
C309   C760    1.391   1_554 S
C310   C313    1.413   .     A
C310   C759    1.391   .     S
C311   C322    1.383   .     A
C311   C317    1.397   .     A
C312   O344    1.287   .     A
C312   C319    1.401   .     S
C312   O342    1.278   .     A
C313   C316    1.397   .     A
C314   N339    1.439   .     S
C314   C766    1.397   1_554 S
C315   N340    1.438   .     S
C315   C767    1.397   .     S
C316   H332    1.085   .     S
C316   C764    1.397   .     S
C317   H333    1.084   .     S
C317   C765    1.397   1_554 S
C318   C19     1.335   1_565 S
C318   H34     1.088   1_565 S
C320   O345    1.286   .     A
C320   O347    1.286   .     A
C321   O348    1.286   .     A
C321   O346    1.286   .     A
C322   H323    1.086   .     S
H324   N388    1.029   .     S
H325   N339    1.046   .     S
H327   N340    1.045   .     S
H328   N40     1.046   1_565 S
H335   C19     1.088   1_565 S
H336   N437    1.029   1_455 S
N337   Zn350   2.020   .     S
N337   H386    1.029   .     S
N337   N388    1.276   .     S
N338   Zn349   2.020   .     S
N338   H424    1.029   1_455 S
N338   N437    1.276   1_455 S
N339   H26     1.046   1_565 S
O341   Zn349   1.956   .     S
O342   Zn350   1.956   .     S
O343   Zn350   1.976   .     S
O344   Zn349   1.976   .     S
O345   Zn349   1.989   .     S
O346   Zn350   1.989   .     S
O347   Zn350   2.012   .     S
O348   Zn349   2.012   .     S
C351   C368    1.401   .     S
C351   O391    1.278   .     A
C351   O393    1.287   .     A
C352   C354    1.387   .     A
C352   H379    1.086   .     S
C352   C363    1.383   .     A
C353   C371    1.415   .     S
C353   C372    1.387   .     A
C353   C355    1.389   .     A
C354   C356    1.389   .     A
C354   C370    1.415   .     S
C355   H380    1.084   .     S
C355   C357    1.390   .     A
C356   H381    1.084   .     S
C356   C358    1.390   .     A
C357   C359    1.419   .     A
C357   C364    1.411   .     A
C358   C360    1.419   .     A
C358   C365    1.411   .     A
C359   C361    1.413   .     A
C359   C810    1.391   1_554 S
C360   C363    1.413   .     A
C360   C809    1.391   .     S
C361   C372    1.383   .     A
C361   C367    1.397   .     A
C362   O394    1.287   .     A
C362   C369    1.401   .     S
C362   O392    1.278   .     A
C363   C366    1.397   .     A
C364   N389    1.439   .     S
C364   C816    1.397   1_554 S
C365   N390    1.438   .     S
C365   C817    1.397   .     S
C366   H382    1.085   .     S
C366   C814    1.397   .     S
C367   H383    1.084   .     S
C367   C815    1.397   1_554 S
C368   C69     1.335   1_565 S
C368   H84     1.088   1_565 S
C370   O395    1.286   .     A
C370   O397    1.286   .     A
C371   O398    1.286   .     A
C371   O396    1.286   .     A
C372   H373    1.086   .     S
H374   N438    1.029   .     S
H375   N389    1.046   .     S
H377   N390    1.045   .     S
H378   N90     1.046   1_565 S
H385   C69     1.088   1_565 S
N387   Zn400   2.020   .     S
N387   H436    1.029   .     S
N387   N438    1.276   .     S
N388   Zn399   2.020   .     S
N389   H76     1.046   1_565 S
O391   Zn399   1.956   .     S
O392   Zn400   1.956   .     S
O393   Zn400   1.976   .     S
O394   Zn399   1.976   .     S
O395   Zn399   1.989   .     S
O396   Zn400   1.989   .     S
O397   Zn400   2.012   .     S
O398   Zn399   2.012   .     S
C401   C418    1.401   .     S
C401   O441    1.278   .     A
C401   O443    1.287   .     A
C402   C404    1.387   .     A
C402   H429    1.086   .     S
C402   C413    1.383   .     A
C403   C421    1.415   .     S
C403   C422    1.387   .     A
C403   C405    1.389   .     A
C404   C406    1.389   .     A
C404   C420    1.415   .     S
C405   H430    1.084   .     S
C405   C407    1.390   .     A
C406   H431    1.084   .     S
C406   C408    1.390   .     A
C407   C409    1.419   .     A
C407   C414    1.411   .     A
C408   C410    1.419   .     A
C408   C415    1.411   .     A
C409   C411    1.413   .     A
C409   C860    1.391   1_554 S
C410   C413    1.413   .     A
C410   C859    1.391   .     S
C411   C422    1.383   .     A
C411   C417    1.397   .     A
C412   O444    1.287   .     A
C412   C419    1.401   .     S
C412   O442    1.278   .     A
C413   C416    1.397   .     A
C414   N439    1.439   .     S
C414   C866    1.397   1_554 S
C415   N440    1.438   .     S
C415   C867    1.397   .     S
C416   H432    1.085   .     S
C416   C864    1.397   .     S
C417   H433    1.084   .     S
C417   C865    1.397   1_554 S
C418   C119    1.335   1_565 S
C418   H134    1.088   1_565 S
C420   O445    1.286   .     A
C420   O447    1.286   .     A
C421   O448    1.286   .     A
C421   O446    1.286   .     A
C422   H423    1.086   .     S
H424   N338    1.029   1_655 S
H425   N439    1.046   .     S
H427   N440    1.045   .     S
H428   N140    1.046   1_565 S
H435   C119    1.088   1_565 S
N437   Zn450   2.020   .     S
N437   H336    1.029   1_655 S
N437   N338    1.276   1_655 S
N438   Zn449   2.020   .     S
N439   H126    1.046   1_565 S
O441   Zn449   1.956   .     S
O442   Zn450   1.956   .     S
O443   Zn450   1.976   .     S
O444   Zn449   1.976   .     S
O445   Zn449   1.989   .     S
O446   Zn450   1.989   .     S
O447   Zn450   2.012   .     S
O448   Zn449   2.012   .     S
C451   C468    1.401   .     S
C451   O491    1.278   .     A
C451   O493    1.287   .     A
C452   C454    1.387   .     A
C452   H479    1.086   .     S
C452   C463    1.383   .     A
C453   C471    1.415   .     S
C453   C472    1.387   .     A
C453   C455    1.389   .     A
C454   C456    1.389   .     A
C454   C470    1.415   .     S
C455   H480    1.084   .     S
C455   C457    1.390   .     A
C456   H481    1.084   .     S
C456   C458    1.390   .     A
C457   C459    1.419   .     A
C457   C464    1.411   .     A
C458   C460    1.419   .     A
C458   C465    1.411   .     A
C459   C461    1.413   .     A
C460   C463    1.413   .     A
C460   C9      1.391   1_556 S
C461   C472    1.383   .     A
C461   C467    1.397   .     A
C462   O494    1.287   .     A
C462   C469    1.401   .     S
C462   O492    1.278   .     A
C463   C466    1.397   .     A
C464   N489    1.439   .     S
C465   N490    1.438   .     S
C465   C17     1.397   1_556 S
C466   H482    1.085   .     S
C466   C14     1.397   1_556 S
C467   H483    1.084   .     S
C468   C619    1.335   .     S
C468   H634    1.088   .     S
C469   C768    1.335   1_545 S
C469   H785    1.088   1_545 S
C470   O495    1.286   .     A
C470   O497    1.286   .     A
C471   O498    1.286   .     A
C471   O496    1.286   .     A
C472   H473    1.086   .     S
H474   N538    1.029   .     S
H475   N489    1.046   .     S
H476   N789    1.046   1_545 S
H477   N490    1.045   .     S
H478   N640    1.046   .     S
H484   C768    1.088   1_545 S
H485   C619    1.088   .     S
H486   N587    1.029   1_455 S
N487   Zn500   2.020   .     S
N487   H536    1.029   .     S
N487   N538    1.276   .     S
N488   Zn499   2.020   .     S
N488   H574    1.029   1_455 S
N488   N587    1.276   1_455 S
N489   H626    1.046   .     S
N490   H778    1.046   1_545 S
O491   Zn499   1.956   .     S
O492   Zn500   1.956   .     S
O493   Zn500   1.976   .     S
O494   Zn499   1.976   .     S
O495   Zn499   1.989   .     S
O496   Zn500   1.989   .     S
O497   Zn500   2.012   .     S
O498   Zn499   2.012   .     S
C501   C518    1.401   .     S
C501   O541    1.278   .     A
C501   O543    1.287   .     A
C502   C504    1.387   .     A
C502   H529    1.086   .     S
C502   C513    1.383   .     A
C503   C521    1.415   .     S
C503   C522    1.387   .     A
C503   C505    1.389   .     A
C504   C506    1.389   .     A
C504   C520    1.415   .     S
C505   H530    1.084   .     S
C505   C507    1.390   .     A
C506   H531    1.084   .     S
C506   C508    1.390   .     A
C507   C509    1.419   .     A
C507   C514    1.411   .     A
C508   C510    1.419   .     A
C508   C515    1.411   .     A
C509   C511    1.413   .     A
C510   C513    1.413   .     A
C510   C59     1.391   1_556 S
C511   C522    1.383   .     A
C511   C517    1.397   .     A
C512   O544    1.287   .     A
C512   C519    1.401   .     S
C512   O542    1.278   .     A
C513   C516    1.397   .     A
C514   N539    1.439   .     S
C515   N540    1.438   .     S
C515   C67     1.397   1_556 S
C516   H532    1.085   .     S
C516   C64     1.397   1_556 S
C517   H533    1.084   .     S
C518   C669    1.335   .     S
C518   H684    1.088   .     S
C519   C818    1.335   1_545 S
C519   H835    1.088   1_545 S
C520   O545    1.286   .     A
C520   O547    1.286   .     A
C521   O548    1.286   .     A
C521   O546    1.286   .     A
C522   H523    1.086   .     S
H524   N588    1.029   .     S
H525   N539    1.046   .     S
H526   N839    1.046   1_545 S
H527   N540    1.045   .     S
H528   N690    1.046   .     S
H534   C818    1.088   1_545 S
H535   C669    1.088   .     S
N537   Zn550   2.020   .     S
N537   H586    1.029   .     S
N537   N588    1.276   .     S
N538   Zn549   2.020   .     S
N539   H676    1.046   .     S
N540   H828    1.046   1_545 S
O541   Zn549   1.956   .     S
O542   Zn550   1.956   .     S
O543   Zn550   1.976   .     S
O544   Zn549   1.976   .     S
O545   Zn549   1.989   .     S
O546   Zn550   1.989   .     S
O547   Zn550   2.012   .     S
O548   Zn549   2.012   .     S
C551   C568    1.401   .     S
C551   O591    1.278   .     A
C551   O593    1.287   .     A
C552   C554    1.387   .     A
C552   H579    1.086   .     S
C552   C563    1.383   .     A
C553   C571    1.415   .     S
C553   C572    1.387   .     A
C553   C555    1.389   .     A
C554   C556    1.389   .     A
C554   C570    1.415   .     S
C555   H580    1.084   .     S
C555   C557    1.390   .     A
C556   H581    1.084   .     S
C556   C558    1.390   .     A
C557   C559    1.419   .     A
C557   C564    1.411   .     A
C558   C560    1.419   .     A
C558   C565    1.411   .     A
C559   C561    1.413   .     A
C560   C563    1.413   .     A
C560   C109    1.391   1_556 S
C561   C572    1.383   .     A
C561   C567    1.397   .     A
C562   O594    1.287   .     A
C562   C569    1.401   .     S
C562   O592    1.278   .     A
C563   C566    1.397   .     A
C564   N589    1.439   .     S
C565   N590    1.438   .     S
C565   C117    1.397   1_556 S
C566   H582    1.085   .     S
C566   C114    1.397   1_556 S
C567   H583    1.084   .     S
C568   C719    1.335   .     S
C568   H734    1.088   .     S
C569   C868    1.335   1_545 S
C569   H885    1.088   1_545 S
C570   O595    1.286   .     A
C570   O597    1.286   .     A
C571   O598    1.286   .     A
C571   O596    1.286   .     A
C572   H573    1.086   .     S
H574   N488    1.029   1_655 S
H575   N589    1.046   .     S
H576   N889    1.046   1_545 S
H577   N590    1.045   .     S
H578   N740    1.046   .     S
H584   C868    1.088   1_545 S
H585   C719    1.088   .     S
N587   Zn600   2.020   .     S
N587   H486    1.029   1_655 S
N587   N488    1.276   1_655 S
N588   Zn599   2.020   .     S
N589   H726    1.046   .     S
N590   H878    1.046   1_545 S
O591   Zn599   1.956   .     S
O592   Zn600   1.956   .     S
O593   Zn600   1.976   .     S
O594   Zn599   1.976   .     S
O595   Zn599   1.989   .     S
O596   Zn600   1.989   .     S
O597   Zn600   2.012   .     S
O598   Zn599   2.012   .     S
C601   C618    1.401   .     S
C601   O641    1.278   .     A
C601   O643    1.287   .     A
C602   C604    1.387   .     A
C602   H629    1.086   .     S
C602   C613    1.383   .     A
C603   C621    1.415   .     S
C603   C622    1.387   .     A
C603   C605    1.389   .     A
C604   C606    1.389   .     A
C604   C620    1.415   .     S
C605   H630    1.084   .     S
C605   C607    1.390   .     A
C606   H631    1.084   .     S
C606   C608    1.390   .     A
C607   C609    1.419   .     A
C607   C614    1.411   .     A
C608   C610    1.419   .     A
C608   C615    1.411   .     A
C609   C611    1.413   .     A
C610   C613    1.413   .     A
C610   C159    1.391   1_556 S
C611   C622    1.383   .     A
C611   C617    1.397   .     A
C612   O644    1.287   .     A
C612   C619    1.401   .     S
C612   O642    1.278   .     A
C613   C616    1.397   .     A
C614   N639    1.439   .     S
C615   N640    1.438   .     S
C615   C167    1.397   1_556 S
C616   H632    1.085   .     S
C616   C164    1.397   1_556 S
C617   H633    1.084   .     S
C618   C769    1.335   .     S
C618   H784    1.088   .     S
C620   O645    1.286   .     A
C620   O647    1.286   .     A
C621   O648    1.286   .     A
C621   O646    1.286   .     A
C622   H623    1.086   .     S
H624   N688    1.029   .     S
H625   N639    1.046   .     S
H627   N640    1.045   .     S
H628   N790    1.046   .     S
H635   C769    1.088   .     S
H636   N737    1.029   1_455 S
N637   Zn650   2.020   .     S
N637   H686    1.029   .     S
N637   N688    1.276   .     S
N638   Zn649   2.020   .     S
N638   H724    1.029   1_455 S
N638   N737    1.276   1_455 S
N639   H776    1.046   .     S
O641   Zn649   1.956   .     S
O642   Zn650   1.956   .     S
O643   Zn650   1.976   .     S
O644   Zn649   1.976   .     S
O645   Zn649   1.989   .     S
O646   Zn650   1.989   .     S
O647   Zn650   2.012   .     S
O648   Zn649   2.012   .     S
C651   C668    1.401   .     S
C651   O691    1.278   .     A
C651   O693    1.287   .     A
C652   C654    1.387   .     A
C652   H679    1.086   .     S
C652   C663    1.383   .     A
C653   C671    1.415   .     S
C653   C672    1.387   .     A
C653   C655    1.389   .     A
C654   C656    1.389   .     A
C654   C670    1.415   .     S
C655   H680    1.084   .     S
C655   C657    1.390   .     A
C656   H681    1.084   .     S
C656   C658    1.390   .     A
C657   C659    1.419   .     A
C657   C664    1.411   .     A
C658   C660    1.419   .     A
C658   C665    1.411   .     A
C659   C661    1.413   .     A
C660   C663    1.413   .     A
C660   C209    1.391   1_556 S
C661   C672    1.383   .     A
C661   C667    1.397   .     A
C662   O694    1.287   .     A
C662   C669    1.401   .     S
C662   O692    1.278   .     A
C663   C666    1.397   .     A
C664   N689    1.439   .     S
C665   N690    1.438   .     S
C665   C217    1.397   1_556 S
C666   H682    1.085   .     S
C666   C214    1.397   1_556 S
C667   H683    1.084   .     S
C668   C819    1.335   .     S
C668   H834    1.088   .     S
C670   O695    1.286   .     A
C670   O697    1.286   .     A
C671   O698    1.286   .     A
C671   O696    1.286   .     A
C672   H673    1.086   .     S
H674   N738    1.029   .     S
H675   N689    1.046   .     S
H677   N690    1.045   .     S
H678   N840    1.046   .     S
H685   C819    1.088   .     S
N687   Zn700   2.020   .     S
N687   H736    1.029   .     S
N687   N738    1.276   .     S
N688   Zn699   2.020   .     S
N689   H826    1.046   .     S
O691   Zn699   1.956   .     S
O692   Zn700   1.956   .     S
O693   Zn700   1.976   .     S
O694   Zn699   1.976   .     S
O695   Zn699   1.989   .     S
O696   Zn700   1.989   .     S
O697   Zn700   2.012   .     S
O698   Zn699   2.012   .     S
C701   C718    1.401   .     S
C701   O741    1.278   .     A
C701   O743    1.287   .     A
C702   C704    1.387   .     A
C702   H729    1.086   .     S
C702   C713    1.383   .     A
C703   C721    1.415   .     S
C703   C722    1.387   .     A
C703   C705    1.389   .     A
C704   C706    1.389   .     A
C704   C720    1.415   .     S
C705   H730    1.084   .     S
C705   C707    1.390   .     A
C706   H731    1.084   .     S
C706   C708    1.390   .     A
C707   C709    1.419   .     A
C707   C714    1.411   .     A
C708   C710    1.419   .     A
C708   C715    1.411   .     A
C709   C711    1.413   .     A
C710   C713    1.413   .     A
C710   C259    1.391   1_556 S
C711   C722    1.383   .     A
C711   C717    1.397   .     A
C712   O744    1.287   .     A
C712   C719    1.401   .     S
C712   O742    1.278   .     A
C713   C716    1.397   .     A
C714   N739    1.439   .     S
C715   N740    1.438   .     S
C715   C267    1.397   1_556 S
C716   H732    1.085   .     S
C716   C264    1.397   1_556 S
C717   H733    1.084   .     S
C718   C869    1.335   .     S
C718   H884    1.088   .     S
C720   O745    1.286   .     A
C720   O747    1.286   .     A
C721   O748    1.286   .     A
C721   O746    1.286   .     A
C722   H723    1.086   .     S
H724   N638    1.029   1_655 S
H725   N739    1.046   .     S
H727   N740    1.045   .     S
H728   N890    1.046   .     S
H735   C869    1.088   .     S
N737   Zn750   2.020   .     S
N737   H636    1.029   1_655 S
N737   N638    1.276   1_655 S
N738   Zn749   2.020   .     S
N739   H876    1.046   .     S
O741   Zn749   1.956   .     S
O742   Zn750   1.956   .     S
O743   Zn750   1.976   .     S
O744   Zn749   1.976   .     S
O745   Zn749   1.989   .     S
O746   Zn750   1.989   .     S
O747   Zn750   2.012   .     S
O748   Zn749   2.012   .     S
C751   C768    1.401   .     S
C751   O791    1.278   .     A
C751   O793    1.287   .     A
C752   C754    1.387   .     A
C752   H779    1.086   .     S
C752   C763    1.383   .     A
C753   C771    1.415   .     S
C753   C772    1.387   .     A
C753   C755    1.389   .     A
C754   C756    1.389   .     A
C754   C770    1.415   .     S
C755   H780    1.084   .     S
C755   C757    1.390   .     A
C756   H781    1.084   .     S
C756   C758    1.390   .     A
C757   C759    1.419   .     A
C757   C764    1.411   .     A
C758   C760    1.419   .     A
C758   C765    1.411   .     A
C759   C761    1.413   .     A
C760   C763    1.413   .     A
C760   C309    1.391   1_556 S
C761   C772    1.383   .     A
C761   C767    1.397   .     A
C762   O794    1.287   .     A
C762   C769    1.401   .     S
C762   O792    1.278   .     A
C763   C766    1.397   .     A
C764   N789    1.439   .     S
C765   N790    1.438   .     S
C765   C317    1.397   1_556 S
C766   H782    1.085   .     S
C766   C314    1.397   1_556 S
C767   H783    1.084   .     S
C768   C469    1.335   1_565 S
C768   H484    1.088   1_565 S
C770   O795    1.286   .     A
C770   O797    1.286   .     A
C771   O798    1.286   .     A
C771   O796    1.286   .     A
C772   H773    1.086   .     S
H774   N838    1.029   .     S
H775   N789    1.046   .     S
H777   N790    1.045   .     S
H778   N490    1.046   1_565 S
H785   C469    1.088   1_565 S
H786   N887    1.029   1_455 S
N787   Zn800   2.020   .     S
N787   H836    1.029   .     S
N787   N838    1.276   .     S
N788   Zn799   2.020   .     S
N788   H874    1.029   1_455 S
N788   N887    1.276   1_455 S
N789   H476    1.046   1_565 S
O791   Zn799   1.956   .     S
O792   Zn800   1.956   .     S
O793   Zn800   1.976   .     S
O794   Zn799   1.976   .     S
O795   Zn799   1.989   .     S
O796   Zn800   1.989   .     S
O797   Zn800   2.012   .     S
O798   Zn799   2.012   .     S
C801   C818    1.401   .     S
C801   O841    1.278   .     A
C801   O843    1.287   .     A
C802   C804    1.387   .     A
C802   H829    1.086   .     S
C802   C813    1.383   .     A
C803   C821    1.415   .     S
C803   C822    1.387   .     A
C803   C805    1.389   .     A
C804   C806    1.389   .     A
C804   C820    1.415   .     S
C805   H830    1.084   .     S
C805   C807    1.390   .     A
C806   H831    1.084   .     S
C806   C808    1.390   .     A
C807   C809    1.419   .     A
C807   C814    1.411   .     A
C808   C810    1.419   .     A
C808   C815    1.411   .     A
C809   C811    1.413   .     A
C810   C813    1.413   .     A
C810   C359    1.391   1_556 S
C811   C822    1.383   .     A
C811   C817    1.397   .     A
C812   O844    1.287   .     A
C812   C819    1.401   .     S
C812   O842    1.278   .     A
C813   C816    1.397   .     A
C814   N839    1.439   .     S
C815   N840    1.438   .     S
C815   C367    1.397   1_556 S
C816   H832    1.085   .     S
C816   C364    1.397   1_556 S
C817   H833    1.084   .     S
C818   C519    1.335   1_565 S
C818   H534    1.088   1_565 S
C820   O845    1.286   .     A
C820   O847    1.286   .     A
C821   O848    1.286   .     A
C821   O846    1.286   .     A
C822   H823    1.086   .     S
H824   N888    1.029   .     S
H825   N839    1.046   .     S
H827   N840    1.045   .     S
H828   N540    1.046   1_565 S
H835   C519    1.088   1_565 S
N837   Zn850   2.020   .     S
N837   H886    1.029   .     S
N837   N888    1.276   .     S
N838   Zn849   2.020   .     S
N839   H526    1.046   1_565 S
O841   Zn849   1.956   .     S
O842   Zn850   1.956   .     S
O843   Zn850   1.976   .     S
O844   Zn849   1.976   .     S
O845   Zn849   1.989   .     S
O846   Zn850   1.989   .     S
O847   Zn850   2.012   .     S
O848   Zn849   2.012   .     S
C851   C868    1.401   .     S
C851   O891    1.278   .     A
C851   O893    1.287   .     A
C852   C854    1.387   .     A
C852   H879    1.086   .     S
C852   C863    1.383   .     A
C853   C871    1.415   .     S
C853   C872    1.387   .     A
C853   C855    1.389   .     A
C854   C856    1.389   .     A
C854   C870    1.415   .     S
C855   H880    1.084   .     S
C855   C857    1.390   .     A
C856   H881    1.084   .     S
C856   C858    1.390   .     A
C857   C859    1.419   .     A
C857   C864    1.411   .     A
C858   C860    1.419   .     A
C858   C865    1.411   .     A
C859   C861    1.413   .     A
C860   C863    1.413   .     A
C860   C409    1.391   1_556 S
C861   C872    1.383   .     A
C861   C867    1.397   .     A
C862   O894    1.287   .     A
C862   C869    1.401   .     S
C862   O892    1.278   .     A
C863   C866    1.397   .     A
C864   N889    1.439   .     S
C865   N890    1.438   .     S
C865   C417    1.397   1_556 S
C866   H882    1.085   .     S
C866   C414    1.397   1_556 S
C867   H883    1.084   .     S
C868   C569    1.335   1_565 S
C868   H584    1.088   1_565 S
C870   O895    1.286   .     A
C870   O897    1.286   .     A
C871   O898    1.286   .     A
C871   O896    1.286   .     A
C872   H873    1.086   .     S
H874   N788    1.029   1_655 S
H875   N889    1.046   .     S
H877   N890    1.045   .     S
H878   N590    1.046   1_565 S
H885   C569    1.088   1_565 S
N887   Zn900   2.020   .     S
N887   H786    1.029   1_655 S
N887   N788    1.276   1_655 S
N888   Zn899   2.020   .     S
N889   H576    1.046   1_565 S
O891   Zn899   1.956   .     S
O892   Zn900   1.956   .     S
O893   Zn900   1.976   .     S
O894   Zn899   1.976   .     S
O895   Zn899   1.989   .     S
O896   Zn900   1.989   .     S
O897   Zn900   2.012   .     S
O898   Zn899   2.012   .     S
