data_str_m3_o1_o18_pcu_sym.30
_audit_creation_date              2020-01-03
_audit_creation_method            'Materials Studio'
_symmetry_space_group_name_H-M    'P1'
_symmetry_Int_Tables_number       1
_symmetry_cell_setting            triclinic
loop_
_symmetry_equiv_pos_as_xyz
  x,y,z
_cell_length_a                    30.2308
_cell_length_b                    32.1418
_cell_length_c                    30.6994
_cell_angle_alpha                 89.2361
_cell_angle_beta                  67.4031
_cell_angle_gamma                 88.2942
loop_
_atom_site_label
_atom_site_type_symbol
_atom_site_fract_x
_atom_site_fract_y
_atom_site_fract_z
_atom_site_U_iso_or_equiv
_atom_site_adp_type
_atom_site_occupancy
Br1    Br    0.04262   0.19907   0.07526   0.00000  Uiso   1.00
Br2    Br    0.31857   0.18759   0.41293   0.00000  Uiso   1.00
Br3    Br    0.12671   0.21935   0.12128   0.00000  Uiso   1.00
Br4    Br    0.16836   0.24029   0.38459   0.00000  Uiso   1.00
Br5    Br    0.22399   0.04337   0.31179   0.00000  Uiso   1.00
Br6    Br    0.09396   0.29339   0.20529   0.00000  Uiso   1.00
C7     C     0.16600   0.24652   0.24998   0.00000  Uiso   1.00
C8     C     0.13652   0.31460   0.23202   0.00000  Uiso   1.00
C9     C     0.16687   0.04278   0.25250   0.00000  Uiso   1.00
C10    C     0.16414   0.29091   0.25166   0.00000  Uiso   1.00
C11    C     0.31927   0.13548   0.22873   0.00000  Uiso   1.00
C12    C     0.01370   0.19707   0.27268   0.00000  Uiso   1.00
C13    C     0.03348   0.13598   0.22819   0.00000  Uiso   1.00
C14    C     0.29983   0.19725   0.27211   0.00000  Uiso   1.00
C15    C     0.13630   0.16622   0.33791   0.00000  Uiso   1.00
C16    C     0.19699   0.16807   0.16162   0.00000  Uiso   1.00
C17    C     0.11702   0.16448   0.38942   0.00000  Uiso   1.00
C18    C     0.16669   0.08697   0.25143   0.00000  Uiso   1.00
C19    C     0.21535   0.17386   0.10956   0.00000  Uiso   1.00
C20    C     0.06788   0.13302   0.46471   0.00000  Uiso   1.00
C21    C     0.27843   0.18081   0.03114   0.00000  Uiso   1.00
C22    C     0.08301   0.13490   0.41505   0.00000  Uiso   1.00
C23    C     0.26378   0.16825   0.07918   0.00000  Uiso   1.00
C24    C     0.13886   0.18859   0.41253   0.00000  Uiso   1.00
C25    C     0.18287   0.18483   0.08887   0.00000  Uiso   1.00
C26    C     0.13347   0.17769   0.45842   0.00000  Uiso   1.00
C27    C     0.19607   0.17844   0.04059   0.00000  Uiso   1.00
C28    C     0.09174   0.15684   0.48708   0.00000  Uiso   1.00
C29    C     0.11884   0.15199   0.04990   0.00000  Uiso   1.00
C30    C     0.24430   0.18194   0.01030   0.00000  Uiso   1.00
C31    C     0.17074   0.18147   0.47495   0.00000  Uiso   1.00
C32    C     0.16163   0.17112   0.02216   0.00000  Uiso   1.00
C33    C     0.29366   0.14032   0.09360   0.00000  Uiso   1.00
C34    C     0.06495   0.10581   0.39047   0.00000  Uiso   1.00
C35    C     0.03294   0.10274   0.49088   0.00000  Uiso   1.00
C36    C     0.32044   0.20534   0.00934   0.00000  Uiso   1.00
C37    C     0.30661   0.10012   0.20828   0.00000  Uiso   1.00
C38    C     0.02496   0.22913   0.29866   0.00000  Uiso   1.00
C39    C     0.21846   0.18802   0.44450   0.00000  Uiso   1.00
C40    C     0.08087   0.15473   0.03596   0.00000  Uiso   1.00
C41    C     0.25533   0.18666   0.46115   0.00000  Uiso   1.00
C42    C     0.19112   0.31014   0.27355   0.00000  Uiso   1.00
C43    C     0.13941   0.02363   0.23140   0.00000  Uiso   1.00
C44    C     0.19181   0.01953   0.27518   0.00000  Uiso   1.00
H45    H     0.11183   0.14267   0.08597   0.00000  Uiso   1.00
H46    H     0.22853   0.18971   0.40678   0.00000  Uiso   1.00
H47    H     0.21089   0.29196   0.29039   0.00000  Uiso   1.00
H48    H     0.11964   0.04172   0.21445   0.00000  Uiso   1.00
H49    H     0.05890   0.11112   0.21082   0.00000  Uiso   1.00
H50    H     0.27422   0.22177   0.29015   0.00000  Uiso   1.00
N51    N     0.04759   0.16668   0.25001   0.00000  Uiso   1.00
N52    N     0.28574   0.16666   0.24999   0.00000  Uiso   1.00
N53    N     0.31706   0.11720   0.10526   0.00000  Uiso   1.00
N54    N     0.05061   0.08261   0.37083   0.00000  Uiso   1.00
N55    N     0.00529   0.07805   0.01095   0.00000  Uiso   1.00
N56    N     0.01962   0.22632   0.49100   0.00000  Uiso   1.00
N57    N     0.29697   0.07112   0.19211   0.00000  Uiso   1.00
N58    N     0.03366   0.25503   0.31975   0.00000  Uiso   1.00
O59    O     0.12846   0.22775   0.25000   0.00000  Uiso   1.00
O60    O     0.20488   0.10558   0.24999   0.00000  Uiso   1.00
O61    O     0.20490   0.22774   0.25000   0.00000  Uiso   1.00
O62    O     0.12843   0.10559   0.25000   0.00000  Uiso   1.00
O63    O     0.10661   0.16667   0.31612   0.00000  Uiso   1.00
O64    O     0.22672   0.16666   0.18387   0.00000  Uiso   1.00
O65    O     0.18305   0.16666   0.31612   0.00000  Uiso   1.00
O66    O     0.15028   0.16667   0.18388   0.00000  Uiso   1.00
Zn67   Zn    0.11562   0.16667   0.25000   0.00000  Uiso   1.00
Zn68   Zn    0.21771   0.16666   0.25000   0.00000  Uiso   1.00
Br69   Br    0.37595   0.19907   0.07526   0.00000  Uiso   1.00
Br70   Br    0.65191   0.18759   0.41293   0.00000  Uiso   1.00
Br71   Br    0.46005   0.21935   0.12128   0.00000  Uiso   1.00
Br72   Br    0.50169   0.24029   0.38459   0.00000  Uiso   1.00
Br73   Br    0.55733   0.04337   0.31179   0.00000  Uiso   1.00
Br74   Br    0.42729   0.29339   0.20529   0.00000  Uiso   1.00
C75    C     0.49933   0.24652   0.24998   0.00000  Uiso   1.00
C76    C     0.46985   0.31460   0.23202   0.00000  Uiso   1.00
C77    C     0.50020   0.04278   0.25250   0.00000  Uiso   1.00
C78    C     0.49747   0.29091   0.25166   0.00000  Uiso   1.00
C79    C     0.65260   0.13548   0.22873   0.00000  Uiso   1.00
C80    C     0.34703   0.19707   0.27268   0.00000  Uiso   1.00
C81    C     0.36681   0.13598   0.22819   0.00000  Uiso   1.00
C82    C     0.63316   0.19725   0.27211   0.00000  Uiso   1.00
C83    C     0.46963   0.16622   0.33791   0.00000  Uiso   1.00
C84    C     0.53032   0.16807   0.16162   0.00000  Uiso   1.00
C85    C     0.45035   0.16448   0.38942   0.00000  Uiso   1.00
C86    C     0.50002   0.08697   0.25143   0.00000  Uiso   1.00
C87    C     0.54869   0.17386   0.10956   0.00000  Uiso   1.00
C88    C     0.40122   0.13302   0.46471   0.00000  Uiso   1.00
C89    C     0.61176   0.18081   0.03114   0.00000  Uiso   1.00
C90    C     0.41635   0.13490   0.41505   0.00000  Uiso   1.00
C91    C     0.59712   0.16825   0.07918   0.00000  Uiso   1.00
C92    C     0.47219   0.18859   0.41253   0.00000  Uiso   1.00
C93    C     0.51621   0.18483   0.08887   0.00000  Uiso   1.00
C94    C     0.46680   0.17769   0.45842   0.00000  Uiso   1.00
C95    C     0.52941   0.17844   0.04059   0.00000  Uiso   1.00
C96    C     0.42508   0.15684   0.48708   0.00000  Uiso   1.00
C97    C     0.45218   0.15199   0.04990   0.00000  Uiso   1.00
C98    C     0.57763   0.18194   0.01030   0.00000  Uiso   1.00
C99    C     0.50408   0.18147   0.47495   0.00000  Uiso   1.00
C100   C     0.49497   0.17112   0.02216   0.00000  Uiso   1.00
C101   C     0.62699   0.14032   0.09360   0.00000  Uiso   1.00
C102   C     0.39829   0.10581   0.39047   0.00000  Uiso   1.00
C103   C     0.36628   0.10274   0.49088   0.00000  Uiso   1.00
C104   C     0.65377   0.20534   0.00934   0.00000  Uiso   1.00
C105   C     0.63995   0.10012   0.20828   0.00000  Uiso   1.00
C106   C     0.35829   0.22913   0.29866   0.00000  Uiso   1.00
C107   C     0.55180   0.18802   0.44450   0.00000  Uiso   1.00
C108   C     0.41420   0.15473   0.03596   0.00000  Uiso   1.00
C109   C     0.58866   0.18666   0.46115   0.00000  Uiso   1.00
C110   C     0.52446   0.31014   0.27355   0.00000  Uiso   1.00
C111   C     0.47274   0.02363   0.23140   0.00000  Uiso   1.00
C112   C     0.52514   0.01953   0.27518   0.00000  Uiso   1.00
H113   H     0.44516   0.14267   0.08597   0.00000  Uiso   1.00
H114   H     0.56186   0.18971   0.40678   0.00000  Uiso   1.00
H115   H     0.54422   0.29196   0.29039   0.00000  Uiso   1.00
H116   H     0.45297   0.04172   0.21445   0.00000  Uiso   1.00
H117   H     0.39223   0.11112   0.21082   0.00000  Uiso   1.00
H118   H     0.60756   0.22177   0.29015   0.00000  Uiso   1.00
N119   N     0.38093   0.16668   0.25001   0.00000  Uiso   1.00
N120   N     0.61907   0.16666   0.24999   0.00000  Uiso   1.00
N121   N     0.65040   0.11720   0.10526   0.00000  Uiso   1.00
N122   N     0.38395   0.08261   0.37083   0.00000  Uiso   1.00
N123   N     0.33862   0.07805   0.01095   0.00000  Uiso   1.00
N124   N     0.35295   0.22632   0.49100   0.00000  Uiso   1.00
N125   N     0.63030   0.07112   0.19211   0.00000  Uiso   1.00
N126   N     0.36699   0.25503   0.31975   0.00000  Uiso   1.00
O127   O     0.46179   0.22775   0.25000   0.00000  Uiso   1.00
O128   O     0.53821   0.10558   0.24999   0.00000  Uiso   1.00
O129   O     0.53823   0.22774   0.25000   0.00000  Uiso   1.00
O130   O     0.46177   0.10559   0.25000   0.00000  Uiso   1.00
O131   O     0.43994   0.16667   0.31612   0.00000  Uiso   1.00
O132   O     0.56006   0.16666   0.18387   0.00000  Uiso   1.00
O133   O     0.51639   0.16666   0.31612   0.00000  Uiso   1.00
O134   O     0.48361   0.16667   0.18388   0.00000  Uiso   1.00
Zn135  Zn    0.44896   0.16667   0.25000   0.00000  Uiso   1.00
Zn136  Zn    0.55104   0.16666   0.25000   0.00000  Uiso   1.00
Br137  Br    0.70929   0.19907   0.07526   0.00000  Uiso   1.00
Br138  Br    0.98524   0.18759   0.41293   0.00000  Uiso   1.00
Br139  Br    0.79338   0.21935   0.12128   0.00000  Uiso   1.00
Br140  Br    0.83502   0.24029   0.38459   0.00000  Uiso   1.00
Br141  Br    0.89066   0.04337   0.31179   0.00000  Uiso   1.00
Br142  Br    0.76063   0.29339   0.20529   0.00000  Uiso   1.00
C143   C     0.83267   0.24652   0.24998   0.00000  Uiso   1.00
C144   C     0.80319   0.31460   0.23202   0.00000  Uiso   1.00
C145   C     0.83354   0.04278   0.25250   0.00000  Uiso   1.00
C146   C     0.83081   0.29091   0.25166   0.00000  Uiso   1.00
C147   C     0.98594   0.13548   0.22873   0.00000  Uiso   1.00
C148   C     0.68036   0.19707   0.27268   0.00000  Uiso   1.00
C149   C     0.70014   0.13598   0.22819   0.00000  Uiso   1.00
C150   C     0.96649   0.19725   0.27211   0.00000  Uiso   1.00
C151   C     0.80297   0.16622   0.33791   0.00000  Uiso   1.00
C152   C     0.86365   0.16807   0.16162   0.00000  Uiso   1.00
C153   C     0.78369   0.16448   0.38942   0.00000  Uiso   1.00
C154   C     0.83336   0.08697   0.25143   0.00000  Uiso   1.00
C155   C     0.88202   0.17386   0.10956   0.00000  Uiso   1.00
C156   C     0.73455   0.13302   0.46471   0.00000  Uiso   1.00
C157   C     0.94510   0.18081   0.03114   0.00000  Uiso   1.00
C158   C     0.74968   0.13490   0.41505   0.00000  Uiso   1.00
C159   C     0.93045   0.16825   0.07918   0.00000  Uiso   1.00
C160   C     0.80552   0.18859   0.41253   0.00000  Uiso   1.00
C161   C     0.84954   0.18483   0.08887   0.00000  Uiso   1.00
C162   C     0.80014   0.17769   0.45842   0.00000  Uiso   1.00
C163   C     0.86274   0.17844   0.04059   0.00000  Uiso   1.00
C164   C     0.75841   0.15684   0.48708   0.00000  Uiso   1.00
C165   C     0.78551   0.15199   0.04990   0.00000  Uiso   1.00
C166   C     0.91096   0.18194   0.01030   0.00000  Uiso   1.00
C167   C     0.83741   0.18147   0.47495   0.00000  Uiso   1.00
C168   C     0.82830   0.17112   0.02216   0.00000  Uiso   1.00
C169   C     0.96033   0.14032   0.09360   0.00000  Uiso   1.00
C170   C     0.73162   0.10581   0.39047   0.00000  Uiso   1.00
C171   C     0.69961   0.10274   0.49088   0.00000  Uiso   1.00
C172   C     0.98711   0.20534   0.00934   0.00000  Uiso   1.00
C173   C     0.97328   0.10012   0.20828   0.00000  Uiso   1.00
C174   C     0.69162   0.22913   0.29866   0.00000  Uiso   1.00
C175   C     0.88513   0.18802   0.44450   0.00000  Uiso   1.00
C176   C     0.74753   0.15473   0.03596   0.00000  Uiso   1.00
C177   C     0.92200   0.18666   0.46115   0.00000  Uiso   1.00
C178   C     0.85779   0.31014   0.27355   0.00000  Uiso   1.00
C179   C     0.80608   0.02363   0.23140   0.00000  Uiso   1.00
C180   C     0.85848   0.01953   0.27518   0.00000  Uiso   1.00
H181   H     0.77850   0.14267   0.08597   0.00000  Uiso   1.00
H182   H     0.89519   0.18971   0.40678   0.00000  Uiso   1.00
H183   H     0.87755   0.29196   0.29039   0.00000  Uiso   1.00
H184   H     0.78630   0.04172   0.21445   0.00000  Uiso   1.00
H185   H     0.72557   0.11112   0.21082   0.00000  Uiso   1.00
H186   H     0.94089   0.22177   0.29015   0.00000  Uiso   1.00
N187   N     0.71426   0.16668   0.25001   0.00000  Uiso   1.00
N188   N     0.95241   0.16666   0.24999   0.00000  Uiso   1.00
N189   N     0.98373   0.11720   0.10526   0.00000  Uiso   1.00
N190   N     0.71728   0.08261   0.37083   0.00000  Uiso   1.00
N191   N     0.67195   0.07805   0.01095   0.00000  Uiso   1.00
N192   N     0.68629   0.22632   0.49100   0.00000  Uiso   1.00
N193   N     0.96364   0.07112   0.19211   0.00000  Uiso   1.00
N194   N     0.70033   0.25503   0.31975   0.00000  Uiso   1.00
O195   O     0.79512   0.22775   0.25000   0.00000  Uiso   1.00
O196   O     0.87154   0.10558   0.24999   0.00000  Uiso   1.00
O197   O     0.87157   0.22774   0.25000   0.00000  Uiso   1.00
O198   O     0.79510   0.10559   0.25000   0.00000  Uiso   1.00
O199   O     0.77328   0.16667   0.31612   0.00000  Uiso   1.00
O200   O     0.89339   0.16666   0.18387   0.00000  Uiso   1.00
O201   O     0.84972   0.16666   0.31612   0.00000  Uiso   1.00
O202   O     0.81695   0.16667   0.18388   0.00000  Uiso   1.00
Zn203  Zn    0.78229   0.16667   0.25000   0.00000  Uiso   1.00
Zn204  Zn    0.88438   0.16666   0.25000   0.00000  Uiso   1.00
Br205  Br    0.04262   0.53241   0.07526   0.00000  Uiso   1.00
Br206  Br    0.31857   0.52093   0.41293   0.00000  Uiso   1.00
Br207  Br    0.12671   0.55268   0.12128   0.00000  Uiso   1.00
Br208  Br    0.16836   0.57362   0.38459   0.00000  Uiso   1.00
Br209  Br    0.22399   0.37671   0.31179   0.00000  Uiso   1.00
Br210  Br    0.09396   0.62672   0.20529   0.00000  Uiso   1.00
C211   C     0.16600   0.57986   0.24998   0.00000  Uiso   1.00
C212   C     0.13652   0.64794   0.23202   0.00000  Uiso   1.00
C213   C     0.16687   0.37612   0.25250   0.00000  Uiso   1.00
C214   C     0.16414   0.62424   0.25166   0.00000  Uiso   1.00
C215   C     0.31927   0.46882   0.22873   0.00000  Uiso   1.00
C216   C     0.01370   0.53041   0.27268   0.00000  Uiso   1.00
C217   C     0.03348   0.46931   0.22819   0.00000  Uiso   1.00
C218   C     0.29983   0.53058   0.27211   0.00000  Uiso   1.00
C219   C     0.13630   0.49955   0.33791   0.00000  Uiso   1.00
C220   C     0.19699   0.50141   0.16162   0.00000  Uiso   1.00
C221   C     0.11702   0.49781   0.38942   0.00000  Uiso   1.00
C222   C     0.16669   0.42030   0.25143   0.00000  Uiso   1.00
C223   C     0.21535   0.50719   0.10956   0.00000  Uiso   1.00
C224   C     0.06788   0.46636   0.46471   0.00000  Uiso   1.00
C225   C     0.27843   0.51414   0.03114   0.00000  Uiso   1.00
C226   C     0.08301   0.46823   0.41505   0.00000  Uiso   1.00
C227   C     0.26378   0.50159   0.07918   0.00000  Uiso   1.00
C228   C     0.13886   0.52192   0.41253   0.00000  Uiso   1.00
C229   C     0.18287   0.51816   0.08887   0.00000  Uiso   1.00
C230   C     0.13347   0.51103   0.45842   0.00000  Uiso   1.00
C231   C     0.19607   0.51177   0.04059   0.00000  Uiso   1.00
C232   C     0.09174   0.49017   0.48708   0.00000  Uiso   1.00
C233   C     0.11884   0.48532   0.04990   0.00000  Uiso   1.00
C234   C     0.24430   0.51527   0.01030   0.00000  Uiso   1.00
C235   C     0.17074   0.51480   0.47495   0.00000  Uiso   1.00
C236   C     0.16163   0.50445   0.02216   0.00000  Uiso   1.00
C237   C     0.29366   0.47365   0.09360   0.00000  Uiso   1.00
C238   C     0.06495   0.43914   0.39047   0.00000  Uiso   1.00
C239   C     0.03294   0.43608   0.49088   0.00000  Uiso   1.00
C240   C     0.32044   0.53867   0.00934   0.00000  Uiso   1.00
C241   C     0.30661   0.43345   0.20828   0.00000  Uiso   1.00
C242   C     0.02496   0.56246   0.29866   0.00000  Uiso   1.00
C243   C     0.21846   0.52135   0.44450   0.00000  Uiso   1.00
C244   C     0.08087   0.48807   0.03596   0.00000  Uiso   1.00
C245   C     0.25533   0.52000   0.46115   0.00000  Uiso   1.00
C246   C     0.19112   0.64347   0.27355   0.00000  Uiso   1.00
C247   C     0.13941   0.35696   0.23140   0.00000  Uiso   1.00
C248   C     0.19181   0.35286   0.27518   0.00000  Uiso   1.00
H249   H     0.11183   0.47600   0.08597   0.00000  Uiso   1.00
H250   H     0.22853   0.52304   0.40678   0.00000  Uiso   1.00
H251   H     0.21089   0.62529   0.29039   0.00000  Uiso   1.00
H252   H     0.11964   0.37506   0.21445   0.00000  Uiso   1.00
H253   H     0.05890   0.44446   0.21082   0.00000  Uiso   1.00
H254   H     0.27422   0.55510   0.29015   0.00000  Uiso   1.00
N255   N     0.04759   0.50001   0.25001   0.00000  Uiso   1.00
N256   N     0.28574   0.49999   0.24999   0.00000  Uiso   1.00
N257   N     0.31706   0.45054   0.10526   0.00000  Uiso   1.00
N258   N     0.05061   0.41595   0.37083   0.00000  Uiso   1.00
N259   N     0.00529   0.41139   0.01095   0.00000  Uiso   1.00
N260   N     0.01962   0.55966   0.49100   0.00000  Uiso   1.00
N261   N     0.29697   0.40445   0.19211   0.00000  Uiso   1.00
N262   N     0.03366   0.58836   0.31975   0.00000  Uiso   1.00
O263   O     0.12846   0.56108   0.25000   0.00000  Uiso   1.00
O264   O     0.20488   0.43892   0.24999   0.00000  Uiso   1.00
O265   O     0.20490   0.56107   0.25000   0.00000  Uiso   1.00
O266   O     0.12843   0.43893   0.25000   0.00000  Uiso   1.00
O267   O     0.10661   0.50001   0.31612   0.00000  Uiso   1.00
O268   O     0.22672   0.49999   0.18387   0.00000  Uiso   1.00
O269   O     0.18305   0.50000   0.31612   0.00000  Uiso   1.00
O270   O     0.15028   0.50000   0.18388   0.00000  Uiso   1.00
Zn271  Zn    0.11562   0.50001   0.25000   0.00000  Uiso   1.00
Zn272  Zn    0.21771   0.49999   0.25000   0.00000  Uiso   1.00
Br273  Br    0.37595   0.53241   0.07526   0.00000  Uiso   1.00
Br274  Br    0.65191   0.52093   0.41293   0.00000  Uiso   1.00
Br275  Br    0.46005   0.55268   0.12128   0.00000  Uiso   1.00
Br276  Br    0.50169   0.57362   0.38459   0.00000  Uiso   1.00
Br277  Br    0.55733   0.37671   0.31179   0.00000  Uiso   1.00
Br278  Br    0.42729   0.62672   0.20529   0.00000  Uiso   1.00
C279   C     0.49933   0.57986   0.24998   0.00000  Uiso   1.00
C280   C     0.46985   0.64794   0.23202   0.00000  Uiso   1.00
C281   C     0.50020   0.37612   0.25250   0.00000  Uiso   1.00
C282   C     0.49747   0.62424   0.25166   0.00000  Uiso   1.00
C283   C     0.65260   0.46882   0.22873   0.00000  Uiso   1.00
C284   C     0.34703   0.53041   0.27268   0.00000  Uiso   1.00
C285   C     0.36681   0.46931   0.22819   0.00000  Uiso   1.00
C286   C     0.63316   0.53058   0.27211   0.00000  Uiso   1.00
C287   C     0.46963   0.49955   0.33791   0.00000  Uiso   1.00
C288   C     0.53032   0.50141   0.16162   0.00000  Uiso   1.00
C289   C     0.45035   0.49781   0.38942   0.00000  Uiso   1.00
C290   C     0.50002   0.42030   0.25143   0.00000  Uiso   1.00
C291   C     0.54869   0.50719   0.10956   0.00000  Uiso   1.00
C292   C     0.40122   0.46636   0.46471   0.00000  Uiso   1.00
C293   C     0.61176   0.51414   0.03114   0.00000  Uiso   1.00
C294   C     0.41635   0.46823   0.41505   0.00000  Uiso   1.00
C295   C     0.59712   0.50159   0.07918   0.00000  Uiso   1.00
C296   C     0.47219   0.52192   0.41253   0.00000  Uiso   1.00
C297   C     0.51621   0.51816   0.08887   0.00000  Uiso   1.00
C298   C     0.46680   0.51103   0.45842   0.00000  Uiso   1.00
C299   C     0.52941   0.51177   0.04059   0.00000  Uiso   1.00
C300   C     0.42508   0.49017   0.48708   0.00000  Uiso   1.00
C301   C     0.45218   0.48532   0.04990   0.00000  Uiso   1.00
C302   C     0.57763   0.51527   0.01030   0.00000  Uiso   1.00
C303   C     0.50408   0.51480   0.47495   0.00000  Uiso   1.00
C304   C     0.49497   0.50445   0.02216   0.00000  Uiso   1.00
C305   C     0.62699   0.47365   0.09360   0.00000  Uiso   1.00
C306   C     0.39829   0.43914   0.39047   0.00000  Uiso   1.00
C307   C     0.36628   0.43608   0.49088   0.00000  Uiso   1.00
C308   C     0.65377   0.53867   0.00934   0.00000  Uiso   1.00
C309   C     0.63995   0.43345   0.20828   0.00000  Uiso   1.00
C310   C     0.35829   0.56246   0.29866   0.00000  Uiso   1.00
C311   C     0.55180   0.52135   0.44450   0.00000  Uiso   1.00
C312   C     0.41420   0.48807   0.03596   0.00000  Uiso   1.00
C313   C     0.58866   0.52000   0.46115   0.00000  Uiso   1.00
C314   C     0.52446   0.64347   0.27355   0.00000  Uiso   1.00
C315   C     0.47274   0.35696   0.23140   0.00000  Uiso   1.00
C316   C     0.52514   0.35286   0.27518   0.00000  Uiso   1.00
H317   H     0.44516   0.47600   0.08597   0.00000  Uiso   1.00
H318   H     0.56186   0.52304   0.40678   0.00000  Uiso   1.00
H319   H     0.54422   0.62529   0.29039   0.00000  Uiso   1.00
H320   H     0.45297   0.37506   0.21445   0.00000  Uiso   1.00
H321   H     0.39223   0.44446   0.21082   0.00000  Uiso   1.00
H322   H     0.60756   0.55510   0.29015   0.00000  Uiso   1.00
N323   N     0.38093   0.50001   0.25001   0.00000  Uiso   1.00
N324   N     0.61907   0.49999   0.24999   0.00000  Uiso   1.00
N325   N     0.65040   0.45054   0.10526   0.00000  Uiso   1.00
N326   N     0.38395   0.41595   0.37083   0.00000  Uiso   1.00
N327   N     0.33862   0.41139   0.01095   0.00000  Uiso   1.00
N328   N     0.35295   0.55966   0.49100   0.00000  Uiso   1.00
N329   N     0.63030   0.40445   0.19211   0.00000  Uiso   1.00
N330   N     0.36699   0.58836   0.31975   0.00000  Uiso   1.00
O331   O     0.46179   0.56108   0.25000   0.00000  Uiso   1.00
O332   O     0.53821   0.43892   0.24999   0.00000  Uiso   1.00
O333   O     0.53823   0.56107   0.25000   0.00000  Uiso   1.00
O334   O     0.46177   0.43893   0.25000   0.00000  Uiso   1.00
O335   O     0.43994   0.50001   0.31612   0.00000  Uiso   1.00
O336   O     0.56006   0.49999   0.18387   0.00000  Uiso   1.00
O337   O     0.51639   0.50000   0.31612   0.00000  Uiso   1.00
O338   O     0.48361   0.50000   0.18388   0.00000  Uiso   1.00
Zn339  Zn    0.44896   0.50001   0.25000   0.00000  Uiso   1.00
Zn340  Zn    0.55104   0.49999   0.25000   0.00000  Uiso   1.00
Br341  Br    0.70929   0.53241   0.07526   0.00000  Uiso   1.00
Br342  Br    0.98524   0.52093   0.41293   0.00000  Uiso   1.00
Br343  Br    0.79338   0.55268   0.12128   0.00000  Uiso   1.00
Br344  Br    0.83502   0.57362   0.38459   0.00000  Uiso   1.00
Br345  Br    0.89066   0.37671   0.31179   0.00000  Uiso   1.00
Br346  Br    0.76063   0.62672   0.20529   0.00000  Uiso   1.00
C347   C     0.83267   0.57986   0.24998   0.00000  Uiso   1.00
C348   C     0.80319   0.64794   0.23202   0.00000  Uiso   1.00
C349   C     0.83354   0.37612   0.25250   0.00000  Uiso   1.00
C350   C     0.83081   0.62424   0.25166   0.00000  Uiso   1.00
C351   C     0.98594   0.46882   0.22873   0.00000  Uiso   1.00
C352   C     0.68036   0.53041   0.27268   0.00000  Uiso   1.00
C353   C     0.70014   0.46931   0.22819   0.00000  Uiso   1.00
C354   C     0.96649   0.53058   0.27211   0.00000  Uiso   1.00
C355   C     0.80297   0.49955   0.33791   0.00000  Uiso   1.00
C356   C     0.86365   0.50141   0.16162   0.00000  Uiso   1.00
C357   C     0.78369   0.49781   0.38942   0.00000  Uiso   1.00
C358   C     0.83336   0.42030   0.25143   0.00000  Uiso   1.00
C359   C     0.88202   0.50719   0.10956   0.00000  Uiso   1.00
C360   C     0.73455   0.46636   0.46471   0.00000  Uiso   1.00
C361   C     0.94510   0.51414   0.03114   0.00000  Uiso   1.00
C362   C     0.74968   0.46823   0.41505   0.00000  Uiso   1.00
C363   C     0.93045   0.50159   0.07918   0.00000  Uiso   1.00
C364   C     0.80552   0.52192   0.41253   0.00000  Uiso   1.00
C365   C     0.84954   0.51816   0.08887   0.00000  Uiso   1.00
C366   C     0.80014   0.51103   0.45842   0.00000  Uiso   1.00
C367   C     0.86274   0.51177   0.04059   0.00000  Uiso   1.00
C368   C     0.75841   0.49017   0.48708   0.00000  Uiso   1.00
C369   C     0.78551   0.48532   0.04990   0.00000  Uiso   1.00
C370   C     0.91096   0.51527   0.01030   0.00000  Uiso   1.00
C371   C     0.83741   0.51480   0.47495   0.00000  Uiso   1.00
C372   C     0.82830   0.50445   0.02216   0.00000  Uiso   1.00
C373   C     0.96033   0.47365   0.09360   0.00000  Uiso   1.00
C374   C     0.73162   0.43914   0.39047   0.00000  Uiso   1.00
C375   C     0.69961   0.43608   0.49088   0.00000  Uiso   1.00
C376   C     0.98711   0.53867   0.00934   0.00000  Uiso   1.00
C377   C     0.97328   0.43345   0.20828   0.00000  Uiso   1.00
C378   C     0.69162   0.56246   0.29866   0.00000  Uiso   1.00
C379   C     0.88513   0.52135   0.44450   0.00000  Uiso   1.00
C380   C     0.74753   0.48807   0.03596   0.00000  Uiso   1.00
C381   C     0.92200   0.52000   0.46115   0.00000  Uiso   1.00
C382   C     0.85779   0.64347   0.27355   0.00000  Uiso   1.00
C383   C     0.80608   0.35696   0.23140   0.00000  Uiso   1.00
C384   C     0.85848   0.35286   0.27518   0.00000  Uiso   1.00
H385   H     0.77850   0.47600   0.08597   0.00000  Uiso   1.00
H386   H     0.89519   0.52304   0.40678   0.00000  Uiso   1.00
H387   H     0.87755   0.62529   0.29039   0.00000  Uiso   1.00
H388   H     0.78630   0.37506   0.21445   0.00000  Uiso   1.00
H389   H     0.72557   0.44446   0.21082   0.00000  Uiso   1.00
H390   H     0.94089   0.55510   0.29015   0.00000  Uiso   1.00
N391   N     0.71426   0.50001   0.25001   0.00000  Uiso   1.00
N392   N     0.95241   0.49999   0.24999   0.00000  Uiso   1.00
N393   N     0.98373   0.45054   0.10526   0.00000  Uiso   1.00
N394   N     0.71728   0.41595   0.37083   0.00000  Uiso   1.00
N395   N     0.67195   0.41139   0.01095   0.00000  Uiso   1.00
N396   N     0.68629   0.55966   0.49100   0.00000  Uiso   1.00
N397   N     0.96364   0.40445   0.19211   0.00000  Uiso   1.00
N398   N     0.70033   0.58836   0.31975   0.00000  Uiso   1.00
O399   O     0.79512   0.56108   0.25000   0.00000  Uiso   1.00
O400   O     0.87154   0.43892   0.24999   0.00000  Uiso   1.00
O401   O     0.87157   0.56107   0.25000   0.00000  Uiso   1.00
O402   O     0.79510   0.43893   0.25000   0.00000  Uiso   1.00
O403   O     0.77328   0.50001   0.31612   0.00000  Uiso   1.00
O404   O     0.89339   0.49999   0.18387   0.00000  Uiso   1.00
O405   O     0.84972   0.50000   0.31612   0.00000  Uiso   1.00
O406   O     0.81695   0.50000   0.18388   0.00000  Uiso   1.00
Zn407  Zn    0.78229   0.50001   0.25000   0.00000  Uiso   1.00
Zn408  Zn    0.88438   0.49999   0.25000   0.00000  Uiso   1.00
Br409  Br    0.04262   0.86574   0.07526   0.00000  Uiso   1.00
Br410  Br    0.31857   0.85426   0.41293   0.00000  Uiso   1.00
Br411  Br    0.12671   0.88601   0.12128   0.00000  Uiso   1.00
Br412  Br    0.16836   0.90695   0.38459   0.00000  Uiso   1.00
Br413  Br    0.22399   0.71004   0.31179   0.00000  Uiso   1.00
Br414  Br    0.09396   0.96006   0.20529   0.00000  Uiso   1.00
C415   C     0.16600   0.91319   0.24998   0.00000  Uiso   1.00
C416   C     0.13652   0.98127   0.23202   0.00000  Uiso   1.00
C417   C     0.16687   0.70945   0.25250   0.00000  Uiso   1.00
C418   C     0.16414   0.95757   0.25166   0.00000  Uiso   1.00
C419   C     0.31927   0.80215   0.22873   0.00000  Uiso   1.00
C420   C     0.01370   0.86374   0.27268   0.00000  Uiso   1.00
C421   C     0.03348   0.80264   0.22819   0.00000  Uiso   1.00
C422   C     0.29983   0.86391   0.27211   0.00000  Uiso   1.00
C423   C     0.13630   0.83289   0.33791   0.00000  Uiso   1.00
C424   C     0.19699   0.83474   0.16162   0.00000  Uiso   1.00
C425   C     0.11702   0.83115   0.38942   0.00000  Uiso   1.00
C426   C     0.16669   0.75363   0.25143   0.00000  Uiso   1.00
C427   C     0.21535   0.84052   0.10956   0.00000  Uiso   1.00
C428   C     0.06788   0.79969   0.46471   0.00000  Uiso   1.00
C429   C     0.27843   0.84748   0.03114   0.00000  Uiso   1.00
C430   C     0.08301   0.80156   0.41505   0.00000  Uiso   1.00
C431   C     0.26378   0.83492   0.07918   0.00000  Uiso   1.00
C432   C     0.13886   0.85525   0.41253   0.00000  Uiso   1.00
C433   C     0.18287   0.85150   0.08887   0.00000  Uiso   1.00
C434   C     0.13347   0.84436   0.45842   0.00000  Uiso   1.00
C435   C     0.19607   0.84510   0.04059   0.00000  Uiso   1.00
C436   C     0.09174   0.82351   0.48708   0.00000  Uiso   1.00
C437   C     0.11884   0.81866   0.04990   0.00000  Uiso   1.00
C438   C     0.24430   0.84861   0.01030   0.00000  Uiso   1.00
C439   C     0.17074   0.84813   0.47495   0.00000  Uiso   1.00
C440   C     0.16163   0.83778   0.02216   0.00000  Uiso   1.00
C441   C     0.29366   0.80698   0.09360   0.00000  Uiso   1.00
C442   C     0.06495   0.77248   0.39047   0.00000  Uiso   1.00
C443   C     0.03294   0.76941   0.49088   0.00000  Uiso   1.00
C444   C     0.32044   0.87201   0.00934   0.00000  Uiso   1.00
C445   C     0.30661   0.76678   0.20828   0.00000  Uiso   1.00
C446   C     0.02496   0.89580   0.29866   0.00000  Uiso   1.00
C447   C     0.21846   0.85468   0.44450   0.00000  Uiso   1.00
C448   C     0.08087   0.82140   0.03596   0.00000  Uiso   1.00
C449   C     0.25533   0.85333   0.46115   0.00000  Uiso   1.00
C450   C     0.19112   0.97681   0.27355   0.00000  Uiso   1.00
C451   C     0.13941   0.69029   0.23140   0.00000  Uiso   1.00
C452   C     0.19181   0.68619   0.27518   0.00000  Uiso   1.00
H453   H     0.11183   0.80933   0.08597   0.00000  Uiso   1.00
H454   H     0.22853   0.85638   0.40678   0.00000  Uiso   1.00
H455   H     0.21089   0.95863   0.29039   0.00000  Uiso   1.00
H456   H     0.11964   0.70839   0.21445   0.00000  Uiso   1.00
H457   H     0.05890   0.77779   0.21082   0.00000  Uiso   1.00
H458   H     0.27422   0.88843   0.29015   0.00000  Uiso   1.00
N459   N     0.04759   0.83334   0.25001   0.00000  Uiso   1.00
N460   N     0.28574   0.83332   0.24999   0.00000  Uiso   1.00
N461   N     0.31706   0.78387   0.10526   0.00000  Uiso   1.00
N462   N     0.05061   0.74928   0.37083   0.00000  Uiso   1.00
N463   N     0.00529   0.74472   0.01095   0.00000  Uiso   1.00
N464   N     0.01962   0.89299   0.49100   0.00000  Uiso   1.00
N465   N     0.29697   0.73779   0.19211   0.00000  Uiso   1.00
N466   N     0.03366   0.92169   0.31975   0.00000  Uiso   1.00
O467   O     0.12846   0.89442   0.25000   0.00000  Uiso   1.00
O468   O     0.20488   0.77225   0.24999   0.00000  Uiso   1.00
O469   O     0.20490   0.89441   0.25000   0.00000  Uiso   1.00
O470   O     0.12843   0.77226   0.25000   0.00000  Uiso   1.00
O471   O     0.10661   0.83334   0.31612   0.00000  Uiso   1.00
O472   O     0.22672   0.83333   0.18387   0.00000  Uiso   1.00
O473   O     0.18305   0.83333   0.31612   0.00000  Uiso   1.00
O474   O     0.15028   0.83334   0.18388   0.00000  Uiso   1.00
Zn475  Zn    0.11562   0.83334   0.25000   0.00000  Uiso   1.00
Zn476  Zn    0.21771   0.83333   0.25000   0.00000  Uiso   1.00
Br477  Br    0.37595   0.86574   0.07526   0.00000  Uiso   1.00
Br478  Br    0.65191   0.85426   0.41293   0.00000  Uiso   1.00
Br479  Br    0.46005   0.88601   0.12128   0.00000  Uiso   1.00
Br480  Br    0.50169   0.90695   0.38459   0.00000  Uiso   1.00
Br481  Br    0.55733   0.71004   0.31179   0.00000  Uiso   1.00
Br482  Br    0.42729   0.96006   0.20529   0.00000  Uiso   1.00
C483   C     0.49933   0.91319   0.24998   0.00000  Uiso   1.00
C484   C     0.46985   0.98127   0.23202   0.00000  Uiso   1.00
C485   C     0.50020   0.70945   0.25250   0.00000  Uiso   1.00
C486   C     0.49747   0.95757   0.25166   0.00000  Uiso   1.00
C487   C     0.65260   0.80215   0.22873   0.00000  Uiso   1.00
C488   C     0.34703   0.86374   0.27268   0.00000  Uiso   1.00
C489   C     0.36681   0.80264   0.22819   0.00000  Uiso   1.00
C490   C     0.63316   0.86391   0.27211   0.00000  Uiso   1.00
C491   C     0.46963   0.83289   0.33791   0.00000  Uiso   1.00
C492   C     0.53032   0.83474   0.16162   0.00000  Uiso   1.00
C493   C     0.45035   0.83115   0.38942   0.00000  Uiso   1.00
C494   C     0.50002   0.75363   0.25143   0.00000  Uiso   1.00
C495   C     0.54869   0.84052   0.10956   0.00000  Uiso   1.00
C496   C     0.40122   0.79969   0.46471   0.00000  Uiso   1.00
C497   C     0.61176   0.84748   0.03114   0.00000  Uiso   1.00
C498   C     0.41635   0.80156   0.41505   0.00000  Uiso   1.00
C499   C     0.59712   0.83492   0.07918   0.00000  Uiso   1.00
C500   C     0.47219   0.85525   0.41253   0.00000  Uiso   1.00
C501   C     0.51621   0.85150   0.08887   0.00000  Uiso   1.00
C502   C     0.46680   0.84436   0.45842   0.00000  Uiso   1.00
C503   C     0.52941   0.84510   0.04059   0.00000  Uiso   1.00
C504   C     0.42508   0.82351   0.48708   0.00000  Uiso   1.00
C505   C     0.45218   0.81866   0.04990   0.00000  Uiso   1.00
C506   C     0.57763   0.84861   0.01030   0.00000  Uiso   1.00
C507   C     0.50408   0.84813   0.47495   0.00000  Uiso   1.00
C508   C     0.49497   0.83778   0.02216   0.00000  Uiso   1.00
C509   C     0.62699   0.80698   0.09360   0.00000  Uiso   1.00
C510   C     0.39829   0.77248   0.39047   0.00000  Uiso   1.00
C511   C     0.36628   0.76941   0.49088   0.00000  Uiso   1.00
C512   C     0.65377   0.87201   0.00934   0.00000  Uiso   1.00
C513   C     0.63995   0.76678   0.20828   0.00000  Uiso   1.00
C514   C     0.35829   0.89580   0.29866   0.00000  Uiso   1.00
C515   C     0.55180   0.85468   0.44450   0.00000  Uiso   1.00
C516   C     0.41420   0.82140   0.03596   0.00000  Uiso   1.00
C517   C     0.58866   0.85333   0.46115   0.00000  Uiso   1.00
C518   C     0.52446   0.97681   0.27355   0.00000  Uiso   1.00
C519   C     0.47274   0.69029   0.23140   0.00000  Uiso   1.00
C520   C     0.52514   0.68619   0.27518   0.00000  Uiso   1.00
H521   H     0.44516   0.80933   0.08597   0.00000  Uiso   1.00
H522   H     0.56186   0.85638   0.40678   0.00000  Uiso   1.00
H523   H     0.54422   0.95863   0.29039   0.00000  Uiso   1.00
H524   H     0.45297   0.70839   0.21445   0.00000  Uiso   1.00
H525   H     0.39223   0.77779   0.21082   0.00000  Uiso   1.00
H526   H     0.60756   0.88843   0.29015   0.00000  Uiso   1.00
N527   N     0.38093   0.83334   0.25001   0.00000  Uiso   1.00
N528   N     0.61907   0.83332   0.24999   0.00000  Uiso   1.00
N529   N     0.65040   0.78387   0.10526   0.00000  Uiso   1.00
N530   N     0.38395   0.74928   0.37083   0.00000  Uiso   1.00
N531   N     0.33862   0.74472   0.01095   0.00000  Uiso   1.00
N532   N     0.35295   0.89299   0.49100   0.00000  Uiso   1.00
N533   N     0.63030   0.73779   0.19211   0.00000  Uiso   1.00
N534   N     0.36699   0.92169   0.31975   0.00000  Uiso   1.00
O535   O     0.46179   0.89442   0.25000   0.00000  Uiso   1.00
O536   O     0.53821   0.77225   0.24999   0.00000  Uiso   1.00
O537   O     0.53823   0.89441   0.25000   0.00000  Uiso   1.00
O538   O     0.46177   0.77226   0.25000   0.00000  Uiso   1.00
O539   O     0.43994   0.83334   0.31612   0.00000  Uiso   1.00
O540   O     0.56006   0.83333   0.18387   0.00000  Uiso   1.00
O541   O     0.51639   0.83333   0.31612   0.00000  Uiso   1.00
O542   O     0.48361   0.83334   0.18388   0.00000  Uiso   1.00
Zn543  Zn    0.44896   0.83334   0.25000   0.00000  Uiso   1.00
Zn544  Zn    0.55104   0.83333   0.25000   0.00000  Uiso   1.00
Br545  Br    0.70929   0.86574   0.07526   0.00000  Uiso   1.00
Br546  Br    0.98524   0.85426   0.41293   0.00000  Uiso   1.00
Br547  Br    0.79338   0.88601   0.12128   0.00000  Uiso   1.00
Br548  Br    0.83502   0.90695   0.38459   0.00000  Uiso   1.00
Br549  Br    0.89066   0.71004   0.31179   0.00000  Uiso   1.00
Br550  Br    0.76063   0.96006   0.20529   0.00000  Uiso   1.00
C551   C     0.83267   0.91319   0.24998   0.00000  Uiso   1.00
C552   C     0.80319   0.98127   0.23202   0.00000  Uiso   1.00
C553   C     0.83354   0.70945   0.25250   0.00000  Uiso   1.00
C554   C     0.83081   0.95757   0.25166   0.00000  Uiso   1.00
C555   C     0.98594   0.80215   0.22873   0.00000  Uiso   1.00
C556   C     0.68036   0.86374   0.27268   0.00000  Uiso   1.00
C557   C     0.70014   0.80264   0.22819   0.00000  Uiso   1.00
C558   C     0.96649   0.86391   0.27211   0.00000  Uiso   1.00
C559   C     0.80297   0.83289   0.33791   0.00000  Uiso   1.00
C560   C     0.86365   0.83474   0.16162   0.00000  Uiso   1.00
C561   C     0.78369   0.83115   0.38942   0.00000  Uiso   1.00
C562   C     0.83336   0.75363   0.25143   0.00000  Uiso   1.00
C563   C     0.88202   0.84052   0.10956   0.00000  Uiso   1.00
C564   C     0.73455   0.79969   0.46471   0.00000  Uiso   1.00
C565   C     0.94510   0.84748   0.03114   0.00000  Uiso   1.00
C566   C     0.74968   0.80156   0.41505   0.00000  Uiso   1.00
C567   C     0.93045   0.83492   0.07918   0.00000  Uiso   1.00
C568   C     0.80552   0.85525   0.41253   0.00000  Uiso   1.00
C569   C     0.84954   0.85150   0.08887   0.00000  Uiso   1.00
C570   C     0.80014   0.84436   0.45842   0.00000  Uiso   1.00
C571   C     0.86274   0.84510   0.04059   0.00000  Uiso   1.00
C572   C     0.75841   0.82351   0.48708   0.00000  Uiso   1.00
C573   C     0.78551   0.81866   0.04990   0.00000  Uiso   1.00
C574   C     0.91096   0.84861   0.01030   0.00000  Uiso   1.00
C575   C     0.83741   0.84813   0.47495   0.00000  Uiso   1.00
C576   C     0.82830   0.83778   0.02216   0.00000  Uiso   1.00
C577   C     0.96033   0.80698   0.09360   0.00000  Uiso   1.00
C578   C     0.73162   0.77248   0.39047   0.00000  Uiso   1.00
C579   C     0.69961   0.76941   0.49088   0.00000  Uiso   1.00
C580   C     0.98711   0.87201   0.00934   0.00000  Uiso   1.00
C581   C     0.97328   0.76678   0.20828   0.00000  Uiso   1.00
C582   C     0.69162   0.89580   0.29866   0.00000  Uiso   1.00
C583   C     0.88513   0.85468   0.44450   0.00000  Uiso   1.00
C584   C     0.74753   0.82140   0.03596   0.00000  Uiso   1.00
C585   C     0.92200   0.85333   0.46115   0.00000  Uiso   1.00
C586   C     0.85779   0.97681   0.27355   0.00000  Uiso   1.00
C587   C     0.80608   0.69029   0.23140   0.00000  Uiso   1.00
C588   C     0.85848   0.68619   0.27518   0.00000  Uiso   1.00
H589   H     0.77850   0.80933   0.08597   0.00000  Uiso   1.00
H590   H     0.89519   0.85638   0.40678   0.00000  Uiso   1.00
H591   H     0.87755   0.95863   0.29039   0.00000  Uiso   1.00
H592   H     0.78630   0.70839   0.21445   0.00000  Uiso   1.00
H593   H     0.72557   0.77779   0.21082   0.00000  Uiso   1.00
H594   H     0.94089   0.88843   0.29015   0.00000  Uiso   1.00
N595   N     0.71426   0.83334   0.25001   0.00000  Uiso   1.00
N596   N     0.95241   0.83332   0.24999   0.00000  Uiso   1.00
N597   N     0.98373   0.78387   0.10526   0.00000  Uiso   1.00
N598   N     0.71728   0.74928   0.37083   0.00000  Uiso   1.00
N599   N     0.67195   0.74472   0.01095   0.00000  Uiso   1.00
N600   N     0.68629   0.89299   0.49100   0.00000  Uiso   1.00
N601   N     0.96364   0.73779   0.19211   0.00000  Uiso   1.00
N602   N     0.70033   0.92169   0.31975   0.00000  Uiso   1.00
O603   O     0.79512   0.89442   0.25000   0.00000  Uiso   1.00
O604   O     0.87154   0.77225   0.24999   0.00000  Uiso   1.00
O605   O     0.87157   0.89441   0.25000   0.00000  Uiso   1.00
O606   O     0.79510   0.77226   0.25000   0.00000  Uiso   1.00
O607   O     0.77328   0.83334   0.31612   0.00000  Uiso   1.00
O608   O     0.89339   0.83333   0.18387   0.00000  Uiso   1.00
O609   O     0.84972   0.83333   0.31612   0.00000  Uiso   1.00
O610   O     0.81695   0.83334   0.18388   0.00000  Uiso   1.00
Zn611  Zn    0.78229   0.83334   0.25000   0.00000  Uiso   1.00
Zn612  Zn    0.88438   0.83333   0.25000   0.00000  Uiso   1.00
Br613  Br    0.04262   0.19907   0.57526   0.00000  Uiso   1.00
Br614  Br    0.31857   0.18759   0.91293   0.00000  Uiso   1.00
Br615  Br    0.12671   0.21935   0.62128   0.00000  Uiso   1.00
Br616  Br    0.16836   0.24029   0.88459   0.00000  Uiso   1.00
Br617  Br    0.22399   0.04337   0.81179   0.00000  Uiso   1.00
Br618  Br    0.09396   0.29339   0.70529   0.00000  Uiso   1.00
C619   C     0.16600   0.24652   0.74998   0.00000  Uiso   1.00
C620   C     0.13652   0.31460   0.73202   0.00000  Uiso   1.00
C621   C     0.16687   0.04278   0.75250   0.00000  Uiso   1.00
C622   C     0.16414   0.29091   0.75166   0.00000  Uiso   1.00
C623   C     0.31927   0.13548   0.72873   0.00000  Uiso   1.00
C624   C     0.01370   0.19707   0.77268   0.00000  Uiso   1.00
C625   C     0.03348   0.13598   0.72819   0.00000  Uiso   1.00
C626   C     0.29983   0.19725   0.77211   0.00000  Uiso   1.00
C627   C     0.13630   0.16622   0.83791   0.00000  Uiso   1.00
C628   C     0.19699   0.16807   0.66162   0.00000  Uiso   1.00
C629   C     0.11702   0.16448   0.88942   0.00000  Uiso   1.00
C630   C     0.16669   0.08697   0.75143   0.00000  Uiso   1.00
C631   C     0.21535   0.17386   0.60956   0.00000  Uiso   1.00
C632   C     0.06788   0.13302   0.96471   0.00000  Uiso   1.00
C633   C     0.27843   0.18081   0.53114   0.00000  Uiso   1.00
C634   C     0.08301   0.13490   0.91505   0.00000  Uiso   1.00
C635   C     0.26378   0.16825   0.57918   0.00000  Uiso   1.00
C636   C     0.13886   0.18859   0.91253   0.00000  Uiso   1.00
C637   C     0.18287   0.18483   0.58887   0.00000  Uiso   1.00
C638   C     0.13347   0.17769   0.95842   0.00000  Uiso   1.00
C639   C     0.19607   0.17844   0.54059   0.00000  Uiso   1.00
C640   C     0.09174   0.15684   0.98708   0.00000  Uiso   1.00
C641   C     0.11884   0.15199   0.54990   0.00000  Uiso   1.00
C642   C     0.24430   0.18194   0.51030   0.00000  Uiso   1.00
C643   C     0.17074   0.18147   0.97495   0.00000  Uiso   1.00
C644   C     0.16163   0.17112   0.52216   0.00000  Uiso   1.00
C645   C     0.29366   0.14032   0.59360   0.00000  Uiso   1.00
C646   C     0.06495   0.10581   0.89047   0.00000  Uiso   1.00
C647   C     0.03294   0.10274   0.99088   0.00000  Uiso   1.00
C648   C     0.32044   0.20534   0.50934   0.00000  Uiso   1.00
C649   C     0.30661   0.10012   0.70828   0.00000  Uiso   1.00
C650   C     0.02496   0.22913   0.79866   0.00000  Uiso   1.00
C651   C     0.21846   0.18802   0.94450   0.00000  Uiso   1.00
C652   C     0.08087   0.15473   0.53596   0.00000  Uiso   1.00
C653   C     0.25533   0.18666   0.96115   0.00000  Uiso   1.00
C654   C     0.19112   0.31014   0.77355   0.00000  Uiso   1.00
C655   C     0.13941   0.02363   0.73140   0.00000  Uiso   1.00
C656   C     0.19181   0.01953   0.77518   0.00000  Uiso   1.00
H657   H     0.11183   0.14267   0.58597   0.00000  Uiso   1.00
H658   H     0.22853   0.18971   0.90678   0.00000  Uiso   1.00
H659   H     0.21089   0.29196   0.79039   0.00000  Uiso   1.00
H660   H     0.11964   0.04172   0.71445   0.00000  Uiso   1.00
H661   H     0.05890   0.11112   0.71082   0.00000  Uiso   1.00
H662   H     0.27422   0.22177   0.79015   0.00000  Uiso   1.00
N663   N     0.04759   0.16668   0.75001   0.00000  Uiso   1.00
N664   N     0.28574   0.16666   0.74999   0.00000  Uiso   1.00
N665   N     0.31706   0.11720   0.60526   0.00000  Uiso   1.00
N666   N     0.05061   0.08261   0.87083   0.00000  Uiso   1.00
N667   N     0.00529   0.07805   0.51095   0.00000  Uiso   1.00
N668   N     0.01962   0.22632   0.99100   0.00000  Uiso   1.00
N669   N     0.29697   0.07112   0.69211   0.00000  Uiso   1.00
N670   N     0.03366   0.25503   0.81975   0.00000  Uiso   1.00
O671   O     0.12846   0.22775   0.75000   0.00000  Uiso   1.00
O672   O     0.20488   0.10558   0.74999   0.00000  Uiso   1.00
O673   O     0.20490   0.22774   0.75000   0.00000  Uiso   1.00
O674   O     0.12843   0.10559   0.75000   0.00000  Uiso   1.00
O675   O     0.10661   0.16667   0.81612   0.00000  Uiso   1.00
O676   O     0.22672   0.16666   0.68387   0.00000  Uiso   1.00
O677   O     0.18305   0.16666   0.81612   0.00000  Uiso   1.00
O678   O     0.15028   0.16667   0.68388   0.00000  Uiso   1.00
Zn679  Zn    0.11562   0.16667   0.75000   0.00000  Uiso   1.00
Zn680  Zn    0.21771   0.16666   0.75000   0.00000  Uiso   1.00
Br681  Br    0.37595   0.19907   0.57526   0.00000  Uiso   1.00
Br682  Br    0.65191   0.18759   0.91293   0.00000  Uiso   1.00
Br683  Br    0.46005   0.21935   0.62128   0.00000  Uiso   1.00
Br684  Br    0.50169   0.24029   0.88459   0.00000  Uiso   1.00
Br685  Br    0.55733   0.04337   0.81179   0.00000  Uiso   1.00
Br686  Br    0.42729   0.29339   0.70529   0.00000  Uiso   1.00
C687   C     0.49933   0.24652   0.74998   0.00000  Uiso   1.00
C688   C     0.46985   0.31460   0.73202   0.00000  Uiso   1.00
C689   C     0.50020   0.04278   0.75250   0.00000  Uiso   1.00
C690   C     0.49747   0.29091   0.75166   0.00000  Uiso   1.00
C691   C     0.65260   0.13548   0.72873   0.00000  Uiso   1.00
C692   C     0.34703   0.19707   0.77268   0.00000  Uiso   1.00
C693   C     0.36681   0.13598   0.72819   0.00000  Uiso   1.00
C694   C     0.63316   0.19725   0.77211   0.00000  Uiso   1.00
C695   C     0.46963   0.16622   0.83791   0.00000  Uiso   1.00
C696   C     0.53032   0.16807   0.66162   0.00000  Uiso   1.00
C697   C     0.45035   0.16448   0.88942   0.00000  Uiso   1.00
C698   C     0.50002   0.08697   0.75143   0.00000  Uiso   1.00
C699   C     0.54869   0.17386   0.60956   0.00000  Uiso   1.00
C700   C     0.40122   0.13302   0.96471   0.00000  Uiso   1.00
C701   C     0.61176   0.18081   0.53114   0.00000  Uiso   1.00
C702   C     0.41635   0.13490   0.91505   0.00000  Uiso   1.00
C703   C     0.59712   0.16825   0.57918   0.00000  Uiso   1.00
C704   C     0.47219   0.18859   0.91253   0.00000  Uiso   1.00
C705   C     0.51621   0.18483   0.58887   0.00000  Uiso   1.00
C706   C     0.46680   0.17769   0.95842   0.00000  Uiso   1.00
C707   C     0.52941   0.17844   0.54059   0.00000  Uiso   1.00
C708   C     0.42508   0.15684   0.98708   0.00000  Uiso   1.00
C709   C     0.45218   0.15199   0.54990   0.00000  Uiso   1.00
C710   C     0.57763   0.18194   0.51030   0.00000  Uiso   1.00
C711   C     0.50408   0.18147   0.97495   0.00000  Uiso   1.00
C712   C     0.49497   0.17112   0.52216   0.00000  Uiso   1.00
C713   C     0.62699   0.14032   0.59360   0.00000  Uiso   1.00
C714   C     0.39829   0.10581   0.89047   0.00000  Uiso   1.00
C715   C     0.36628   0.10274   0.99088   0.00000  Uiso   1.00
C716   C     0.65377   0.20534   0.50934   0.00000  Uiso   1.00
C717   C     0.63995   0.10012   0.70828   0.00000  Uiso   1.00
C718   C     0.35829   0.22913   0.79866   0.00000  Uiso   1.00
C719   C     0.55180   0.18802   0.94450   0.00000  Uiso   1.00
C720   C     0.41420   0.15473   0.53596   0.00000  Uiso   1.00
C721   C     0.58866   0.18666   0.96115   0.00000  Uiso   1.00
C722   C     0.52446   0.31014   0.77355   0.00000  Uiso   1.00
C723   C     0.47274   0.02363   0.73140   0.00000  Uiso   1.00
C724   C     0.52514   0.01953   0.77518   0.00000  Uiso   1.00
H725   H     0.44516   0.14267   0.58597   0.00000  Uiso   1.00
H726   H     0.56186   0.18971   0.90678   0.00000  Uiso   1.00
H727   H     0.54422   0.29196   0.79039   0.00000  Uiso   1.00
H728   H     0.45297   0.04172   0.71445   0.00000  Uiso   1.00
H729   H     0.39223   0.11112   0.71082   0.00000  Uiso   1.00
H730   H     0.60756   0.22177   0.79015   0.00000  Uiso   1.00
N731   N     0.38093   0.16668   0.75001   0.00000  Uiso   1.00
N732   N     0.61907   0.16666   0.74999   0.00000  Uiso   1.00
N733   N     0.65040   0.11720   0.60526   0.00000  Uiso   1.00
N734   N     0.38395   0.08261   0.87083   0.00000  Uiso   1.00
N735   N     0.33862   0.07805   0.51095   0.00000  Uiso   1.00
N736   N     0.35295   0.22632   0.99100   0.00000  Uiso   1.00
N737   N     0.63030   0.07112   0.69211   0.00000  Uiso   1.00
N738   N     0.36699   0.25503   0.81975   0.00000  Uiso   1.00
O739   O     0.46179   0.22775   0.75000   0.00000  Uiso   1.00
O740   O     0.53821   0.10558   0.74999   0.00000  Uiso   1.00
O741   O     0.53823   0.22774   0.75000   0.00000  Uiso   1.00
O742   O     0.46177   0.10559   0.75000   0.00000  Uiso   1.00
O743   O     0.43994   0.16667   0.81612   0.00000  Uiso   1.00
O744   O     0.56006   0.16666   0.68387   0.00000  Uiso   1.00
O745   O     0.51639   0.16666   0.81612   0.00000  Uiso   1.00
O746   O     0.48361   0.16667   0.68388   0.00000  Uiso   1.00
Zn747  Zn    0.44896   0.16667   0.75000   0.00000  Uiso   1.00
Zn748  Zn    0.55104   0.16666   0.75000   0.00000  Uiso   1.00
Br749  Br    0.70929   0.19907   0.57526   0.00000  Uiso   1.00
Br750  Br    0.98524   0.18759   0.91293   0.00000  Uiso   1.00
Br751  Br    0.79338   0.21935   0.62128   0.00000  Uiso   1.00
Br752  Br    0.83502   0.24029   0.88459   0.00000  Uiso   1.00
Br753  Br    0.89066   0.04337   0.81179   0.00000  Uiso   1.00
Br754  Br    0.76063   0.29339   0.70529   0.00000  Uiso   1.00
C755   C     0.83267   0.24652   0.74998   0.00000  Uiso   1.00
C756   C     0.80319   0.31460   0.73202   0.00000  Uiso   1.00
C757   C     0.83354   0.04278   0.75250   0.00000  Uiso   1.00
C758   C     0.83081   0.29091   0.75166   0.00000  Uiso   1.00
C759   C     0.98594   0.13548   0.72873   0.00000  Uiso   1.00
C760   C     0.68036   0.19707   0.77268   0.00000  Uiso   1.00
C761   C     0.70014   0.13598   0.72819   0.00000  Uiso   1.00
C762   C     0.96649   0.19725   0.77211   0.00000  Uiso   1.00
C763   C     0.80297   0.16622   0.83791   0.00000  Uiso   1.00
C764   C     0.86365   0.16807   0.66162   0.00000  Uiso   1.00
C765   C     0.78369   0.16448   0.88942   0.00000  Uiso   1.00
C766   C     0.83336   0.08697   0.75143   0.00000  Uiso   1.00
C767   C     0.88202   0.17386   0.60956   0.00000  Uiso   1.00
C768   C     0.73455   0.13302   0.96471   0.00000  Uiso   1.00
C769   C     0.94510   0.18081   0.53114   0.00000  Uiso   1.00
C770   C     0.74968   0.13490   0.91505   0.00000  Uiso   1.00
C771   C     0.93045   0.16825   0.57918   0.00000  Uiso   1.00
C772   C     0.80552   0.18859   0.91253   0.00000  Uiso   1.00
C773   C     0.84954   0.18483   0.58887   0.00000  Uiso   1.00
C774   C     0.80014   0.17769   0.95842   0.00000  Uiso   1.00
C775   C     0.86274   0.17844   0.54059   0.00000  Uiso   1.00
C776   C     0.75841   0.15684   0.98708   0.00000  Uiso   1.00
C777   C     0.78551   0.15199   0.54990   0.00000  Uiso   1.00
C778   C     0.91096   0.18194   0.51030   0.00000  Uiso   1.00
C779   C     0.83741   0.18147   0.97495   0.00000  Uiso   1.00
C780   C     0.82830   0.17112   0.52216   0.00000  Uiso   1.00
C781   C     0.96033   0.14032   0.59360   0.00000  Uiso   1.00
C782   C     0.73162   0.10581   0.89047   0.00000  Uiso   1.00
C783   C     0.69961   0.10274   0.99088   0.00000  Uiso   1.00
C784   C     0.98711   0.20534   0.50934   0.00000  Uiso   1.00
C785   C     0.97328   0.10012   0.70828   0.00000  Uiso   1.00
C786   C     0.69162   0.22913   0.79866   0.00000  Uiso   1.00
C787   C     0.88513   0.18802   0.94450   0.00000  Uiso   1.00
C788   C     0.74753   0.15473   0.53596   0.00000  Uiso   1.00
C789   C     0.92200   0.18666   0.96115   0.00000  Uiso   1.00
C790   C     0.85779   0.31014   0.77355   0.00000  Uiso   1.00
C791   C     0.80608   0.02363   0.73140   0.00000  Uiso   1.00
C792   C     0.85848   0.01953   0.77518   0.00000  Uiso   1.00
H793   H     0.77850   0.14267   0.58597   0.00000  Uiso   1.00
H794   H     0.89519   0.18971   0.90678   0.00000  Uiso   1.00
H795   H     0.87755   0.29196   0.79039   0.00000  Uiso   1.00
H796   H     0.78630   0.04172   0.71445   0.00000  Uiso   1.00
H797   H     0.72557   0.11112   0.71082   0.00000  Uiso   1.00
H798   H     0.94089   0.22177   0.79015   0.00000  Uiso   1.00
N799   N     0.71426   0.16668   0.75001   0.00000  Uiso   1.00
N800   N     0.95241   0.16666   0.74999   0.00000  Uiso   1.00
N801   N     0.98373   0.11720   0.60526   0.00000  Uiso   1.00
N802   N     0.71728   0.08261   0.87083   0.00000  Uiso   1.00
N803   N     0.67195   0.07805   0.51095   0.00000  Uiso   1.00
N804   N     0.68629   0.22632   0.99100   0.00000  Uiso   1.00
N805   N     0.96364   0.07112   0.69211   0.00000  Uiso   1.00
N806   N     0.70033   0.25503   0.81975   0.00000  Uiso   1.00
O807   O     0.79512   0.22775   0.75000   0.00000  Uiso   1.00
O808   O     0.87154   0.10558   0.74999   0.00000  Uiso   1.00
O809   O     0.87157   0.22774   0.75000   0.00000  Uiso   1.00
O810   O     0.79510   0.10559   0.75000   0.00000  Uiso   1.00
O811   O     0.77328   0.16667   0.81612   0.00000  Uiso   1.00
O812   O     0.89339   0.16666   0.68387   0.00000  Uiso   1.00
O813   O     0.84972   0.16666   0.81612   0.00000  Uiso   1.00
O814   O     0.81695   0.16667   0.68388   0.00000  Uiso   1.00
Zn815  Zn    0.78229   0.16667   0.75000   0.00000  Uiso   1.00
Zn816  Zn    0.88438   0.16666   0.75000   0.00000  Uiso   1.00
Br817  Br    0.04262   0.53241   0.57526   0.00000  Uiso   1.00
Br818  Br    0.31857   0.52093   0.91293   0.00000  Uiso   1.00
Br819  Br    0.12671   0.55268   0.62128   0.00000  Uiso   1.00
Br820  Br    0.16836   0.57362   0.88459   0.00000  Uiso   1.00
Br821  Br    0.22399   0.37671   0.81179   0.00000  Uiso   1.00
Br822  Br    0.09396   0.62672   0.70529   0.00000  Uiso   1.00
C823   C     0.16600   0.57986   0.74998   0.00000  Uiso   1.00
C824   C     0.13652   0.64794   0.73202   0.00000  Uiso   1.00
C825   C     0.16687   0.37612   0.75250   0.00000  Uiso   1.00
C826   C     0.16414   0.62424   0.75166   0.00000  Uiso   1.00
C827   C     0.31927   0.46882   0.72873   0.00000  Uiso   1.00
C828   C     0.01370   0.53041   0.77268   0.00000  Uiso   1.00
C829   C     0.03348   0.46931   0.72819   0.00000  Uiso   1.00
C830   C     0.29983   0.53058   0.77211   0.00000  Uiso   1.00
C831   C     0.13630   0.49955   0.83791   0.00000  Uiso   1.00
C832   C     0.19699   0.50141   0.66162   0.00000  Uiso   1.00
C833   C     0.11702   0.49781   0.88942   0.00000  Uiso   1.00
C834   C     0.16669   0.42030   0.75143   0.00000  Uiso   1.00
C835   C     0.21535   0.50719   0.60956   0.00000  Uiso   1.00
C836   C     0.06788   0.46636   0.96471   0.00000  Uiso   1.00
C837   C     0.27843   0.51414   0.53114   0.00000  Uiso   1.00
C838   C     0.08301   0.46823   0.91505   0.00000  Uiso   1.00
C839   C     0.26378   0.50159   0.57918   0.00000  Uiso   1.00
C840   C     0.13886   0.52192   0.91253   0.00000  Uiso   1.00
C841   C     0.18287   0.51816   0.58887   0.00000  Uiso   1.00
C842   C     0.13347   0.51103   0.95842   0.00000  Uiso   1.00
C843   C     0.19607   0.51177   0.54059   0.00000  Uiso   1.00
C844   C     0.09174   0.49017   0.98708   0.00000  Uiso   1.00
C845   C     0.11884   0.48532   0.54990   0.00000  Uiso   1.00
C846   C     0.24430   0.51527   0.51030   0.00000  Uiso   1.00
C847   C     0.17074   0.51480   0.97495   0.00000  Uiso   1.00
C848   C     0.16163   0.50445   0.52216   0.00000  Uiso   1.00
C849   C     0.29366   0.47365   0.59360   0.00000  Uiso   1.00
C850   C     0.06495   0.43914   0.89047   0.00000  Uiso   1.00
C851   C     0.03294   0.43608   0.99088   0.00000  Uiso   1.00
C852   C     0.32044   0.53867   0.50934   0.00000  Uiso   1.00
C853   C     0.30661   0.43345   0.70828   0.00000  Uiso   1.00
C854   C     0.02496   0.56246   0.79866   0.00000  Uiso   1.00
C855   C     0.21846   0.52135   0.94450   0.00000  Uiso   1.00
C856   C     0.08087   0.48807   0.53596   0.00000  Uiso   1.00
C857   C     0.25533   0.52000   0.96115   0.00000  Uiso   1.00
C858   C     0.19112   0.64347   0.77355   0.00000  Uiso   1.00
C859   C     0.13941   0.35696   0.73140   0.00000  Uiso   1.00
C860   C     0.19181   0.35286   0.77518   0.00000  Uiso   1.00
H861   H     0.11183   0.47600   0.58597   0.00000  Uiso   1.00
H862   H     0.22853   0.52304   0.90678   0.00000  Uiso   1.00
H863   H     0.21089   0.62529   0.79039   0.00000  Uiso   1.00
H864   H     0.11964   0.37506   0.71445   0.00000  Uiso   1.00
H865   H     0.05890   0.44446   0.71082   0.00000  Uiso   1.00
H866   H     0.27422   0.55510   0.79015   0.00000  Uiso   1.00
N867   N     0.04759   0.50001   0.75001   0.00000  Uiso   1.00
N868   N     0.28574   0.49999   0.74999   0.00000  Uiso   1.00
N869   N     0.31706   0.45054   0.60526   0.00000  Uiso   1.00
N870   N     0.05061   0.41595   0.87083   0.00000  Uiso   1.00
N871   N     0.00529   0.41139   0.51095   0.00000  Uiso   1.00
N872   N     0.01962   0.55966   0.99100   0.00000  Uiso   1.00
N873   N     0.29697   0.40445   0.69211   0.00000  Uiso   1.00
N874   N     0.03366   0.58836   0.81975   0.00000  Uiso   1.00
O875   O     0.12846   0.56108   0.75000   0.00000  Uiso   1.00
O876   O     0.20488   0.43892   0.74999   0.00000  Uiso   1.00
O877   O     0.20490   0.56107   0.75000   0.00000  Uiso   1.00
O878   O     0.12843   0.43893   0.75000   0.00000  Uiso   1.00
O879   O     0.10661   0.50001   0.81612   0.00000  Uiso   1.00
O880   O     0.22672   0.49999   0.68387   0.00000  Uiso   1.00
O881   O     0.18305   0.50000   0.81612   0.00000  Uiso   1.00
O882   O     0.15028   0.50000   0.68388   0.00000  Uiso   1.00
Zn883  Zn    0.11562   0.50001   0.75000   0.00000  Uiso   1.00
Zn884  Zn    0.21771   0.49999   0.75000   0.00000  Uiso   1.00
Br885  Br    0.37595   0.53241   0.57526   0.00000  Uiso   1.00
Br886  Br    0.65191   0.52093   0.91293   0.00000  Uiso   1.00
Br887  Br    0.46005   0.55268   0.62128   0.00000  Uiso   1.00
Br888  Br    0.50169   0.57362   0.88459   0.00000  Uiso   1.00
Br889  Br    0.55733   0.37671   0.81179   0.00000  Uiso   1.00
Br890  Br    0.42729   0.62672   0.70529   0.00000  Uiso   1.00
C891   C     0.49933   0.57986   0.74998   0.00000  Uiso   1.00
C892   C     0.46985   0.64794   0.73202   0.00000  Uiso   1.00
C893   C     0.50020   0.37612   0.75250   0.00000  Uiso   1.00
C894   C     0.49747   0.62424   0.75166   0.00000  Uiso   1.00
C895   C     0.65260   0.46882   0.72873   0.00000  Uiso   1.00
C896   C     0.34703   0.53041   0.77268   0.00000  Uiso   1.00
C897   C     0.36681   0.46931   0.72819   0.00000  Uiso   1.00
C898   C     0.63316   0.53058   0.77211   0.00000  Uiso   1.00
C899   C     0.46963   0.49955   0.83791   0.00000  Uiso   1.00
C900   C     0.53032   0.50141   0.66162   0.00000  Uiso   1.00
C901   C     0.45035   0.49781   0.88942   0.00000  Uiso   1.00
C902   C     0.50002   0.42030   0.75143   0.00000  Uiso   1.00
C903   C     0.54869   0.50719   0.60956   0.00000  Uiso   1.00
C904   C     0.40122   0.46636   0.96471   0.00000  Uiso   1.00
C905   C     0.61176   0.51414   0.53114   0.00000  Uiso   1.00
C906   C     0.41635   0.46823   0.91505   0.00000  Uiso   1.00
C907   C     0.59712   0.50159   0.57918   0.00000  Uiso   1.00
C908   C     0.47219   0.52192   0.91253   0.00000  Uiso   1.00
C909   C     0.51621   0.51816   0.58887   0.00000  Uiso   1.00
C910   C     0.46680   0.51103   0.95842   0.00000  Uiso   1.00
C911   C     0.52941   0.51177   0.54059   0.00000  Uiso   1.00
C912   C     0.42508   0.49017   0.98708   0.00000  Uiso   1.00
C913   C     0.45218   0.48532   0.54990   0.00000  Uiso   1.00
C914   C     0.57763   0.51527   0.51030   0.00000  Uiso   1.00
C915   C     0.50408   0.51480   0.97495   0.00000  Uiso   1.00
C916   C     0.49497   0.50445   0.52216   0.00000  Uiso   1.00
C917   C     0.62699   0.47365   0.59360   0.00000  Uiso   1.00
C918   C     0.39829   0.43914   0.89047   0.00000  Uiso   1.00
C919   C     0.36628   0.43608   0.99088   0.00000  Uiso   1.00
C920   C     0.65377   0.53867   0.50934   0.00000  Uiso   1.00
C921   C     0.63995   0.43345   0.70828   0.00000  Uiso   1.00
C922   C     0.35829   0.56246   0.79866   0.00000  Uiso   1.00
C923   C     0.55180   0.52135   0.94450   0.00000  Uiso   1.00
C924   C     0.41420   0.48807   0.53596   0.00000  Uiso   1.00
C925   C     0.58866   0.52000   0.96115   0.00000  Uiso   1.00
C926   C     0.52446   0.64347   0.77355   0.00000  Uiso   1.00
C927   C     0.47274   0.35696   0.73140   0.00000  Uiso   1.00
C928   C     0.52514   0.35286   0.77518   0.00000  Uiso   1.00
H929   H     0.44516   0.47600   0.58597   0.00000  Uiso   1.00
H930   H     0.56186   0.52304   0.90678   0.00000  Uiso   1.00
H931   H     0.54422   0.62529   0.79039   0.00000  Uiso   1.00
H932   H     0.45297   0.37506   0.71445   0.00000  Uiso   1.00
H933   H     0.39223   0.44446   0.71082   0.00000  Uiso   1.00
H934   H     0.60756   0.55510   0.79015   0.00000  Uiso   1.00
N935   N     0.38093   0.50001   0.75001   0.00000  Uiso   1.00
N936   N     0.61907   0.49999   0.74999   0.00000  Uiso   1.00
N937   N     0.65040   0.45054   0.60526   0.00000  Uiso   1.00
N938   N     0.38395   0.41595   0.87083   0.00000  Uiso   1.00
N939   N     0.33862   0.41139   0.51095   0.00000  Uiso   1.00
N940   N     0.35295   0.55966   0.99100   0.00000  Uiso   1.00
N941   N     0.63030   0.40445   0.69211   0.00000  Uiso   1.00
N942   N     0.36699   0.58836   0.81975   0.00000  Uiso   1.00
O943   O     0.46179   0.56108   0.75000   0.00000  Uiso   1.00
O944   O     0.53821   0.43892   0.74999   0.00000  Uiso   1.00
O945   O     0.53823   0.56107   0.75000   0.00000  Uiso   1.00
O946   O     0.46177   0.43893   0.75000   0.00000  Uiso   1.00
O947   O     0.43994   0.50001   0.81612   0.00000  Uiso   1.00
O948   O     0.56006   0.49999   0.68387   0.00000  Uiso   1.00
O949   O     0.51639   0.50000   0.81612   0.00000  Uiso   1.00
O950   O     0.48361   0.50000   0.68388   0.00000  Uiso   1.00
Zn951  Zn    0.44896   0.50001   0.75000   0.00000  Uiso   1.00
Zn952  Zn    0.55104   0.49999   0.75000   0.00000  Uiso   1.00
Br953  Br    0.70929   0.53241   0.57526   0.00000  Uiso   1.00
Br954  Br    0.98524   0.52093   0.91293   0.00000  Uiso   1.00
Br955  Br    0.79338   0.55268   0.62128   0.00000  Uiso   1.00
Br956  Br    0.83502   0.57362   0.88459   0.00000  Uiso   1.00
Br957  Br    0.89066   0.37671   0.81179   0.00000  Uiso   1.00
Br958  Br    0.76063   0.62672   0.70529   0.00000  Uiso   1.00
C959   C     0.83267   0.57986   0.74998   0.00000  Uiso   1.00
C960   C     0.80319   0.64794   0.73202   0.00000  Uiso   1.00
C961   C     0.83354   0.37612   0.75250   0.00000  Uiso   1.00
C962   C     0.83081   0.62424   0.75166   0.00000  Uiso   1.00
C963   C     0.98594   0.46882   0.72873   0.00000  Uiso   1.00
C964   C     0.68036   0.53041   0.77268   0.00000  Uiso   1.00
C965   C     0.70014   0.46931   0.72819   0.00000  Uiso   1.00
C966   C     0.96649   0.53058   0.77211   0.00000  Uiso   1.00
C967   C     0.80297   0.49955   0.83791   0.00000  Uiso   1.00
C968   C     0.86365   0.50141   0.66162   0.00000  Uiso   1.00
C969   C     0.78369   0.49781   0.88942   0.00000  Uiso   1.00
C970   C     0.83336   0.42030   0.75143   0.00000  Uiso   1.00
C971   C     0.88202   0.50719   0.60956   0.00000  Uiso   1.00
C972   C     0.73455   0.46636   0.96471   0.00000  Uiso   1.00
C973   C     0.94510   0.51414   0.53114   0.00000  Uiso   1.00
C974   C     0.74968   0.46823   0.91505   0.00000  Uiso   1.00
C975   C     0.93045   0.50159   0.57918   0.00000  Uiso   1.00
C976   C     0.80552   0.52192   0.91253   0.00000  Uiso   1.00
C977   C     0.84954   0.51816   0.58887   0.00000  Uiso   1.00
C978   C     0.80014   0.51103   0.95842   0.00000  Uiso   1.00
C979   C     0.86274   0.51177   0.54059   0.00000  Uiso   1.00
C980   C     0.75841   0.49017   0.98708   0.00000  Uiso   1.00
C981   C     0.78551   0.48532   0.54990   0.00000  Uiso   1.00
C982   C     0.91096   0.51527   0.51030   0.00000  Uiso   1.00
C983   C     0.83741   0.51480   0.97495   0.00000  Uiso   1.00
C984   C     0.82830   0.50445   0.52216   0.00000  Uiso   1.00
C985   C     0.96033   0.47365   0.59360   0.00000  Uiso   1.00
C986   C     0.73162   0.43914   0.89047   0.00000  Uiso   1.00
C987   C     0.69961   0.43608   0.99088   0.00000  Uiso   1.00
C988   C     0.98711   0.53867   0.50934   0.00000  Uiso   1.00
C989   C     0.97328   0.43345   0.70828   0.00000  Uiso   1.00
C990   C     0.69162   0.56246   0.79866   0.00000  Uiso   1.00
C991   C     0.88513   0.52135   0.94450   0.00000  Uiso   1.00
C992   C     0.74753   0.48807   0.53596   0.00000  Uiso   1.00
C993   C     0.92200   0.52000   0.96115   0.00000  Uiso   1.00
C994   C     0.85779   0.64347   0.77355   0.00000  Uiso   1.00
C995   C     0.80608   0.35696   0.73140   0.00000  Uiso   1.00
C996   C     0.85848   0.35286   0.77518   0.00000  Uiso   1.00
H997   H     0.77850   0.47600   0.58597   0.00000  Uiso   1.00
H998   H     0.89519   0.52304   0.90678   0.00000  Uiso   1.00
H999   H     0.87755   0.62529   0.79039   0.00000  Uiso   1.00
H1000  H     0.78630   0.37506   0.71445   0.00000  Uiso   1.00
H1001  H     0.72557   0.44446   0.71082   0.00000  Uiso   1.00
H1002  H     0.94089   0.55510   0.79015   0.00000  Uiso   1.00
N1003  N     0.71426   0.50001   0.75001   0.00000  Uiso   1.00
N1004  N     0.95241   0.49999   0.74999   0.00000  Uiso   1.00
N1005  N     0.98373   0.45054   0.60526   0.00000  Uiso   1.00
N1006  N     0.71728   0.41595   0.87083   0.00000  Uiso   1.00
N1007  N     0.67195   0.41139   0.51095   0.00000  Uiso   1.00
N1008  N     0.68629   0.55966   0.99100   0.00000  Uiso   1.00
N1009  N     0.96364   0.40445   0.69211   0.00000  Uiso   1.00
N1010  N     0.70033   0.58836   0.81975   0.00000  Uiso   1.00
O1011  O     0.79512   0.56108   0.75000   0.00000  Uiso   1.00
O1012  O     0.87154   0.43892   0.74999   0.00000  Uiso   1.00
O1013  O     0.87157   0.56107   0.75000   0.00000  Uiso   1.00
O1014  O     0.79510   0.43893   0.75000   0.00000  Uiso   1.00
O1015  O     0.77328   0.50001   0.81612   0.00000  Uiso   1.00
O1016  O     0.89339   0.49999   0.68387   0.00000  Uiso   1.00
O1017  O     0.84972   0.50000   0.81612   0.00000  Uiso   1.00
O1018  O     0.81695   0.50000   0.68388   0.00000  Uiso   1.00
Zn1019 Zn    0.78229   0.50001   0.75000   0.00000  Uiso   1.00
Zn1020 Zn    0.88438   0.49999   0.75000   0.00000  Uiso   1.00
Br1021 Br    0.04262   0.86574   0.57526   0.00000  Uiso   1.00
Br1022 Br    0.31857   0.85426   0.91293   0.00000  Uiso   1.00
Br1023 Br    0.12671   0.88601   0.62128   0.00000  Uiso   1.00
Br1024 Br    0.16836   0.90695   0.88459   0.00000  Uiso   1.00
Br1025 Br    0.22399   0.71004   0.81179   0.00000  Uiso   1.00
Br1026 Br    0.09396   0.96006   0.70529   0.00000  Uiso   1.00
C1027  C     0.16600   0.91319   0.74998   0.00000  Uiso   1.00
C1028  C     0.13652   0.98127   0.73202   0.00000  Uiso   1.00
C1029  C     0.16687   0.70945   0.75250   0.00000  Uiso   1.00
C1030  C     0.16414   0.95757   0.75166   0.00000  Uiso   1.00
C1031  C     0.31927   0.80215   0.72873   0.00000  Uiso   1.00
C1032  C     0.01370   0.86374   0.77268   0.00000  Uiso   1.00
C1033  C     0.03348   0.80264   0.72819   0.00000  Uiso   1.00
C1034  C     0.29983   0.86391   0.77211   0.00000  Uiso   1.00
C1035  C     0.13630   0.83289   0.83791   0.00000  Uiso   1.00
C1036  C     0.19699   0.83474   0.66162   0.00000  Uiso   1.00
C1037  C     0.11702   0.83115   0.88942   0.00000  Uiso   1.00
C1038  C     0.16669   0.75363   0.75143   0.00000  Uiso   1.00
C1039  C     0.21535   0.84052   0.60956   0.00000  Uiso   1.00
C1040  C     0.06788   0.79969   0.96471   0.00000  Uiso   1.00
C1041  C     0.27843   0.84748   0.53114   0.00000  Uiso   1.00
C1042  C     0.08301   0.80156   0.91505   0.00000  Uiso   1.00
C1043  C     0.26378   0.83492   0.57918   0.00000  Uiso   1.00
C1044  C     0.13886   0.85525   0.91253   0.00000  Uiso   1.00
C1045  C     0.18287   0.85150   0.58887   0.00000  Uiso   1.00
C1046  C     0.13347   0.84436   0.95842   0.00000  Uiso   1.00
C1047  C     0.19607   0.84510   0.54059   0.00000  Uiso   1.00
C1048  C     0.09174   0.82351   0.98708   0.00000  Uiso   1.00
C1049  C     0.11884   0.81866   0.54990   0.00000  Uiso   1.00
C1050  C     0.24430   0.84861   0.51030   0.00000  Uiso   1.00
C1051  C     0.17074   0.84813   0.97495   0.00000  Uiso   1.00
C1052  C     0.16163   0.83778   0.52216   0.00000  Uiso   1.00
C1053  C     0.29366   0.80698   0.59360   0.00000  Uiso   1.00
C1054  C     0.06495   0.77248   0.89047   0.00000  Uiso   1.00
C1055  C     0.03294   0.76941   0.99088   0.00000  Uiso   1.00
C1056  C     0.32044   0.87201   0.50934   0.00000  Uiso   1.00
C1057  C     0.30661   0.76678   0.70828   0.00000  Uiso   1.00
C1058  C     0.02496   0.89580   0.79866   0.00000  Uiso   1.00
C1059  C     0.21846   0.85468   0.94450   0.00000  Uiso   1.00
C1060  C     0.08087   0.82140   0.53596   0.00000  Uiso   1.00
C1061  C     0.25533   0.85333   0.96115   0.00000  Uiso   1.00
C1062  C     0.19112   0.97681   0.77355   0.00000  Uiso   1.00
C1063  C     0.13941   0.69029   0.73140   0.00000  Uiso   1.00
C1064  C     0.19181   0.68619   0.77518   0.00000  Uiso   1.00
H1065  H     0.11183   0.80933   0.58597   0.00000  Uiso   1.00
H1066  H     0.22853   0.85638   0.90678   0.00000  Uiso   1.00
H1067  H     0.21089   0.95863   0.79039   0.00000  Uiso   1.00
H1068  H     0.11964   0.70839   0.71445   0.00000  Uiso   1.00
H1069  H     0.05890   0.77779   0.71082   0.00000  Uiso   1.00
H1070  H     0.27422   0.88843   0.79015   0.00000  Uiso   1.00
N1071  N     0.04759   0.83334   0.75001   0.00000  Uiso   1.00
N1072  N     0.28574   0.83332   0.74999   0.00000  Uiso   1.00
N1073  N     0.31706   0.78387   0.60526   0.00000  Uiso   1.00
N1074  N     0.05061   0.74928   0.87083   0.00000  Uiso   1.00
N1075  N     0.00529   0.74472   0.51095   0.00000  Uiso   1.00
N1076  N     0.01962   0.89299   0.99100   0.00000  Uiso   1.00
N1077  N     0.29697   0.73779   0.69211   0.00000  Uiso   1.00
N1078  N     0.03366   0.92169   0.81975   0.00000  Uiso   1.00
O1079  O     0.12846   0.89442   0.75000   0.00000  Uiso   1.00
O1080  O     0.20488   0.77225   0.74999   0.00000  Uiso   1.00
O1081  O     0.20490   0.89441   0.75000   0.00000  Uiso   1.00
O1082  O     0.12843   0.77226   0.75000   0.00000  Uiso   1.00
O1083  O     0.10661   0.83334   0.81612   0.00000  Uiso   1.00
O1084  O     0.22672   0.83333   0.68387   0.00000  Uiso   1.00
O1085  O     0.18305   0.83333   0.81612   0.00000  Uiso   1.00
O1086  O     0.15028   0.83334   0.68388   0.00000  Uiso   1.00
Zn1087 Zn    0.11562   0.83334   0.75000   0.00000  Uiso   1.00
Zn1088 Zn    0.21771   0.83333   0.75000   0.00000  Uiso   1.00
Br1089 Br    0.37595   0.86574   0.57526   0.00000  Uiso   1.00
Br1090 Br    0.65191   0.85426   0.91293   0.00000  Uiso   1.00
Br1091 Br    0.46005   0.88601   0.62128   0.00000  Uiso   1.00
Br1092 Br    0.50169   0.90695   0.88459   0.00000  Uiso   1.00
Br1093 Br    0.55733   0.71004   0.81179   0.00000  Uiso   1.00
Br1094 Br    0.42729   0.96006   0.70529   0.00000  Uiso   1.00
C1095  C     0.49933   0.91319   0.74998   0.00000  Uiso   1.00
C1096  C     0.46985   0.98127   0.73202   0.00000  Uiso   1.00
C1097  C     0.50020   0.70945   0.75250   0.00000  Uiso   1.00
C1098  C     0.49747   0.95757   0.75166   0.00000  Uiso   1.00
C1099  C     0.65260   0.80215   0.72873   0.00000  Uiso   1.00
C1100  C     0.34703   0.86374   0.77268   0.00000  Uiso   1.00
C1101  C     0.36681   0.80264   0.72819   0.00000  Uiso   1.00
C1102  C     0.63316   0.86391   0.77211   0.00000  Uiso   1.00
C1103  C     0.46963   0.83289   0.83791   0.00000  Uiso   1.00
C1104  C     0.53032   0.83474   0.66162   0.00000  Uiso   1.00
C1105  C     0.45035   0.83115   0.88942   0.00000  Uiso   1.00
C1106  C     0.50002   0.75363   0.75143   0.00000  Uiso   1.00
C1107  C     0.54869   0.84052   0.60956   0.00000  Uiso   1.00
C1108  C     0.40122   0.79969   0.96471   0.00000  Uiso   1.00
C1109  C     0.61176   0.84748   0.53114   0.00000  Uiso   1.00
C1110  C     0.41635   0.80156   0.91505   0.00000  Uiso   1.00
C1111  C     0.59712   0.83492   0.57918   0.00000  Uiso   1.00
C1112  C     0.47219   0.85525   0.91253   0.00000  Uiso   1.00
C1113  C     0.51621   0.85150   0.58887   0.00000  Uiso   1.00
C1114  C     0.46680   0.84436   0.95842   0.00000  Uiso   1.00
C1115  C     0.52941   0.84510   0.54059   0.00000  Uiso   1.00
C1116  C     0.42508   0.82351   0.98708   0.00000  Uiso   1.00
C1117  C     0.45218   0.81866   0.54990   0.00000  Uiso   1.00
C1118  C     0.57763   0.84861   0.51030   0.00000  Uiso   1.00
C1119  C     0.50408   0.84813   0.97495   0.00000  Uiso   1.00
C1120  C     0.49497   0.83778   0.52216   0.00000  Uiso   1.00
C1121  C     0.62699   0.80698   0.59360   0.00000  Uiso   1.00
C1122  C     0.39829   0.77248   0.89047   0.00000  Uiso   1.00
C1123  C     0.36628   0.76941   0.99088   0.00000  Uiso   1.00
C1124  C     0.65377   0.87201   0.50934   0.00000  Uiso   1.00
C1125  C     0.63995   0.76678   0.70828   0.00000  Uiso   1.00
C1126  C     0.35829   0.89580   0.79866   0.00000  Uiso   1.00
C1127  C     0.55180   0.85468   0.94450   0.00000  Uiso   1.00
C1128  C     0.41420   0.82140   0.53596   0.00000  Uiso   1.00
C1129  C     0.58866   0.85333   0.96115   0.00000  Uiso   1.00
C1130  C     0.52446   0.97681   0.77355   0.00000  Uiso   1.00
C1131  C     0.47274   0.69029   0.73140   0.00000  Uiso   1.00
C1132  C     0.52514   0.68619   0.77518   0.00000  Uiso   1.00
H1133  H     0.44516   0.80933   0.58597   0.00000  Uiso   1.00
H1134  H     0.56186   0.85638   0.90678   0.00000  Uiso   1.00
H1135  H     0.54422   0.95863   0.79039   0.00000  Uiso   1.00
H1136  H     0.45297   0.70839   0.71445   0.00000  Uiso   1.00
H1137  H     0.39223   0.77779   0.71082   0.00000  Uiso   1.00
H1138  H     0.60756   0.88843   0.79015   0.00000  Uiso   1.00
N1139  N     0.38093   0.83334   0.75001   0.00000  Uiso   1.00
N1140  N     0.61907   0.83332   0.74999   0.00000  Uiso   1.00
N1141  N     0.65040   0.78387   0.60526   0.00000  Uiso   1.00
N1142  N     0.38395   0.74928   0.87083   0.00000  Uiso   1.00
N1143  N     0.33862   0.74472   0.51095   0.00000  Uiso   1.00
N1144  N     0.35295   0.89299   0.99100   0.00000  Uiso   1.00
N1145  N     0.63030   0.73779   0.69211   0.00000  Uiso   1.00
N1146  N     0.36699   0.92169   0.81975   0.00000  Uiso   1.00
O1147  O     0.46179   0.89442   0.75000   0.00000  Uiso   1.00
O1148  O     0.53821   0.77225   0.74999   0.00000  Uiso   1.00
O1149  O     0.53823   0.89441   0.75000   0.00000  Uiso   1.00
O1150  O     0.46177   0.77226   0.75000   0.00000  Uiso   1.00
O1151  O     0.43994   0.83334   0.81612   0.00000  Uiso   1.00
O1152  O     0.56006   0.83333   0.68387   0.00000  Uiso   1.00
O1153  O     0.51639   0.83333   0.81612   0.00000  Uiso   1.00
O1154  O     0.48361   0.83334   0.68388   0.00000  Uiso   1.00
Zn1155 Zn    0.44896   0.83334   0.75000   0.00000  Uiso   1.00
Zn1156 Zn    0.55104   0.83333   0.75000   0.00000  Uiso   1.00
Br1157 Br    0.70929   0.86574   0.57526   0.00000  Uiso   1.00
Br1158 Br    0.98524   0.85426   0.91293   0.00000  Uiso   1.00
Br1159 Br    0.79338   0.88601   0.62128   0.00000  Uiso   1.00
Br1160 Br    0.83502   0.90695   0.88459   0.00000  Uiso   1.00
Br1161 Br    0.89066   0.71004   0.81179   0.00000  Uiso   1.00
Br1162 Br    0.76063   0.96006   0.70529   0.00000  Uiso   1.00
C1163  C     0.83267   0.91319   0.74998   0.00000  Uiso   1.00
C1164  C     0.80319   0.98127   0.73202   0.00000  Uiso   1.00
C1165  C     0.83354   0.70945   0.75250   0.00000  Uiso   1.00
C1166  C     0.83081   0.95757   0.75166   0.00000  Uiso   1.00
C1167  C     0.98594   0.80215   0.72873   0.00000  Uiso   1.00
C1168  C     0.68036   0.86374   0.77268   0.00000  Uiso   1.00
C1169  C     0.70014   0.80264   0.72819   0.00000  Uiso   1.00
C1170  C     0.96649   0.86391   0.77211   0.00000  Uiso   1.00
C1171  C     0.80297   0.83289   0.83791   0.00000  Uiso   1.00
C1172  C     0.86365   0.83474   0.66162   0.00000  Uiso   1.00
C1173  C     0.78369   0.83115   0.88942   0.00000  Uiso   1.00
C1174  C     0.83336   0.75363   0.75143   0.00000  Uiso   1.00
C1175  C     0.88202   0.84052   0.60956   0.00000  Uiso   1.00
C1176  C     0.73455   0.79969   0.96471   0.00000  Uiso   1.00
C1177  C     0.94510   0.84748   0.53114   0.00000  Uiso   1.00
C1178  C     0.74968   0.80156   0.91505   0.00000  Uiso   1.00
C1179  C     0.93045   0.83492   0.57918   0.00000  Uiso   1.00
C1180  C     0.80552   0.85525   0.91253   0.00000  Uiso   1.00
C1181  C     0.84954   0.85150   0.58887   0.00000  Uiso   1.00
C1182  C     0.80014   0.84436   0.95842   0.00000  Uiso   1.00
C1183  C     0.86274   0.84510   0.54059   0.00000  Uiso   1.00
C1184  C     0.75841   0.82351   0.98708   0.00000  Uiso   1.00
C1185  C     0.78551   0.81866   0.54990   0.00000  Uiso   1.00
C1186  C     0.91096   0.84861   0.51030   0.00000  Uiso   1.00
C1187  C     0.83741   0.84813   0.97495   0.00000  Uiso   1.00
C1188  C     0.82830   0.83778   0.52216   0.00000  Uiso   1.00
C1189  C     0.96033   0.80698   0.59360   0.00000  Uiso   1.00
C1190  C     0.73162   0.77248   0.89047   0.00000  Uiso   1.00
C1191  C     0.69961   0.76941   0.99088   0.00000  Uiso   1.00
C1192  C     0.98711   0.87201   0.50934   0.00000  Uiso   1.00
C1193  C     0.97328   0.76678   0.70828   0.00000  Uiso   1.00
C1194  C     0.69162   0.89580   0.79866   0.00000  Uiso   1.00
C1195  C     0.88513   0.85468   0.94450   0.00000  Uiso   1.00
C1196  C     0.74753   0.82140   0.53596   0.00000  Uiso   1.00
C1197  C     0.92200   0.85333   0.96115   0.00000  Uiso   1.00
C1198  C     0.85779   0.97681   0.77355   0.00000  Uiso   1.00
C1199  C     0.80608   0.69029   0.73140   0.00000  Uiso   1.00
C1200  C     0.85848   0.68619   0.77518   0.00000  Uiso   1.00
H1201  H     0.77850   0.80933   0.58597   0.00000  Uiso   1.00
H1202  H     0.89519   0.85638   0.90678   0.00000  Uiso   1.00
H1203  H     0.87755   0.95863   0.79039   0.00000  Uiso   1.00
H1204  H     0.78630   0.70839   0.71445   0.00000  Uiso   1.00
H1205  H     0.72557   0.77779   0.71082   0.00000  Uiso   1.00
H1206  H     0.94089   0.88843   0.79015   0.00000  Uiso   1.00
N1207  N     0.71426   0.83334   0.75001   0.00000  Uiso   1.00
N1208  N     0.95241   0.83332   0.74999   0.00000  Uiso   1.00
N1209  N     0.98373   0.78387   0.60526   0.00000  Uiso   1.00
N1210  N     0.71728   0.74928   0.87083   0.00000  Uiso   1.00
N1211  N     0.67195   0.74472   0.51095   0.00000  Uiso   1.00
N1212  N     0.68629   0.89299   0.99100   0.00000  Uiso   1.00
N1213  N     0.96364   0.73779   0.69211   0.00000  Uiso   1.00
N1214  N     0.70033   0.92169   0.81975   0.00000  Uiso   1.00
O1215  O     0.79512   0.89442   0.75000   0.00000  Uiso   1.00
O1216  O     0.87154   0.77225   0.74999   0.00000  Uiso   1.00
O1217  O     0.87157   0.89441   0.75000   0.00000  Uiso   1.00
O1218  O     0.79510   0.77226   0.75000   0.00000  Uiso   1.00
O1219  O     0.77328   0.83334   0.81612   0.00000  Uiso   1.00
O1220  O     0.89339   0.83333   0.68387   0.00000  Uiso   1.00
O1221  O     0.84972   0.83333   0.81612   0.00000  Uiso   1.00
O1222  O     0.81695   0.83334   0.68388   0.00000  Uiso   1.00
Zn1223 Zn    0.78229   0.83334   0.75000   0.00000  Uiso   1.00
Zn1224 Zn    0.88438   0.83333   0.75000   0.00000  Uiso   1.00
loop_
_geom_bond_atom_site_label_1
_geom_bond_atom_site_label_2
_geom_bond_distance
_geom_bond_site_symmetry_2
_ccdc_geom_bond_type
Br1    C40     1.923   .     S
Br2    C41     1.917   .     S
Br3    C25     1.929   .     S
Br4    C24     1.938   .     S
Br5    C44     1.925   .     S
Br6    C8      1.916   .     S
C7     C10     1.427   .     S
C7     O61     1.306   .     A
C7     O59     1.301   .     A
C8     C10     1.406   .     A
C8     C247    1.366   .     S
C9     C43     1.394   .     A
C9     C18     1.420   .     S
C9     C44     1.403   .     A
C10    C42     1.401   .     A
C11    N52     1.381   .     A
C11    C37     1.436   .     S
C11    C81     1.431   .     S
C12    C38     1.437   .     S
C12    N51     1.378   .     A
C12    C150    1.434   1_455 S
C13    H49     1.083   .     S
C13    N51     1.366   .     A
C13    C147    1.431   1_455 S
C14    H50     1.083   .     S
C14    N52     1.369   .     A
C14    C80     1.434   .     S
C15    O65     1.311   .     A
C15    C17     1.461   .     S
C15    O63     1.309   .     A
C16    O64     1.321   .     A
C16    C19     1.488   .     S
C16    O66     1.313   .     A
C17    C24     1.395   .     A
C17    C22     1.413   .     A
C18    O60     1.301   .     A
C18    O62     1.302   .     A
C19    C23     1.409   .     A
C19    C25     1.394   .     A
C20    C28     1.416   .     A
C20    C35     1.448   .     S
C20    C22     1.414   .     A
C21    C30     1.407   .     A
C21    C36     1.440   .     S
C21    C23     1.424   .     A
C22    C34     1.451   .     S
C23    C33     1.437   .     S
C24    C26     1.396   .     A
C25    C27     1.396   .     A
C26    C28     1.413   .     A
C26    C31     1.411   .     A
C27    C30     1.403   .     A
C27    C32     1.389   .     A
C28    C652    1.408   .     S
C29    H45     1.084   .     S
C29    C40     1.371   .     A
C29    C32     1.401   .     A
C30    C653    1.422   1_554 S
C31    C39     1.406   .     A
C31    C644    1.405   .     S
C32    C643    1.405   1_554 S
C33    N53     1.156   .     T
C34    N54     1.157   .     T
C35    N667    1.157   .     S
C36    N736    1.158   1_554 S
C37    N57     1.158   .     T
C38    N58     1.158   .     T
C39    C41     1.393   .     A
C39    H46     1.079   .     S
C40    C640    1.408   1_554 S
C41    C642    1.422   .     S
C42    H47     1.084   .     S
C42    C248    1.376   .     S
C43    H48     1.085   .     S
C43    C416    1.366   1_545 S
C44    C450    1.376   1_545 S
N51    Zn67    2.056   .     S
N52    Zn68    2.056   .     S
N55    C647    1.157   1_554 S
N56    C784    1.158   1_455 S
O59    Zn67    2.012   .     S
O60    Zn68    2.012   .     S
O61    Zn68    1.990   .     S
O62    Zn67    1.990   .     S
O63    Zn67    1.942   .     S
O64    Zn68    1.942   .     S
O65    Zn68    1.893   .     S
O66    Zn67    1.893   .     S
Br69   C108    1.923   .     S
Br70   C109    1.917   .     S
Br71   C93     1.929   .     S
Br72   C92     1.938   .     S
Br73   C112    1.925   .     S
Br74   C76     1.916   .     S
C75    C78     1.427   .     S
C75    O129    1.306   .     A
C75    O127    1.301   .     A
C76    C78     1.406   .     A
C76    C315    1.366   .     S
C77    C111    1.394   .     A
C77    C86     1.420   .     S
C77    C112    1.403   .     A
C78    C110    1.401   .     A
C79    N120    1.381   .     A
C79    C105    1.436   .     S
C79    C149    1.431   .     S
C80    C106    1.437   .     S
C80    N119    1.378   .     A
C81    H117    1.083   .     S
C81    N119    1.366   .     A
C82    H118    1.083   .     S
C82    N120    1.369   .     A
C82    C148    1.434   .     S
C83    O133    1.311   .     A
C83    C85     1.461   .     S
C83    O131    1.309   .     A
C84    O132    1.321   .     A
C84    C87     1.488   .     S
C84    O134    1.313   .     A
C85    C92     1.395   .     A
C85    C90     1.413   .     A
C86    O128    1.301   .     A
C86    O130    1.302   .     A
C87    C91     1.409   .     A
C87    C93     1.394   .     A
C88    C96     1.416   .     A
C88    C103    1.448   .     S
C88    C90     1.414   .     A
C89    C98     1.407   .     A
C89    C104    1.440   .     S
C89    C91     1.424   .     A
C90    C102    1.451   .     S
C91    C101    1.437   .     S
C92    C94     1.396   .     A
C93    C95     1.396   .     A
C94    C96     1.413   .     A
C94    C99     1.411   .     A
C95    C98     1.403   .     A
C95    C100    1.389   .     A
C96    C720    1.408   .     S
C97    H113    1.084   .     S
C97    C108    1.371   .     A
C97    C100    1.401   .     A
C98    C721    1.422   1_554 S
C99    C107    1.406   .     A
C99    C712    1.405   .     S
C100   C711    1.405   1_554 S
C101   N121    1.156   .     T
C102   N122    1.157   .     T
C103   N735    1.157   .     S
C104   N804    1.158   1_554 S
C105   N125    1.158   .     T
C106   N126    1.158   .     T
C107   C109    1.393   .     A
C107   H114    1.079   .     S
C108   C708    1.408   1_554 S
C109   C710    1.422   .     S
C110   H115    1.084   .     S
C110   C316    1.376   .     S
C111   H116    1.085   .     S
C111   C484    1.366   1_545 S
C112   C518    1.376   1_545 S
N119   Zn135   2.056   .     S
N120   Zn136   2.056   .     S
N123   C715    1.157   1_554 S
N124   C648    1.158   .     S
O127   Zn135   2.012   .     S
O128   Zn136   2.012   .     S
O129   Zn136   1.990   .     S
O130   Zn135   1.990   .     S
O131   Zn135   1.942   .     S
O132   Zn136   1.942   .     S
O133   Zn136   1.893   .     S
O134   Zn135   1.893   .     S
Br137  C176    1.923   .     S
Br138  C177    1.917   .     S
Br139  C161    1.929   .     S
Br140  C160    1.938   .     S
Br141  C180    1.925   .     S
Br142  C144    1.916   .     S
C143   C146    1.427   .     S
C143   O197    1.306   .     A
C143   O195    1.301   .     A
C144   C146    1.406   .     A
C144   C383    1.366   .     S
C145   C179    1.394   .     A
C145   C154    1.420   .     S
C145   C180    1.403   .     A
C146   C178    1.401   .     A
C147   N188    1.381   .     A
C147   C173    1.436   .     S
C147   C13     1.431   1_655 S
C148   C174    1.437   .     S
C148   N187    1.378   .     A
C149   H185    1.083   .     S
C149   N187    1.366   .     A
C150   H186    1.083   .     S
C150   N188    1.369   .     A
C150   C12     1.434   1_655 S
C151   O201    1.311   .     A
C151   C153    1.461   .     S
C151   O199    1.309   .     A
C152   O200    1.321   .     A
C152   C155    1.488   .     S
C152   O202    1.313   .     A
C153   C160    1.395   .     A
C153   C158    1.413   .     A
C154   O196    1.301   .     A
C154   O198    1.302   .     A
C155   C159    1.409   .     A
C155   C161    1.394   .     A
C156   C164    1.416   .     A
C156   C171    1.448   .     S
C156   C158    1.414   .     A
C157   C166    1.407   .     A
C157   C172    1.440   .     S
C157   C159    1.424   .     A
C158   C170    1.451   .     S
C159   C169    1.437   .     S
C160   C162    1.396   .     A
C161   C163    1.396   .     A
C162   C164    1.413   .     A
C162   C167    1.411   .     A
C163   C166    1.403   .     A
C163   C168    1.389   .     A
C164   C788    1.408   .     S
C165   H181    1.084   .     S
C165   C176    1.371   .     A
C165   C168    1.401   .     A
C166   C789    1.422   1_554 S
C167   C175    1.406   .     A
C167   C780    1.405   .     S
C168   C779    1.405   1_554 S
C169   N189    1.156   .     T
C170   N190    1.157   .     T
C171   N803    1.157   .     S
C172   N668    1.158   1_654 S
C173   N193    1.158   .     T
C174   N194    1.158   .     T
C175   C177    1.393   .     A
C175   H182    1.079   .     S
C176   C776    1.408   1_554 S
C177   C778    1.422   .     S
C178   H183    1.084   .     S
C178   C384    1.376   .     S
C179   H184    1.085   .     S
C179   C552    1.366   1_545 S
C180   C586    1.376   1_545 S
N187   Zn203   2.056   .     S
N188   Zn204   2.056   .     S
N191   C783    1.157   1_554 S
N192   C716    1.158   .     S
O195   Zn203   2.012   .     S
O196   Zn204   2.012   .     S
O197   Zn204   1.990   .     S
O198   Zn203   1.990   .     S
O199   Zn203   1.942   .     S
O200   Zn204   1.942   .     S
O201   Zn204   1.893   .     S
O202   Zn203   1.893   .     S
Br205  C244    1.923   .     S
Br206  C245    1.917   .     S
Br207  C229    1.929   .     S
Br208  C228    1.938   .     S
Br209  C248    1.925   .     S
Br210  C212    1.916   .     S
C211   C214    1.427   .     S
C211   O265    1.306   .     A
C211   O263    1.301   .     A
C212   C214    1.406   .     A
C212   C451    1.366   .     S
C213   C247    1.394   .     A
C213   C222    1.420   .     S
C213   C248    1.403   .     A
C214   C246    1.401   .     A
C215   N256    1.381   .     A
C215   C241    1.436   .     S
C215   C285    1.431   .     S
C216   C242    1.437   .     S
C216   N255    1.378   .     A
C216   C354    1.434   1_455 S
C217   H253    1.083   .     S
C217   N255    1.366   .     A
C217   C351    1.431   1_455 S
C218   H254    1.083   .     S
C218   N256    1.369   .     A
C218   C284    1.434   .     S
C219   O269    1.311   .     A
C219   C221    1.461   .     S
C219   O267    1.309   .     A
C220   O268    1.321   .     A
C220   C223    1.488   .     S
C220   O270    1.313   .     A
C221   C228    1.395   .     A
C221   C226    1.413   .     A
C222   O264    1.301   .     A
C222   O266    1.302   .     A
C223   C227    1.409   .     A
C223   C229    1.394   .     A
C224   C232    1.416   .     A
C224   C239    1.448   .     S
C224   C226    1.414   .     A
C225   C234    1.407   .     A
C225   C240    1.440   .     S
C225   C227    1.424   .     A
C226   C238    1.451   .     S
C227   C237    1.437   .     S
C228   C230    1.396   .     A
C229   C231    1.396   .     A
C230   C232    1.413   .     A
C230   C235    1.411   .     A
C231   C234    1.403   .     A
C231   C236    1.389   .     A
C232   C856    1.408   .     S
C233   H249    1.084   .     S
C233   C244    1.371   .     A
C233   C236    1.401   .     A
C234   C857    1.422   1_554 S
C235   C243    1.406   .     A
C235   C848    1.405   .     S
C236   C847    1.405   1_554 S
C237   N257    1.156   .     T
C238   N258    1.157   .     T
C239   N871    1.157   .     S
C240   N940    1.158   1_554 S
C241   N261    1.158   .     T
C242   N262    1.158   .     T
C243   C245    1.393   .     A
C243   H250    1.079   .     S
C244   C844    1.408   1_554 S
C245   C846    1.422   .     S
C246   H251    1.084   .     S
C246   C452    1.376   .     S
C247   H252    1.085   .     S
N255   Zn271   2.056   .     S
N256   Zn272   2.056   .     S
N259   C851    1.157   1_554 S
N260   C988    1.158   1_455 S
O263   Zn271   2.012   .     S
O264   Zn272   2.012   .     S
O265   Zn272   1.990   .     S
O266   Zn271   1.990   .     S
O267   Zn271   1.942   .     S
O268   Zn272   1.942   .     S
O269   Zn272   1.893   .     S
O270   Zn271   1.893   .     S
Br273  C312    1.923   .     S
Br274  C313    1.917   .     S
Br275  C297    1.929   .     S
Br276  C296    1.938   .     S
Br277  C316    1.925   .     S
Br278  C280    1.916   .     S
C279   C282    1.427   .     S
C279   O333    1.306   .     A
C279   O331    1.301   .     A
C280   C282    1.406   .     A
C280   C519    1.366   .     S
C281   C315    1.394   .     A
C281   C290    1.420   .     S
C281   C316    1.403   .     A
C282   C314    1.401   .     A
C283   N324    1.381   .     A
C283   C309    1.436   .     S
C283   C353    1.431   .     S
C284   C310    1.437   .     S
C284   N323    1.378   .     A
C285   H321    1.083   .     S
C285   N323    1.366   .     A
C286   H322    1.083   .     S
C286   N324    1.369   .     A
C286   C352    1.434   .     S
C287   O337    1.311   .     A
C287   C289    1.461   .     S
C287   O335    1.309   .     A
C288   O336    1.321   .     A
C288   C291    1.488   .     S
C288   O338    1.313   .     A
C289   C296    1.395   .     A
C289   C294    1.413   .     A
C290   O332    1.301   .     A
C290   O334    1.302   .     A
C291   C295    1.409   .     A
C291   C297    1.394   .     A
C292   C300    1.416   .     A
C292   C307    1.448   .     S
C292   C294    1.414   .     A
C293   C302    1.407   .     A
C293   C308    1.440   .     S
C293   C295    1.424   .     A
C294   C306    1.451   .     S
C295   C305    1.437   .     S
C296   C298    1.396   .     A
C297   C299    1.396   .     A
C298   C300    1.413   .     A
C298   C303    1.411   .     A
C299   C302    1.403   .     A
C299   C304    1.389   .     A
C300   C924    1.408   .     S
C301   H317    1.084   .     S
C301   C312    1.371   .     A
C301   C304    1.401   .     A
C302   C925    1.422   1_554 S
C303   C311    1.406   .     A
C303   C916    1.405   .     S
C304   C915    1.405   1_554 S
C305   N325    1.156   .     T
C306   N326    1.157   .     T
C307   N939    1.157   .     S
C308   N1008   1.158   1_554 S
C309   N329    1.158   .     T
C310   N330    1.158   .     T
C311   C313    1.393   .     A
C311   H318    1.079   .     S
C312   C912    1.408   1_554 S
C313   C914    1.422   .     S
C314   H319    1.084   .     S
C314   C520    1.376   .     S
C315   H320    1.085   .     S
N323   Zn339   2.056   .     S
N324   Zn340   2.056   .     S
N327   C919    1.157   1_554 S
N328   C852    1.158   .     S
O331   Zn339   2.012   .     S
O332   Zn340   2.012   .     S
O333   Zn340   1.990   .     S
O334   Zn339   1.990   .     S
O335   Zn339   1.942   .     S
O336   Zn340   1.942   .     S
O337   Zn340   1.893   .     S
O338   Zn339   1.893   .     S
Br341  C380    1.923   .     S
Br342  C381    1.917   .     S
Br343  C365    1.929   .     S
Br344  C364    1.938   .     S
Br345  C384    1.925   .     S
Br346  C348    1.916   .     S
C347   C350    1.427   .     S
C347   O401    1.306   .     A
C347   O399    1.301   .     A
C348   C350    1.406   .     A
C348   C587    1.366   .     S
C349   C383    1.394   .     A
C349   C358    1.420   .     S
C349   C384    1.403   .     A
C350   C382    1.401   .     A
C351   N392    1.381   .     A
C351   C377    1.436   .     S
C351   C217    1.431   1_655 S
C352   C378    1.437   .     S
C352   N391    1.378   .     A
C353   H389    1.083   .     S
C353   N391    1.366   .     A
C354   H390    1.083   .     S
C354   N392    1.369   .     A
C354   C216    1.434   1_655 S
C355   O405    1.311   .     A
C355   C357    1.461   .     S
C355   O403    1.309   .     A
C356   O404    1.321   .     A
C356   C359    1.488   .     S
C356   O406    1.313   .     A
C357   C364    1.395   .     A
C357   C362    1.413   .     A
C358   O400    1.301   .     A
C358   O402    1.302   .     A
C359   C363    1.409   .     A
C359   C365    1.394   .     A
C360   C368    1.416   .     A
C360   C375    1.448   .     S
C360   C362    1.414   .     A
C361   C370    1.407   .     A
C361   C376    1.440   .     S
C361   C363    1.424   .     A
C362   C374    1.451   .     S
C363   C373    1.437   .     S
C364   C366    1.396   .     A
C365   C367    1.396   .     A
C366   C368    1.413   .     A
C366   C371    1.411   .     A
C367   C370    1.403   .     A
C367   C372    1.389   .     A
C368   C992    1.408   .     S
C369   H385    1.084   .     S
C369   C380    1.371   .     A
C369   C372    1.401   .     A
C370   C993    1.422   1_554 S
C371   C379    1.406   .     A
C371   C984    1.405   .     S
C372   C983    1.405   1_554 S
C373   N393    1.156   .     T
C374   N394    1.157   .     T
C375   N1007   1.157   .     S
C376   N872    1.158   1_654 S
C377   N397    1.158   .     T
C378   N398    1.158   .     T
C379   C381    1.393   .     A
C379   H386    1.079   .     S
C380   C980    1.408   1_554 S
C381   C982    1.422   .     S
C382   H387    1.084   .     S
C382   C588    1.376   .     S
C383   H388    1.085   .     S
N391   Zn407   2.056   .     S
N392   Zn408   2.056   .     S
N395   C987    1.157   1_554 S
N396   C920    1.158   .     S
O399   Zn407   2.012   .     S
O400   Zn408   2.012   .     S
O401   Zn408   1.990   .     S
O402   Zn407   1.990   .     S
O403   Zn407   1.942   .     S
O404   Zn408   1.942   .     S
O405   Zn408   1.893   .     S
O406   Zn407   1.893   .     S
Br409  C448    1.923   .     S
Br410  C449    1.917   .     S
Br411  C433    1.929   .     S
Br412  C432    1.938   .     S
Br413  C452    1.925   .     S
Br414  C416    1.916   .     S
C415   C418    1.427   .     S
C415   O469    1.306   .     A
C415   O467    1.301   .     A
C416   C418    1.406   .     A
C416   C43     1.366   1_565 S
C417   C451    1.394   .     A
C417   C426    1.420   .     S
C417   C452    1.403   .     A
C418   C450    1.401   .     A
C419   N460    1.381   .     A
C419   C445    1.436   .     S
C419   C489    1.431   .     S
C420   C446    1.437   .     S
C420   N459    1.378   .     A
C420   C558    1.434   1_455 S
C421   H457    1.083   .     S
C421   N459    1.366   .     A
C421   C555    1.431   1_455 S
C422   H458    1.083   .     S
C422   N460    1.369   .     A
C422   C488    1.434   .     S
C423   O473    1.311   .     A
C423   C425    1.461   .     S
C423   O471    1.309   .     A
C424   O472    1.321   .     A
C424   C427    1.488   .     S
C424   O474    1.313   .     A
C425   C432    1.395   .     A
C425   C430    1.413   .     A
C426   O468    1.301   .     A
C426   O470    1.302   .     A
C427   C431    1.409   .     A
C427   C433    1.394   .     A
C428   C436    1.416   .     A
C428   C443    1.448   .     S
C428   C430    1.414   .     A
C429   C438    1.407   .     A
C429   C444    1.440   .     S
C429   C431    1.424   .     A
C430   C442    1.451   .     S
C431   C441    1.437   .     S
C432   C434    1.396   .     A
C433   C435    1.396   .     A
C434   C436    1.413   .     A
C434   C439    1.411   .     A
C435   C438    1.403   .     A
C435   C440    1.389   .     A
C436   C1060   1.408   .     S
C437   H453    1.084   .     S
C437   C448    1.371   .     A
C437   C440    1.401   .     A
C438   C1061   1.422   1_554 S
C439   C447    1.406   .     A
C439   C1052   1.405   .     S
C440   C1051   1.405   1_554 S
C441   N461    1.156   .     T
C442   N462    1.157   .     T
C443   N1075   1.157   .     S
C444   N1144   1.158   1_554 S
C445   N465    1.158   .     T
C446   N466    1.158   .     T
C447   C449    1.393   .     A
C447   H454    1.079   .     S
C448   C1048   1.408   1_554 S
C449   C1050   1.422   .     S
C450   H455    1.084   .     S
C450   C44     1.376   1_565 S
C451   H456    1.085   .     S
N459   Zn475   2.056   .     S
N460   Zn476   2.056   .     S
N463   C1055   1.157   1_554 S
N464   C1192   1.158   1_455 S
O467   Zn475   2.012   .     S
O468   Zn476   2.012   .     S
O469   Zn476   1.990   .     S
O470   Zn475   1.990   .     S
O471   Zn475   1.942   .     S
O472   Zn476   1.942   .     S
O473   Zn476   1.893   .     S
O474   Zn475   1.893   .     S
Br477  C516    1.923   .     S
Br478  C517    1.917   .     S
Br479  C501    1.929   .     S
Br480  C500    1.938   .     S
Br481  C520    1.925   .     S
Br482  C484    1.916   .     S
C483   C486    1.427   .     S
C483   O537    1.306   .     A
C483   O535    1.301   .     A
C484   C486    1.406   .     A
C484   C111    1.366   1_565 S
C485   C519    1.394   .     A
C485   C494    1.420   .     S
C485   C520    1.403   .     A
C486   C518    1.401   .     A
C487   N528    1.381   .     A
C487   C513    1.436   .     S
C487   C557    1.431   .     S
C488   C514    1.437   .     S
C488   N527    1.378   .     A
C489   H525    1.083   .     S
C489   N527    1.366   .     A
C490   H526    1.083   .     S
C490   N528    1.369   .     A
C490   C556    1.434   .     S
C491   O541    1.311   .     A
C491   C493    1.461   .     S
C491   O539    1.309   .     A
C492   O540    1.321   .     A
C492   C495    1.488   .     S
C492   O542    1.313   .     A
C493   C500    1.395   .     A
C493   C498    1.413   .     A
C494   O536    1.301   .     A
C494   O538    1.302   .     A
C495   C499    1.409   .     A
C495   C501    1.394   .     A
C496   C504    1.416   .     A
C496   C511    1.448   .     S
C496   C498    1.414   .     A
C497   C506    1.407   .     A
C497   C512    1.440   .     S
C497   C499    1.424   .     A
C498   C510    1.451   .     S
C499   C509    1.437   .     S
C500   C502    1.396   .     A
C501   C503    1.396   .     A
C502   C504    1.413   .     A
C502   C507    1.411   .     A
C503   C506    1.403   .     A
C503   C508    1.389   .     A
C504   C1128   1.408   .     S
C505   H521    1.084   .     S
C505   C516    1.371   .     A
C505   C508    1.401   .     A
C506   C1129   1.422   1_554 S
C507   C515    1.406   .     A
C507   C1120   1.405   .     S
C508   C1119   1.405   1_554 S
C509   N529    1.156   .     T
C510   N530    1.157   .     T
C511   N1143   1.157   .     S
C512   N1212   1.158   1_554 S
C513   N533    1.158   .     T
C514   N534    1.158   .     T
C515   C517    1.393   .     A
C515   H522    1.079   .     S
C516   C1116   1.408   1_554 S
C517   C1118   1.422   .     S
C518   H523    1.084   .     S
C518   C112    1.376   1_565 S
C519   H524    1.085   .     S
N527   Zn543   2.056   .     S
N528   Zn544   2.056   .     S
N531   C1123   1.157   1_554 S
N532   C1056   1.158   .     S
O535   Zn543   2.012   .     S
O536   Zn544   2.012   .     S
O537   Zn544   1.990   .     S
O538   Zn543   1.990   .     S
O539   Zn543   1.942   .     S
O540   Zn544   1.942   .     S
O541   Zn544   1.893   .     S
O542   Zn543   1.893   .     S
Br545  C584    1.923   .     S
Br546  C585    1.917   .     S
Br547  C569    1.929   .     S
Br548  C568    1.938   .     S
Br549  C588    1.925   .     S
Br550  C552    1.916   .     S
C551   C554    1.427   .     S
C551   O605    1.306   .     A
C551   O603    1.301   .     A
C552   C554    1.406   .     A
C552   C179    1.366   1_565 S
C553   C587    1.394   .     A
C553   C562    1.420   .     S
C553   C588    1.403   .     A
C554   C586    1.401   .     A
C555   N596    1.381   .     A
C555   C581    1.436   .     S
C555   C421    1.431   1_655 S
C556   C582    1.437   .     S
C556   N595    1.378   .     A
C557   H593    1.083   .     S
C557   N595    1.366   .     A
C558   H594    1.083   .     S
C558   N596    1.369   .     A
C558   C420    1.434   1_655 S
C559   O609    1.311   .     A
C559   C561    1.461   .     S
C559   O607    1.309   .     A
C560   O608    1.321   .     A
C560   C563    1.488   .     S
C560   O610    1.313   .     A
C561   C568    1.395   .     A
C561   C566    1.413   .     A
C562   O604    1.301   .     A
C562   O606    1.302   .     A
C563   C567    1.409   .     A
C563   C569    1.394   .     A
C564   C572    1.416   .     A
C564   C579    1.448   .     S
C564   C566    1.414   .     A
C565   C574    1.407   .     A
C565   C580    1.440   .     S
C565   C567    1.424   .     A
C566   C578    1.451   .     S
C567   C577    1.437   .     S
C568   C570    1.396   .     A
C569   C571    1.396   .     A
C570   C572    1.413   .     A
C570   C575    1.411   .     A
C571   C574    1.403   .     A
C571   C576    1.389   .     A
C572   C1196   1.408   .     S
C573   H589    1.084   .     S
C573   C584    1.371   .     A
C573   C576    1.401   .     A
C574   C1197   1.422   1_554 S
C575   C583    1.406   .     A
C575   C1188   1.405   .     S
C576   C1187   1.405   1_554 S
C577   N597    1.156   .     T
C578   N598    1.157   .     T
C579   N1211   1.157   .     S
C580   N1076   1.158   1_654 S
C581   N601    1.158   .     T
C582   N602    1.158   .     T
C583   C585    1.393   .     A
C583   H590    1.079   .     S
C584   C1184   1.408   1_554 S
C585   C1186   1.422   .     S
C586   H591    1.084   .     S
C586   C180    1.376   1_565 S
C587   H592    1.085   .     S
N595   Zn611   2.056   .     S
N596   Zn612   2.056   .     S
N599   C1191   1.157   1_554 S
N600   C1124   1.158   .     S
O603   Zn611   2.012   .     S
O604   Zn612   2.012   .     S
O605   Zn612   1.990   .     S
O606   Zn611   1.990   .     S
O607   Zn611   1.942   .     S
O608   Zn612   1.942   .     S
O609   Zn612   1.893   .     S
O610   Zn611   1.893   .     S
Br613  C652    1.923   .     S
Br614  C653    1.917   .     S
Br615  C637    1.929   .     S
Br616  C636    1.938   .     S
Br617  C656    1.925   .     S
Br618  C620    1.916   .     S
C619   C622    1.427   .     S
C619   O673    1.306   .     A
C619   O671    1.301   .     A
C620   C622    1.406   .     A
C620   C859    1.366   .     S
C621   C655    1.394   .     A
C621   C630    1.420   .     S
C621   C656    1.403   .     A
C622   C654    1.401   .     A
C623   N664    1.381   .     A
C623   C649    1.436   .     S
C623   C693    1.431   .     S
C624   C650    1.437   .     S
C624   N663    1.378   .     A
C624   C762    1.434   1_455 S
C625   H661    1.083   .     S
C625   N663    1.366   .     A
C625   C759    1.431   1_455 S
C626   H662    1.083   .     S
C626   N664    1.369   .     A
C626   C692    1.434   .     S
C627   O677    1.311   .     A
C627   C629    1.461   .     S
C627   O675    1.309   .     A
C628   O676    1.321   .     A
C628   C631    1.488   .     S
C628   O678    1.313   .     A
C629   C636    1.395   .     A
C629   C634    1.413   .     A
C630   O672    1.301   .     A
C630   O674    1.302   .     A
C631   C635    1.409   .     A
C631   C637    1.394   .     A
C632   C640    1.416   .     A
C632   C647    1.448   .     S
C632   C634    1.414   .     A
C633   C642    1.407   .     A
C633   C648    1.440   .     S
C633   C635    1.424   .     A
C634   C646    1.451   .     S
C635   C645    1.437   .     S
C636   C638    1.396   .     A
C637   C639    1.396   .     A
C638   C640    1.413   .     A
C638   C643    1.411   .     A
C639   C642    1.403   .     A
C639   C644    1.389   .     A
C640   C40     1.408   1_556 S
C641   H657    1.084   .     S
C641   C652    1.371   .     A
C641   C644    1.401   .     A
C643   C651    1.406   .     A
C643   C32     1.405   1_556 S
C645   N665    1.156   .     T
C646   N666    1.157   .     T
C647   N55     1.157   1_556 S
C649   N669    1.158   .     T
C650   N670    1.158   .     T
C651   C653    1.393   .     A
C651   H658    1.079   .     S
C653   C30     1.422   1_556 S
C654   H659    1.084   .     S
C654   C860    1.376   .     S
C655   H660    1.085   .     S
C655   C1028   1.366   1_545 S
C656   C1062   1.376   1_545 S
N663   Zn679   2.056   .     S
N664   Zn680   2.056   .     S
N668   C172    1.158   1_456 S
O671   Zn679   2.012   .     S
O672   Zn680   2.012   .     S
O673   Zn680   1.990   .     S
O674   Zn679   1.990   .     S
O675   Zn679   1.942   .     S
O676   Zn680   1.942   .     S
O677   Zn680   1.893   .     S
O678   Zn679   1.893   .     S
Br681  C720    1.923   .     S
Br682  C721    1.917   .     S
Br683  C705    1.929   .     S
Br684  C704    1.938   .     S
Br685  C724    1.925   .     S
Br686  C688    1.916   .     S
C687   C690    1.427   .     S
C687   O741    1.306   .     A
C687   O739    1.301   .     A
C688   C690    1.406   .     A
C688   C927    1.366   .     S
C689   C723    1.394   .     A
C689   C698    1.420   .     S
C689   C724    1.403   .     A
C690   C722    1.401   .     A
C691   N732    1.381   .     A
C691   C717    1.436   .     S
C691   C761    1.431   .     S
C692   C718    1.437   .     S
C692   N731    1.378   .     A
C693   H729    1.083   .     S
C693   N731    1.366   .     A
C694   H730    1.083   .     S
C694   N732    1.369   .     A
C694   C760    1.434   .     S
C695   O745    1.311   .     A
C695   C697    1.461   .     S
C695   O743    1.309   .     A
C696   O744    1.321   .     A
C696   C699    1.488   .     S
C696   O746    1.313   .     A
C697   C704    1.395   .     A
C697   C702    1.413   .     A
C698   O740    1.301   .     A
C698   O742    1.302   .     A
C699   C703    1.409   .     A
C699   C705    1.394   .     A
C700   C708    1.416   .     A
C700   C715    1.448   .     S
C700   C702    1.414   .     A
C701   C710    1.407   .     A
C701   C716    1.440   .     S
C701   C703    1.424   .     A
C702   C714    1.451   .     S
C703   C713    1.437   .     S
C704   C706    1.396   .     A
C705   C707    1.396   .     A
C706   C708    1.413   .     A
C706   C711    1.411   .     A
C707   C710    1.403   .     A
C707   C712    1.389   .     A
C708   C108    1.408   1_556 S
C709   H725    1.084   .     S
C709   C720    1.371   .     A
C709   C712    1.401   .     A
C711   C719    1.406   .     A
C711   C100    1.405   1_556 S
C713   N733    1.156   .     T
C714   N734    1.157   .     T
C715   N123    1.157   1_556 S
C717   N737    1.158   .     T
C718   N738    1.158   .     T
C719   C721    1.393   .     A
C719   H726    1.079   .     S
C721   C98     1.422   1_556 S
C722   H727    1.084   .     S
C722   C928    1.376   .     S
C723   H728    1.085   .     S
C723   C1096   1.366   1_545 S
C724   C1130   1.376   1_545 S
N731   Zn747   2.056   .     S
N732   Zn748   2.056   .     S
N736   C36     1.158   1_556 S
O739   Zn747   2.012   .     S
O740   Zn748   2.012   .     S
O741   Zn748   1.990   .     S
O742   Zn747   1.990   .     S
O743   Zn747   1.942   .     S
O744   Zn748   1.942   .     S
O745   Zn748   1.893   .     S
O746   Zn747   1.893   .     S
Br749  C788    1.923   .     S
Br750  C789    1.917   .     S
Br751  C773    1.929   .     S
Br752  C772    1.938   .     S
Br753  C792    1.925   .     S
Br754  C756    1.916   .     S
C755   C758    1.427   .     S
C755   O809    1.306   .     A
C755   O807    1.301   .     A
C756   C758    1.406   .     A
C756   C995    1.366   .     S
C757   C791    1.394   .     A
C757   C766    1.420   .     S
C757   C792    1.403   .     A
C758   C790    1.401   .     A
C759   N800    1.381   .     A
C759   C785    1.436   .     S
C759   C625    1.431   1_655 S
C760   C786    1.437   .     S
C760   N799    1.378   .     A
C761   H797    1.083   .     S
C761   N799    1.366   .     A
C762   H798    1.083   .     S
C762   N800    1.369   .     A
C762   C624    1.434   1_655 S
C763   O813    1.311   .     A
C763   C765    1.461   .     S
C763   O811    1.309   .     A
C764   O812    1.321   .     A
C764   C767    1.488   .     S
C764   O814    1.313   .     A
C765   C772    1.395   .     A
C765   C770    1.413   .     A
C766   O808    1.301   .     A
C766   O810    1.302   .     A
C767   C771    1.409   .     A
C767   C773    1.394   .     A
C768   C776    1.416   .     A
C768   C783    1.448   .     S
C768   C770    1.414   .     A
C769   C778    1.407   .     A
C769   C784    1.440   .     S
C769   C771    1.424   .     A
C770   C782    1.451   .     S
C771   C781    1.437   .     S
C772   C774    1.396   .     A
C773   C775    1.396   .     A
C774   C776    1.413   .     A
C774   C779    1.411   .     A
C775   C778    1.403   .     A
C775   C780    1.389   .     A
C776   C176    1.408   1_556 S
C777   H793    1.084   .     S
C777   C788    1.371   .     A
C777   C780    1.401   .     A
C779   C787    1.406   .     A
C779   C168    1.405   1_556 S
C781   N801    1.156   .     T
C782   N802    1.157   .     T
C783   N191    1.157   1_556 S
C784   N56     1.158   1_655 S
C785   N805    1.158   .     T
C786   N806    1.158   .     T
C787   C789    1.393   .     A
C787   H794    1.079   .     S
C789   C166    1.422   1_556 S
C790   H795    1.084   .     S
C790   C996    1.376   .     S
C791   H796    1.085   .     S
C791   C1164   1.366   1_545 S
C792   C1198   1.376   1_545 S
N799   Zn815   2.056   .     S
N800   Zn816   2.056   .     S
N804   C104    1.158   1_556 S
O807   Zn815   2.012   .     S
O808   Zn816   2.012   .     S
O809   Zn816   1.990   .     S
O810   Zn815   1.990   .     S
O811   Zn815   1.942   .     S
O812   Zn816   1.942   .     S
O813   Zn816   1.893   .     S
O814   Zn815   1.893   .     S
Br817  C856    1.923   .     S
Br818  C857    1.917   .     S
Br819  C841    1.929   .     S
Br820  C840    1.938   .     S
Br821  C860    1.925   .     S
Br822  C824    1.916   .     S
C823   C826    1.427   .     S
C823   O877    1.306   .     A
C823   O875    1.301   .     A
C824   C826    1.406   .     A
C824   C1063   1.366   .     S
C825   C859    1.394   .     A
C825   C834    1.420   .     S
C825   C860    1.403   .     A
C826   C858    1.401   .     A
C827   N868    1.381   .     A
C827   C853    1.436   .     S
C827   C897    1.431   .     S
C828   C854    1.437   .     S
C828   N867    1.378   .     A
C828   C966    1.434   1_455 S
C829   H865    1.083   .     S
C829   N867    1.366   .     A
C829   C963    1.431   1_455 S
C830   H866    1.083   .     S
C830   N868    1.369   .     A
C830   C896    1.434   .     S
C831   O881    1.311   .     A
C831   C833    1.461   .     S
C831   O879    1.309   .     A
C832   O880    1.321   .     A
C832   C835    1.488   .     S
C832   O882    1.313   .     A
C833   C840    1.395   .     A
C833   C838    1.413   .     A
C834   O876    1.301   .     A
C834   O878    1.302   .     A
C835   C839    1.409   .     A
C835   C841    1.394   .     A
C836   C844    1.416   .     A
C836   C851    1.448   .     S
C836   C838    1.414   .     A
C837   C846    1.407   .     A
C837   C852    1.440   .     S
C837   C839    1.424   .     A
C838   C850    1.451   .     S
C839   C849    1.437   .     S
C840   C842    1.396   .     A
C841   C843    1.396   .     A
C842   C844    1.413   .     A
C842   C847    1.411   .     A
C843   C846    1.403   .     A
C843   C848    1.389   .     A
C844   C244    1.408   1_556 S
C845   H861    1.084   .     S
C845   C856    1.371   .     A
C845   C848    1.401   .     A
C847   C855    1.406   .     A
C847   C236    1.405   1_556 S
C849   N869    1.156   .     T
C850   N870    1.157   .     T
C851   N259    1.157   1_556 S
C853   N873    1.158   .     T
C854   N874    1.158   .     T
C855   C857    1.393   .     A
C855   H862    1.079   .     S
C857   C234    1.422   1_556 S
C858   H863    1.084   .     S
C858   C1064   1.376   .     S
C859   H864    1.085   .     S
N867   Zn883   2.056   .     S
N868   Zn884   2.056   .     S
N872   C376    1.158   1_456 S
O875   Zn883   2.012   .     S
O876   Zn884   2.012   .     S
O877   Zn884   1.990   .     S
O878   Zn883   1.990   .     S
O879   Zn883   1.942   .     S
O880   Zn884   1.942   .     S
O881   Zn884   1.893   .     S
O882   Zn883   1.893   .     S
Br885  C924    1.923   .     S
Br886  C925    1.917   .     S
Br887  C909    1.929   .     S
Br888  C908    1.938   .     S
Br889  C928    1.925   .     S
Br890  C892    1.916   .     S
C891   C894    1.427   .     S
C891   O945    1.306   .     A
C891   O943    1.301   .     A
C892   C894    1.406   .     A
C892   C1131   1.366   .     S
C893   C927    1.394   .     A
C893   C902    1.420   .     S
C893   C928    1.403   .     A
C894   C926    1.401   .     A
C895   N936    1.381   .     A
C895   C921    1.436   .     S
C895   C965    1.431   .     S
C896   C922    1.437   .     S
C896   N935    1.378   .     A
C897   H933    1.083   .     S
C897   N935    1.366   .     A
C898   H934    1.083   .     S
C898   N936    1.369   .     A
C898   C964    1.434   .     S
C899   O949    1.311   .     A
C899   C901    1.461   .     S
C899   O947    1.309   .     A
C900   O948    1.321   .     A
C900   C903    1.488   .     S
C900   O950    1.313   .     A
C901   C908    1.395   .     A
C901   C906    1.413   .     A
C902   O944    1.301   .     A
C902   O946    1.302   .     A
C903   C907    1.409   .     A
C903   C909    1.394   .     A
C904   C912    1.416   .     A
C904   C919    1.448   .     S
C904   C906    1.414   .     A
C905   C914    1.407   .     A
C905   C920    1.440   .     S
C905   C907    1.424   .     A
C906   C918    1.451   .     S
C907   C917    1.437   .     S
C908   C910    1.396   .     A
C909   C911    1.396   .     A
C910   C912    1.413   .     A
C910   C915    1.411   .     A
C911   C914    1.403   .     A
C911   C916    1.389   .     A
C912   C312    1.408   1_556 S
C913   H929    1.084   .     S
C913   C924    1.371   .     A
C913   C916    1.401   .     A
C915   C923    1.406   .     A
C915   C304    1.405   1_556 S
C917   N937    1.156   .     T
C918   N938    1.157   .     T
C919   N327    1.157   1_556 S
C921   N941    1.158   .     T
C922   N942    1.158   .     T
C923   C925    1.393   .     A
C923   H930    1.079   .     S
C925   C302    1.422   1_556 S
C926   H931    1.084   .     S
C926   C1132   1.376   .     S
C927   H932    1.085   .     S
N935   Zn951   2.056   .     S
N936   Zn952   2.056   .     S
N940   C240    1.158   1_556 S
O943   Zn951   2.012   .     S
O944   Zn952   2.012   .     S
O945   Zn952   1.990   .     S
O946   Zn951   1.990   .     S
O947   Zn951   1.942   .     S
O948   Zn952   1.942   .     S
O949   Zn952   1.893   .     S
O950   Zn951   1.893   .     S
Br953  C992    1.923   .     S
Br954  C993    1.917   .     S
Br955  C977    1.929   .     S
Br956  C976    1.938   .     S
Br957  C996    1.925   .     S
Br958  C960    1.916   .     S
C959   C962    1.427   .     S
C959   O1013   1.306   .     A
C959   O1011   1.301   .     A
C960   C962    1.406   .     A
C960   C1199   1.366   .     S
C961   C995    1.394   .     A
C961   C970    1.420   .     S
C961   C996    1.403   .     A
C962   C994    1.401   .     A
C963   N1004   1.381   .     A
C963   C989    1.436   .     S
C963   C829    1.431   1_655 S
C964   C990    1.437   .     S
C964   N1003   1.378   .     A
C965   H1001   1.083   .     S
C965   N1003   1.366   .     A
C966   H1002   1.083   .     S
C966   N1004   1.369   .     A
C966   C828    1.434   1_655 S
C967   O1017   1.311   .     A
C967   C969    1.461   .     S
C967   O1015   1.309   .     A
C968   O1016   1.321   .     A
C968   C971    1.488   .     S
C968   O1018   1.313   .     A
C969   C976    1.395   .     A
C969   C974    1.413   .     A
C970   O1012   1.301   .     A
C970   O1014   1.302   .     A
C971   C975    1.409   .     A
C971   C977    1.394   .     A
C972   C980    1.416   .     A
C972   C987    1.448   .     S
C972   C974    1.414   .     A
C973   C982    1.407   .     A
C973   C988    1.440   .     S
C973   C975    1.424   .     A
C974   C986    1.451   .     S
C975   C985    1.437   .     S
C976   C978    1.396   .     A
C977   C979    1.396   .     A
C978   C980    1.413   .     A
C978   C983    1.411   .     A
C979   C982    1.403   .     A
C979   C984    1.389   .     A
C980   C380    1.408   1_556 S
C981   H997    1.084   .     S
C981   C992    1.371   .     A
C981   C984    1.401   .     A
C983   C991    1.406   .     A
C983   C372    1.405   1_556 S
C985   N1005   1.156   .     T
C986   N1006   1.157   .     T
C987   N395    1.157   1_556 S
C988   N260    1.158   1_655 S
C989   N1009   1.158   .     T
C990   N1010   1.158   .     T
C991   C993    1.393   .     A
C991   H998    1.079   .     S
C993   C370    1.422   1_556 S
C994   H999    1.084   .     S
C994   C1200   1.376   .     S
C995   H1000   1.085   .     S
N1003  Zn1019  2.056   .     S
N1004  Zn1020  2.056   .     S
N1008  C308    1.158   1_556 S
O1011  Zn1019  2.012   .     S
O1012  Zn1020  2.012   .     S
O1013  Zn1020  1.990   .     S
O1014  Zn1019  1.990   .     S
O1015  Zn1019  1.942   .     S
O1016  Zn1020  1.942   .     S
O1017  Zn1020  1.893   .     S
O1018  Zn1019  1.893   .     S
Br1021 C1060   1.923   .     S
Br1022 C1061   1.917   .     S
Br1023 C1045   1.929   .     S
Br1024 C1044   1.938   .     S
Br1025 C1064   1.925   .     S
Br1026 C1028   1.916   .     S
C1027  C1030   1.427   .     S
C1027  O1081   1.306   .     A
C1027  O1079   1.301   .     A
C1028  C1030   1.406   .     A
C1028  C655    1.366   1_565 S
C1029  C1063   1.394   .     A
C1029  C1038   1.420   .     S
C1029  C1064   1.403   .     A
C1030  C1062   1.401   .     A
C1031  N1072   1.381   .     A
C1031  C1057   1.436   .     S
C1031  C1101   1.431   .     S
C1032  C1058   1.437   .     S
C1032  N1071   1.378   .     A
C1032  C1170   1.434   1_455 S
C1033  H1069   1.083   .     S
C1033  N1071   1.366   .     A
C1033  C1167   1.431   1_455 S
C1034  H1070   1.083   .     S
C1034  N1072   1.369   .     A
C1034  C1100   1.434   .     S
C1035  O1085   1.311   .     A
C1035  C1037   1.461   .     S
C1035  O1083   1.309   .     A
C1036  O1084   1.321   .     A
C1036  C1039   1.488   .     S
C1036  O1086   1.313   .     A
C1037  C1044   1.395   .     A
C1037  C1042   1.413   .     A
C1038  O1080   1.301   .     A
C1038  O1082   1.302   .     A
C1039  C1043   1.409   .     A
C1039  C1045   1.394   .     A
C1040  C1048   1.416   .     A
C1040  C1055   1.448   .     S
C1040  C1042   1.414   .     A
C1041  C1050   1.407   .     A
C1041  C1056   1.440   .     S
C1041  C1043   1.424   .     A
C1042  C1054   1.451   .     S
C1043  C1053   1.437   .     S
C1044  C1046   1.396   .     A
C1045  C1047   1.396   .     A
C1046  C1048   1.413   .     A
C1046  C1051   1.411   .     A
C1047  C1050   1.403   .     A
C1047  C1052   1.389   .     A
C1048  C448    1.408   1_556 S
C1049  H1065   1.084   .     S
C1049  C1060   1.371   .     A
C1049  C1052   1.401   .     A
C1051  C1059   1.406   .     A
C1051  C440    1.405   1_556 S
C1053  N1073   1.156   .     T
C1054  N1074   1.157   .     T
C1055  N463    1.157   1_556 S
C1057  N1077   1.158   .     T
C1058  N1078   1.158   .     T
C1059  C1061   1.393   .     A
C1059  H1066   1.079   .     S
C1061  C438    1.422   1_556 S
C1062  H1067   1.084   .     S
C1062  C656    1.376   1_565 S
C1063  H1068   1.085   .     S
N1071  Zn1087  2.056   .     S
N1072  Zn1088  2.056   .     S
N1076  C580    1.158   1_456 S
O1079  Zn1087  2.012   .     S
O1080  Zn1088  2.012   .     S
O1081  Zn1088  1.990   .     S
O1082  Zn1087  1.990   .     S
O1083  Zn1087  1.942   .     S
O1084  Zn1088  1.942   .     S
O1085  Zn1088  1.893   .     S
O1086  Zn1087  1.893   .     S
Br1089 C1128   1.923   .     S
Br1090 C1129   1.917   .     S
Br1091 C1113   1.929   .     S
Br1092 C1112   1.938   .     S
Br1093 C1132   1.925   .     S
Br1094 C1096   1.916   .     S
C1095  C1098   1.427   .     S
C1095  O1149   1.306   .     A
C1095  O1147   1.301   .     A
C1096  C1098   1.406   .     A
C1096  C723    1.366   1_565 S
C1097  C1131   1.394   .     A
C1097  C1106   1.420   .     S
C1097  C1132   1.403   .     A
C1098  C1130   1.401   .     A
C1099  N1140   1.381   .     A
C1099  C1125   1.436   .     S
C1099  C1169   1.431   .     S
C1100  C1126   1.437   .     S
C1100  N1139   1.378   .     A
C1101  H1137   1.083   .     S
C1101  N1139   1.366   .     A
C1102  H1138   1.083   .     S
C1102  N1140   1.369   .     A
C1102  C1168   1.434   .     S
C1103  O1153   1.311   .     A
C1103  C1105   1.461   .     S
C1103  O1151   1.309   .     A
C1104  O1152   1.321   .     A
C1104  C1107   1.488   .     S
C1104  O1154   1.313   .     A
C1105  C1112   1.395   .     A
C1105  C1110   1.413   .     A
C1106  O1148   1.301   .     A
C1106  O1150   1.302   .     A
C1107  C1111   1.409   .     A
C1107  C1113   1.394   .     A
C1108  C1116   1.416   .     A
C1108  C1123   1.448   .     S
C1108  C1110   1.414   .     A
C1109  C1118   1.407   .     A
C1109  C1124   1.440   .     S
C1109  C1111   1.424   .     A
C1110  C1122   1.451   .     S
C1111  C1121   1.437   .     S
C1112  C1114   1.396   .     A
C1113  C1115   1.396   .     A
C1114  C1116   1.413   .     A
C1114  C1119   1.411   .     A
C1115  C1118   1.403   .     A
C1115  C1120   1.389   .     A
C1116  C516    1.408   1_556 S
C1117  H1133   1.084   .     S
C1117  C1128   1.371   .     A
C1117  C1120   1.401   .     A
C1119  C1127   1.406   .     A
C1119  C508    1.405   1_556 S
C1121  N1141   1.156   .     T
C1122  N1142   1.157   .     T
C1123  N531    1.157   1_556 S
C1125  N1145   1.158   .     T
C1126  N1146   1.158   .     T
C1127  C1129   1.393   .     A
C1127  H1134   1.079   .     S
C1129  C506    1.422   1_556 S
C1130  H1135   1.084   .     S
C1130  C724    1.376   1_565 S
C1131  H1136   1.085   .     S
N1139  Zn1155  2.056   .     S
N1140  Zn1156  2.056   .     S
N1144  C444    1.158   1_556 S
O1147  Zn1155  2.012   .     S
O1148  Zn1156  2.012   .     S
O1149  Zn1156  1.990   .     S
O1150  Zn1155  1.990   .     S
O1151  Zn1155  1.942   .     S
O1152  Zn1156  1.942   .     S
O1153  Zn1156  1.893   .     S
O1154  Zn1155  1.893   .     S
Br1157 C1196   1.923   .     S
Br1158 C1197   1.917   .     S
Br1159 C1181   1.929   .     S
Br1160 C1180   1.938   .     S
Br1161 C1200   1.925   .     S
Br1162 C1164   1.916   .     S
C1163  C1166   1.427   .     S
C1163  O1217   1.306   .     A
C1163  O1215   1.301   .     A
C1164  C1166   1.406   .     A
C1164  C791    1.366   1_565 S
C1165  C1199   1.394   .     A
C1165  C1174   1.420   .     S
C1165  C1200   1.403   .     A
C1166  C1198   1.401   .     A
C1167  N1208   1.381   .     A
C1167  C1193   1.436   .     S
C1167  C1033   1.431   1_655 S
C1168  C1194   1.437   .     S
C1168  N1207   1.378   .     A
C1169  H1205   1.083   .     S
C1169  N1207   1.366   .     A
C1170  H1206   1.083   .     S
C1170  N1208   1.369   .     A
C1170  C1032   1.434   1_655 S
C1171  O1221   1.311   .     A
C1171  C1173   1.461   .     S
C1171  O1219   1.309   .     A
C1172  O1220   1.321   .     A
C1172  C1175   1.488   .     S
C1172  O1222   1.313   .     A
C1173  C1180   1.395   .     A
C1173  C1178   1.413   .     A
C1174  O1216   1.301   .     A
C1174  O1218   1.302   .     A
C1175  C1179   1.409   .     A
C1175  C1181   1.394   .     A
C1176  C1184   1.416   .     A
C1176  C1191   1.448   .     S
C1176  C1178   1.414   .     A
C1177  C1186   1.407   .     A
C1177  C1192   1.440   .     S
C1177  C1179   1.424   .     A
C1178  C1190   1.451   .     S
C1179  C1189   1.437   .     S
C1180  C1182   1.396   .     A
C1181  C1183   1.396   .     A
C1182  C1184   1.413   .     A
C1182  C1187   1.411   .     A
C1183  C1186   1.403   .     A
C1183  C1188   1.389   .     A
C1184  C584    1.408   1_556 S
C1185  H1201   1.084   .     S
C1185  C1196   1.371   .     A
C1185  C1188   1.401   .     A
C1187  C1195   1.406   .     A
C1187  C576    1.405   1_556 S
C1189  N1209   1.156   .     T
C1190  N1210   1.157   .     T
C1191  N599    1.157   1_556 S
C1192  N464    1.158   1_655 S
C1193  N1213   1.158   .     T
C1194  N1214   1.158   .     T
C1195  C1197   1.393   .     A
C1195  H1202   1.079   .     S
C1197  C574    1.422   1_556 S
C1198  H1203   1.084   .     S
C1198  C792    1.376   1_565 S
C1199  H1204   1.085   .     S
N1207  Zn1223  2.056   .     S
N1208  Zn1224  2.056   .     S
N1212  C512    1.158   1_556 S
O1215  Zn1223  2.012   .     S
O1216  Zn1224  2.012   .     S
O1217  Zn1224  1.990   .     S
O1218  Zn1223  1.990   .     S
O1219  Zn1223  1.942   .     S
O1220  Zn1224  1.942   .     S
O1221  Zn1224  1.893   .     S
O1222  Zn1223  1.893   .     S
