data_str_m2_o1_o18_pcu_sym.26
_audit_creation_date              2020-01-03
_audit_creation_method            'Materials Studio'
_symmetry_space_group_name_H-M    'P1'
_symmetry_Int_Tables_number       1
_symmetry_cell_setting            triclinic
loop_
_symmetry_equiv_pos_as_xyz
  x,y,z
_cell_length_a                    28.5317
_cell_length_b                    32.5019
_cell_length_c                    30.8240
_cell_angle_alpha                 89.8423
_cell_angle_beta                  74.9974
_cell_angle_gamma                 89.9968
loop_
_atom_site_label
_atom_site_type_symbol
_atom_site_fract_x
_atom_site_fract_y
_atom_site_fract_z
_atom_site_U_iso_or_equiv
_atom_site_adp_type
_atom_site_occupancy
C1     C     0.33331   0.08735   0.25003   0.00000  Uiso   1.00
C2     C     0.04250   0.02128   0.25034   0.00000  Uiso   1.00
C3     C     0.00001   0.29060   0.25000   0.00000  Uiso   1.00
C4     C     0.33332   0.04274   0.25004   0.00000  Uiso   1.00
C5     C     0.18313   0.14278   0.27970   0.00000  Uiso   1.00
C6     C     0.15020   0.19056   0.22031   0.00000  Uiso   1.00
C7     C     0.13350   0.14283   0.27972   0.00000  Uiso   1.00
C8     C     0.19983   0.19052   0.22030   0.00000  Uiso   1.00
C9     C     0.30638   0.16787   0.33623   0.00000  Uiso   1.00
C10    C     0.02697   0.16585   0.16371   0.00000  Uiso   1.00
C11    C     0.29199   0.17227   0.38553   0.00000  Uiso   1.00
C12    C     0.00002   0.24598   0.24998   0.00000  Uiso   1.00
C13    C     0.04138   0.16355   0.11415   0.00000  Uiso   1.00
C14    C     0.30570   0.19459   0.45620   0.00000  Uiso   1.00
C15    C     0.02646   0.14769   0.04209   0.00000  Uiso   1.00
C16    C     0.32336   0.18796   0.41022   0.00000  Uiso   1.00
C17    C     0.00917   0.15176   0.08846   0.00000  Uiso   1.00
C18    C     0.24372   0.16337   0.40782   0.00000  Uiso   1.00
C19    C     0.09005   0.17166   0.09231   0.00000  Uiso   1.00
C20    C     0.22458   0.17218   0.45365   0.00000  Uiso   1.00
C21    C     0.10820   0.16743   0.04555   0.00000  Uiso   1.00
C22    C     0.25688   0.18717   0.47790   0.00000  Uiso   1.00
C23    C     0.19198   0.18881   0.04582   0.00000  Uiso   1.00
C24    C     0.07538   0.15491   0.02065   0.00000  Uiso   1.00
C25    C     0.17443   0.16683   0.47590   0.00000  Uiso   1.00
C26    C     0.15804   0.17434   0.02301   0.00000  Uiso   1.00
C27    C     0.13993   0.15516   0.45245   0.00000  Uiso   1.00
C28    C     0.24021   0.19527   0.02354   0.00000  Uiso   1.00
C29    C     0.09154   0.14931   0.47452   0.00000  Uiso   1.00
C30    C     0.29081   0.02128   0.24974   0.00000  Uiso   1.00
C31    C     0.04251   0.31205   0.25031   0.00000  Uiso   1.00
C32    C     0.29082   0.31205   0.24971   0.00000  Uiso   1.00
Cl33   Cl    0.28092   0.13961   0.11214   0.00000  Uiso   1.00
Cl34   Cl    0.05083   0.20192   0.38547   0.00000  Uiso   1.00
Cu35   Cu    0.04689   0.16667   0.25000   0.00000  Uiso   1.00
Cu36   Cu    0.28645   0.16666   0.25000   0.00000  Uiso   1.00
H37    H     0.26471   0.20688   0.04230   0.00000  Uiso   1.00
H38    H     0.07575   0.29604   0.25054   0.00000  Uiso   1.00
H39    H     0.25760   0.29604   0.24946   0.00000  Uiso   1.00
H40    H     0.07572   0.03729   0.25060   0.00000  Uiso   1.00
H41    H     0.19515   0.12356   0.30342   0.00000  Uiso   1.00
H42    H     0.13818   0.20978   0.19659   0.00000  Uiso   1.00
H43    H     0.10809   0.12373   0.30348   0.00000  Uiso   1.00
H44    H     0.22523   0.20963   0.19654   0.00000  Uiso   1.00
H45    H     0.06654   0.13998   0.45522   0.00000  Uiso   1.00
H46    H     0.11335   0.18043   0.11303   0.00000  Uiso   1.00
H47    H     0.22176   0.14951   0.38826   0.00000  Uiso   1.00
H48    H     0.33003   0.20668   0.47488   0.00000  Uiso   1.00
H49    H     0.00164   0.13798   0.02276   0.00000  Uiso   1.00
H50    H     0.18265   0.19641   0.08094   0.00000  Uiso   1.00
H51    H     0.14865   0.15088   0.41666   0.00000  Uiso   1.00
H52    H     0.25757   0.03729   0.24952   0.00000  Uiso   1.00
N53    N     0.11736   0.16668   0.24999   0.00000  Uiso   1.00
N54    N     0.21597   0.16666   0.25001   0.00000  Uiso   1.00
O55    O     0.03958   0.10655   0.25000   0.00000  Uiso   1.00
O56    O     0.29375   0.22678   0.25000   0.00000  Uiso   1.00
O57    O     0.29372   0.10654   0.25000   0.00000  Uiso   1.00
O58    O     0.03961   0.22679   0.24999   0.00000  Uiso   1.00
O59    O     0.01852   0.16668   0.31491   0.00000  Uiso   1.00
O60    O     0.31481   0.16666   0.18508   0.00000  Uiso   1.00
O61    O     0.27267   0.16667   0.31492   0.00000  Uiso   1.00
O62    O     0.06067   0.16667   0.18508   0.00000  Uiso   1.00
C63    C     0.66665   0.08735   0.25003   0.00000  Uiso   1.00
C64    C     0.37583   0.02128   0.25034   0.00000  Uiso   1.00
C65    C     0.33334   0.29060   0.25000   0.00000  Uiso   1.00
C66    C     0.66665   0.04274   0.25004   0.00000  Uiso   1.00
C67    C     0.51646   0.14278   0.27970   0.00000  Uiso   1.00
C68    C     0.48354   0.19056   0.22031   0.00000  Uiso   1.00
C69    C     0.46683   0.14283   0.27972   0.00000  Uiso   1.00
C70    C     0.53316   0.19052   0.22030   0.00000  Uiso   1.00
C71    C     0.63972   0.16787   0.33623   0.00000  Uiso   1.00
C72    C     0.36030   0.16585   0.16371   0.00000  Uiso   1.00
C73    C     0.62532   0.17227   0.38553   0.00000  Uiso   1.00
C74    C     0.33335   0.24598   0.24998   0.00000  Uiso   1.00
C75    C     0.37471   0.16355   0.11415   0.00000  Uiso   1.00
C76    C     0.63904   0.19459   0.45620   0.00000  Uiso   1.00
C77    C     0.35980   0.14769   0.04209   0.00000  Uiso   1.00
C78    C     0.65669   0.18796   0.41022   0.00000  Uiso   1.00
C79    C     0.34251   0.15176   0.08846   0.00000  Uiso   1.00
C80    C     0.57705   0.16337   0.40782   0.00000  Uiso   1.00
C81    C     0.42338   0.17166   0.09231   0.00000  Uiso   1.00
C82    C     0.55792   0.17218   0.45365   0.00000  Uiso   1.00
C83    C     0.44153   0.16743   0.04555   0.00000  Uiso   1.00
C84    C     0.59022   0.18717   0.47790   0.00000  Uiso   1.00
C85    C     0.52531   0.18881   0.04582   0.00000  Uiso   1.00
C86    C     0.40871   0.15491   0.02065   0.00000  Uiso   1.00
C87    C     0.50776   0.16683   0.47590   0.00000  Uiso   1.00
C88    C     0.49138   0.17434   0.02301   0.00000  Uiso   1.00
C89    C     0.47326   0.15516   0.45245   0.00000  Uiso   1.00
C90    C     0.57354   0.19527   0.02354   0.00000  Uiso   1.00
C91    C     0.42488   0.14931   0.47452   0.00000  Uiso   1.00
C92    C     0.62414   0.02128   0.24974   0.00000  Uiso   1.00
C93    C     0.37584   0.31205   0.25031   0.00000  Uiso   1.00
C94    C     0.62416   0.31205   0.24971   0.00000  Uiso   1.00
Cl95   Cl    0.61425   0.13961   0.11214   0.00000  Uiso   1.00
Cl96   Cl    0.38417   0.20192   0.38547   0.00000  Uiso   1.00
Cu97   Cu    0.38022   0.16667   0.25000   0.00000  Uiso   1.00
Cu98   Cu    0.61978   0.16666   0.25000   0.00000  Uiso   1.00
H99    H     0.59805   0.20688   0.04230   0.00000  Uiso   1.00
H100   H     0.40908   0.29604   0.25054   0.00000  Uiso   1.00
H101   H     0.59093   0.29604   0.24946   0.00000  Uiso   1.00
H102   H     0.40905   0.03729   0.25060   0.00000  Uiso   1.00
H103   H     0.52849   0.12356   0.30342   0.00000  Uiso   1.00
H104   H     0.47151   0.20978   0.19659   0.00000  Uiso   1.00
H105   H     0.44143   0.12373   0.30348   0.00000  Uiso   1.00
H106   H     0.55857   0.20963   0.19654   0.00000  Uiso   1.00
H107   H     0.39987   0.13998   0.45522   0.00000  Uiso   1.00
H108   H     0.44668   0.18043   0.11303   0.00000  Uiso   1.00
H109   H     0.55510   0.14951   0.38826   0.00000  Uiso   1.00
H110   H     0.66336   0.20668   0.47488   0.00000  Uiso   1.00
H111   H     0.33497   0.13798   0.02276   0.00000  Uiso   1.00
H112   H     0.51598   0.19641   0.08094   0.00000  Uiso   1.00
H113   H     0.48198   0.15088   0.41666   0.00000  Uiso   1.00
H114   H     0.59091   0.03729   0.24952   0.00000  Uiso   1.00
N115   N     0.45069   0.16668   0.24999   0.00000  Uiso   1.00
N116   N     0.54931   0.16666   0.25001   0.00000  Uiso   1.00
O117   O     0.37291   0.10655   0.25000   0.00000  Uiso   1.00
O118   O     0.62709   0.22678   0.25000   0.00000  Uiso   1.00
O119   O     0.62706   0.10654   0.25000   0.00000  Uiso   1.00
O120   O     0.37294   0.22679   0.24999   0.00000  Uiso   1.00
O121   O     0.35186   0.16668   0.31491   0.00000  Uiso   1.00
O122   O     0.64814   0.16666   0.18508   0.00000  Uiso   1.00
O123   O     0.60600   0.16667   0.31492   0.00000  Uiso   1.00
O124   O     0.39400   0.16667   0.18508   0.00000  Uiso   1.00
C125   C     0.99998   0.08735   0.25003   0.00000  Uiso   1.00
C126   C     0.70916   0.02128   0.25034   0.00000  Uiso   1.00
C127   C     0.66667   0.29060   0.25000   0.00000  Uiso   1.00
C128   C     0.99998   0.04274   0.25004   0.00000  Uiso   1.00
C129   C     0.84980   0.14278   0.27970   0.00000  Uiso   1.00
C130   C     0.81687   0.19056   0.22031   0.00000  Uiso   1.00
C131   C     0.80017   0.14283   0.27972   0.00000  Uiso   1.00
C132   C     0.86650   0.19052   0.22030   0.00000  Uiso   1.00
C133   C     0.97305   0.16787   0.33623   0.00000  Uiso   1.00
C134   C     0.69363   0.16585   0.16371   0.00000  Uiso   1.00
C135   C     0.95865   0.17227   0.38553   0.00000  Uiso   1.00
C136   C     0.66668   0.24598   0.24998   0.00000  Uiso   1.00
C137   C     0.70804   0.16355   0.11415   0.00000  Uiso   1.00
C138   C     0.97237   0.19459   0.45620   0.00000  Uiso   1.00
C139   C     0.69313   0.14769   0.04209   0.00000  Uiso   1.00
C140   C     0.99002   0.18796   0.41022   0.00000  Uiso   1.00
C141   C     0.67584   0.15176   0.08846   0.00000  Uiso   1.00
C142   C     0.91038   0.16337   0.40782   0.00000  Uiso   1.00
C143   C     0.75671   0.17166   0.09231   0.00000  Uiso   1.00
C144   C     0.89125   0.17218   0.45365   0.00000  Uiso   1.00
C145   C     0.77487   0.16743   0.04555   0.00000  Uiso   1.00
C146   C     0.92355   0.18717   0.47790   0.00000  Uiso   1.00
C147   C     0.85865   0.18881   0.04582   0.00000  Uiso   1.00
C148   C     0.74205   0.15491   0.02065   0.00000  Uiso   1.00
C149   C     0.84109   0.16683   0.47590   0.00000  Uiso   1.00
C150   C     0.82471   0.17434   0.02301   0.00000  Uiso   1.00
C151   C     0.80659   0.15516   0.45245   0.00000  Uiso   1.00
C152   C     0.90687   0.19527   0.02354   0.00000  Uiso   1.00
C153   C     0.75821   0.14931   0.47452   0.00000  Uiso   1.00
C154   C     0.95748   0.02128   0.24974   0.00000  Uiso   1.00
C155   C     0.70918   0.31205   0.25031   0.00000  Uiso   1.00
C156   C     0.95749   0.31205   0.24971   0.00000  Uiso   1.00
Cl157  Cl    0.94758   0.13961   0.11214   0.00000  Uiso   1.00
Cl158  Cl    0.71750   0.20192   0.38547   0.00000  Uiso   1.00
Cu159  Cu    0.71355   0.16667   0.25000   0.00000  Uiso   1.00
Cu160  Cu    0.95311   0.16666   0.25000   0.00000  Uiso   1.00
H161   H     0.93138   0.20688   0.04230   0.00000  Uiso   1.00
H162   H     0.74241   0.29604   0.25054   0.00000  Uiso   1.00
H163   H     0.92427   0.29604   0.24946   0.00000  Uiso   1.00
H164   H     0.74239   0.03729   0.25060   0.00000  Uiso   1.00
H165   H     0.86182   0.12356   0.30342   0.00000  Uiso   1.00
H166   H     0.80485   0.20978   0.19659   0.00000  Uiso   1.00
H167   H     0.77476   0.12373   0.30348   0.00000  Uiso   1.00
H168   H     0.89190   0.20963   0.19654   0.00000  Uiso   1.00
H169   H     0.73321   0.13998   0.45522   0.00000  Uiso   1.00
H170   H     0.78001   0.18043   0.11303   0.00000  Uiso   1.00
H171   H     0.88843   0.14951   0.38826   0.00000  Uiso   1.00
H172   H     0.99670   0.20668   0.47488   0.00000  Uiso   1.00
H173   H     0.66830   0.13798   0.02276   0.00000  Uiso   1.00
H174   H     0.84931   0.19641   0.08094   0.00000  Uiso   1.00
H175   H     0.81531   0.15088   0.41666   0.00000  Uiso   1.00
H176   H     0.92424   0.03729   0.24952   0.00000  Uiso   1.00
N177   N     0.78403   0.16668   0.24999   0.00000  Uiso   1.00
N178   N     0.88264   0.16666   0.25001   0.00000  Uiso   1.00
O179   O     0.70625   0.10655   0.25000   0.00000  Uiso   1.00
O180   O     0.96042   0.22678   0.25000   0.00000  Uiso   1.00
O181   O     0.96039   0.10654   0.25000   0.00000  Uiso   1.00
O182   O     0.70628   0.22679   0.24999   0.00000  Uiso   1.00
O183   O     0.68519   0.16668   0.31491   0.00000  Uiso   1.00
O184   O     0.98148   0.16666   0.18508   0.00000  Uiso   1.00
O185   O     0.93933   0.16667   0.31492   0.00000  Uiso   1.00
O186   O     0.72733   0.16667   0.18508   0.00000  Uiso   1.00
C187   C     0.33331   0.42068   0.25003   0.00000  Uiso   1.00
C188   C     0.04250   0.35462   0.25034   0.00000  Uiso   1.00
C189   C     0.00001   0.62393   0.25000   0.00000  Uiso   1.00
C190   C     0.33332   0.37607   0.25004   0.00000  Uiso   1.00
C191   C     0.18313   0.47611   0.27970   0.00000  Uiso   1.00
C192   C     0.15020   0.52389   0.22031   0.00000  Uiso   1.00
C193   C     0.13350   0.47616   0.27972   0.00000  Uiso   1.00
C194   C     0.19983   0.52385   0.22030   0.00000  Uiso   1.00
C195   C     0.30638   0.50120   0.33623   0.00000  Uiso   1.00
C196   C     0.02697   0.49918   0.16371   0.00000  Uiso   1.00
C197   C     0.29199   0.50561   0.38553   0.00000  Uiso   1.00
C198   C     0.00002   0.57932   0.24998   0.00000  Uiso   1.00
C199   C     0.04138   0.49689   0.11415   0.00000  Uiso   1.00
C200   C     0.30570   0.52792   0.45620   0.00000  Uiso   1.00
C201   C     0.02646   0.48102   0.04209   0.00000  Uiso   1.00
C202   C     0.32336   0.52130   0.41022   0.00000  Uiso   1.00
C203   C     0.00917   0.48509   0.08846   0.00000  Uiso   1.00
C204   C     0.24372   0.49670   0.40782   0.00000  Uiso   1.00
C205   C     0.09005   0.50499   0.09231   0.00000  Uiso   1.00
C206   C     0.22458   0.50552   0.45365   0.00000  Uiso   1.00
C207   C     0.10820   0.50076   0.04555   0.00000  Uiso   1.00
C208   C     0.25688   0.52051   0.47790   0.00000  Uiso   1.00
C209   C     0.19198   0.52214   0.04582   0.00000  Uiso   1.00
C210   C     0.07538   0.48825   0.02065   0.00000  Uiso   1.00
C211   C     0.17443   0.50016   0.47590   0.00000  Uiso   1.00
C212   C     0.15804   0.50768   0.02301   0.00000  Uiso   1.00
C213   C     0.13993   0.48849   0.45245   0.00000  Uiso   1.00
C214   C     0.24021   0.52860   0.02354   0.00000  Uiso   1.00
C215   C     0.09154   0.48264   0.47452   0.00000  Uiso   1.00
C216   C     0.29081   0.35461   0.24974   0.00000  Uiso   1.00
C217   C     0.04251   0.64538   0.25031   0.00000  Uiso   1.00
C218   C     0.29082   0.64538   0.24971   0.00000  Uiso   1.00
Cl219  Cl    0.28092   0.47294   0.11214   0.00000  Uiso   1.00
Cl220  Cl    0.05083   0.53526   0.38547   0.00000  Uiso   1.00
Cu221  Cu    0.04689   0.50001   0.25000   0.00000  Uiso   1.00
Cu222  Cu    0.28645   0.49999   0.25000   0.00000  Uiso   1.00
H223   H     0.26471   0.54021   0.04230   0.00000  Uiso   1.00
H224   H     0.07575   0.62937   0.25054   0.00000  Uiso   1.00
H225   H     0.25760   0.62937   0.24946   0.00000  Uiso   1.00
H226   H     0.07572   0.37063   0.25060   0.00000  Uiso   1.00
H227   H     0.19515   0.45690   0.30342   0.00000  Uiso   1.00
H228   H     0.13818   0.54312   0.19659   0.00000  Uiso   1.00
H229   H     0.10809   0.45706   0.30348   0.00000  Uiso   1.00
H230   H     0.22523   0.54297   0.19654   0.00000  Uiso   1.00
H231   H     0.06654   0.47331   0.45522   0.00000  Uiso   1.00
H232   H     0.11335   0.51377   0.11303   0.00000  Uiso   1.00
H233   H     0.22176   0.48284   0.38826   0.00000  Uiso   1.00
H234   H     0.33003   0.54001   0.47488   0.00000  Uiso   1.00
H235   H     0.00164   0.47132   0.02276   0.00000  Uiso   1.00
H236   H     0.18265   0.52975   0.08094   0.00000  Uiso   1.00
H237   H     0.14865   0.48421   0.41666   0.00000  Uiso   1.00
H238   H     0.25757   0.37062   0.24952   0.00000  Uiso   1.00
N239   N     0.11736   0.50001   0.24999   0.00000  Uiso   1.00
N240   N     0.21597   0.49999   0.25001   0.00000  Uiso   1.00
O241   O     0.03958   0.43989   0.25000   0.00000  Uiso   1.00
O242   O     0.29375   0.56011   0.25000   0.00000  Uiso   1.00
O243   O     0.29372   0.43988   0.25000   0.00000  Uiso   1.00
O244   O     0.03961   0.56012   0.24999   0.00000  Uiso   1.00
O245   O     0.01852   0.50001   0.31491   0.00000  Uiso   1.00
O246   O     0.31481   0.49999   0.18508   0.00000  Uiso   1.00
O247   O     0.27267   0.50000   0.31492   0.00000  Uiso   1.00
O248   O     0.06067   0.50000   0.18508   0.00000  Uiso   1.00
C249   C     0.66665   0.42068   0.25003   0.00000  Uiso   1.00
C250   C     0.37583   0.35462   0.25034   0.00000  Uiso   1.00
C251   C     0.33334   0.62393   0.25000   0.00000  Uiso   1.00
C252   C     0.66665   0.37607   0.25004   0.00000  Uiso   1.00
C253   C     0.51646   0.47611   0.27970   0.00000  Uiso   1.00
C254   C     0.48354   0.52389   0.22031   0.00000  Uiso   1.00
C255   C     0.46683   0.47616   0.27972   0.00000  Uiso   1.00
C256   C     0.53316   0.52385   0.22030   0.00000  Uiso   1.00
C257   C     0.63972   0.50120   0.33623   0.00000  Uiso   1.00
C258   C     0.36030   0.49918   0.16371   0.00000  Uiso   1.00
C259   C     0.62532   0.50561   0.38553   0.00000  Uiso   1.00
C260   C     0.33335   0.57932   0.24998   0.00000  Uiso   1.00
C261   C     0.37471   0.49689   0.11415   0.00000  Uiso   1.00
C262   C     0.63904   0.52792   0.45620   0.00000  Uiso   1.00
C263   C     0.35980   0.48102   0.04209   0.00000  Uiso   1.00
C264   C     0.65669   0.52130   0.41022   0.00000  Uiso   1.00
C265   C     0.34251   0.48509   0.08846   0.00000  Uiso   1.00
C266   C     0.57705   0.49670   0.40782   0.00000  Uiso   1.00
C267   C     0.42338   0.50499   0.09231   0.00000  Uiso   1.00
C268   C     0.55792   0.50552   0.45365   0.00000  Uiso   1.00
C269   C     0.44153   0.50076   0.04555   0.00000  Uiso   1.00
C270   C     0.59022   0.52051   0.47790   0.00000  Uiso   1.00
C271   C     0.52531   0.52214   0.04582   0.00000  Uiso   1.00
C272   C     0.40871   0.48825   0.02065   0.00000  Uiso   1.00
C273   C     0.50776   0.50016   0.47590   0.00000  Uiso   1.00
C274   C     0.49138   0.50768   0.02301   0.00000  Uiso   1.00
C275   C     0.47326   0.48849   0.45245   0.00000  Uiso   1.00
C276   C     0.57354   0.52860   0.02354   0.00000  Uiso   1.00
C277   C     0.42488   0.48264   0.47452   0.00000  Uiso   1.00
C278   C     0.62414   0.35461   0.24974   0.00000  Uiso   1.00
C279   C     0.37584   0.64538   0.25031   0.00000  Uiso   1.00
C280   C     0.62416   0.64538   0.24971   0.00000  Uiso   1.00
Cl281  Cl    0.61425   0.47294   0.11214   0.00000  Uiso   1.00
Cl282  Cl    0.38417   0.53526   0.38547   0.00000  Uiso   1.00
Cu283  Cu    0.38022   0.50001   0.25000   0.00000  Uiso   1.00
Cu284  Cu    0.61978   0.49999   0.25000   0.00000  Uiso   1.00
H285   H     0.59805   0.54021   0.04230   0.00000  Uiso   1.00
H286   H     0.40908   0.62937   0.25054   0.00000  Uiso   1.00
H287   H     0.59093   0.62937   0.24946   0.00000  Uiso   1.00
H288   H     0.40905   0.37063   0.25060   0.00000  Uiso   1.00
H289   H     0.52849   0.45690   0.30342   0.00000  Uiso   1.00
H290   H     0.47151   0.54312   0.19659   0.00000  Uiso   1.00
H291   H     0.44143   0.45706   0.30348   0.00000  Uiso   1.00
H292   H     0.55857   0.54297   0.19654   0.00000  Uiso   1.00
H293   H     0.39987   0.47331   0.45522   0.00000  Uiso   1.00
H294   H     0.44668   0.51377   0.11303   0.00000  Uiso   1.00
H295   H     0.55510   0.48284   0.38826   0.00000  Uiso   1.00
H296   H     0.66336   0.54001   0.47488   0.00000  Uiso   1.00
H297   H     0.33497   0.47132   0.02276   0.00000  Uiso   1.00
H298   H     0.51598   0.52975   0.08094   0.00000  Uiso   1.00
H299   H     0.48198   0.48421   0.41666   0.00000  Uiso   1.00
H300   H     0.59091   0.37062   0.24952   0.00000  Uiso   1.00
N301   N     0.45069   0.50001   0.24999   0.00000  Uiso   1.00
N302   N     0.54931   0.49999   0.25001   0.00000  Uiso   1.00
O303   O     0.37291   0.43989   0.25000   0.00000  Uiso   1.00
O304   O     0.62709   0.56011   0.25000   0.00000  Uiso   1.00
O305   O     0.62706   0.43988   0.25000   0.00000  Uiso   1.00
O306   O     0.37294   0.56012   0.24999   0.00000  Uiso   1.00
O307   O     0.35186   0.50001   0.31491   0.00000  Uiso   1.00
O308   O     0.64814   0.49999   0.18508   0.00000  Uiso   1.00
O309   O     0.60600   0.50000   0.31492   0.00000  Uiso   1.00
O310   O     0.39400   0.50000   0.18508   0.00000  Uiso   1.00
C311   C     0.99998   0.42068   0.25003   0.00000  Uiso   1.00
C312   C     0.70916   0.35462   0.25034   0.00000  Uiso   1.00
C313   C     0.66667   0.62393   0.25000   0.00000  Uiso   1.00
C314   C     0.99998   0.37607   0.25004   0.00000  Uiso   1.00
C315   C     0.84980   0.47611   0.27970   0.00000  Uiso   1.00
C316   C     0.81687   0.52389   0.22031   0.00000  Uiso   1.00
C317   C     0.80017   0.47616   0.27972   0.00000  Uiso   1.00
C318   C     0.86650   0.52385   0.22030   0.00000  Uiso   1.00
C319   C     0.97305   0.50120   0.33623   0.00000  Uiso   1.00
C320   C     0.69363   0.49918   0.16371   0.00000  Uiso   1.00
C321   C     0.95865   0.50561   0.38553   0.00000  Uiso   1.00
C322   C     0.66668   0.57932   0.24998   0.00000  Uiso   1.00
C323   C     0.70804   0.49689   0.11415   0.00000  Uiso   1.00
C324   C     0.97237   0.52792   0.45620   0.00000  Uiso   1.00
C325   C     0.69313   0.48102   0.04209   0.00000  Uiso   1.00
C326   C     0.99002   0.52130   0.41022   0.00000  Uiso   1.00
C327   C     0.67584   0.48509   0.08846   0.00000  Uiso   1.00
C328   C     0.91038   0.49670   0.40782   0.00000  Uiso   1.00
C329   C     0.75671   0.50499   0.09231   0.00000  Uiso   1.00
C330   C     0.89125   0.50552   0.45365   0.00000  Uiso   1.00
C331   C     0.77487   0.50076   0.04555   0.00000  Uiso   1.00
C332   C     0.92355   0.52051   0.47790   0.00000  Uiso   1.00
C333   C     0.85865   0.52214   0.04582   0.00000  Uiso   1.00
C334   C     0.74205   0.48825   0.02065   0.00000  Uiso   1.00
C335   C     0.84109   0.50016   0.47590   0.00000  Uiso   1.00
C336   C     0.82471   0.50768   0.02301   0.00000  Uiso   1.00
C337   C     0.80659   0.48849   0.45245   0.00000  Uiso   1.00
C338   C     0.90687   0.52860   0.02354   0.00000  Uiso   1.00
C339   C     0.75821   0.48264   0.47452   0.00000  Uiso   1.00
C340   C     0.95748   0.35461   0.24974   0.00000  Uiso   1.00
C341   C     0.70918   0.64538   0.25031   0.00000  Uiso   1.00
C342   C     0.95749   0.64538   0.24971   0.00000  Uiso   1.00
Cl343  Cl    0.94758   0.47294   0.11214   0.00000  Uiso   1.00
Cl344  Cl    0.71750   0.53526   0.38547   0.00000  Uiso   1.00
Cu345  Cu    0.71355   0.50001   0.25000   0.00000  Uiso   1.00
Cu346  Cu    0.95311   0.49999   0.25000   0.00000  Uiso   1.00
H347   H     0.93138   0.54021   0.04230   0.00000  Uiso   1.00
H348   H     0.74241   0.62937   0.25054   0.00000  Uiso   1.00
H349   H     0.92427   0.62937   0.24946   0.00000  Uiso   1.00
H350   H     0.74239   0.37063   0.25060   0.00000  Uiso   1.00
H351   H     0.86182   0.45690   0.30342   0.00000  Uiso   1.00
H352   H     0.80485   0.54312   0.19659   0.00000  Uiso   1.00
H353   H     0.77476   0.45706   0.30348   0.00000  Uiso   1.00
H354   H     0.89190   0.54297   0.19654   0.00000  Uiso   1.00
H355   H     0.73321   0.47331   0.45522   0.00000  Uiso   1.00
H356   H     0.78001   0.51377   0.11303   0.00000  Uiso   1.00
H357   H     0.88843   0.48284   0.38826   0.00000  Uiso   1.00
H358   H     0.99670   0.54001   0.47488   0.00000  Uiso   1.00
H359   H     0.66830   0.47132   0.02276   0.00000  Uiso   1.00
H360   H     0.84931   0.52975   0.08094   0.00000  Uiso   1.00
H361   H     0.81531   0.48421   0.41666   0.00000  Uiso   1.00
H362   H     0.92424   0.37062   0.24952   0.00000  Uiso   1.00
N363   N     0.78403   0.50001   0.24999   0.00000  Uiso   1.00
N364   N     0.88264   0.49999   0.25001   0.00000  Uiso   1.00
O365   O     0.70625   0.43989   0.25000   0.00000  Uiso   1.00
O366   O     0.96042   0.56011   0.25000   0.00000  Uiso   1.00
O367   O     0.96039   0.43988   0.25000   0.00000  Uiso   1.00
O368   O     0.70628   0.56012   0.24999   0.00000  Uiso   1.00
O369   O     0.68519   0.50001   0.31491   0.00000  Uiso   1.00
O370   O     0.98148   0.49999   0.18508   0.00000  Uiso   1.00
O371   O     0.93933   0.50000   0.31492   0.00000  Uiso   1.00
O372   O     0.72733   0.50000   0.18508   0.00000  Uiso   1.00
C373   C     0.33331   0.75401   0.25003   0.00000  Uiso   1.00
C374   C     0.04250   0.68795   0.25034   0.00000  Uiso   1.00
C375   C     0.00001   0.95726   0.25000   0.00000  Uiso   1.00
C376   C     0.33332   0.70940   0.25004   0.00000  Uiso   1.00
C377   C     0.18313   0.80945   0.27970   0.00000  Uiso   1.00
C378   C     0.15020   0.85723   0.22031   0.00000  Uiso   1.00
C379   C     0.13350   0.80950   0.27972   0.00000  Uiso   1.00
C380   C     0.19983   0.85718   0.22030   0.00000  Uiso   1.00
C381   C     0.30638   0.83453   0.33623   0.00000  Uiso   1.00
C382   C     0.02697   0.83251   0.16371   0.00000  Uiso   1.00
C383   C     0.29199   0.83894   0.38553   0.00000  Uiso   1.00
C384   C     0.00002   0.91265   0.24998   0.00000  Uiso   1.00
C385   C     0.04138   0.83022   0.11415   0.00000  Uiso   1.00
C386   C     0.30570   0.86126   0.45620   0.00000  Uiso   1.00
C387   C     0.02646   0.81435   0.04209   0.00000  Uiso   1.00
C388   C     0.32336   0.85463   0.41022   0.00000  Uiso   1.00
C389   C     0.00917   0.81842   0.08846   0.00000  Uiso   1.00
C390   C     0.24372   0.83003   0.40782   0.00000  Uiso   1.00
C391   C     0.09005   0.83833   0.09231   0.00000  Uiso   1.00
C392   C     0.22458   0.83885   0.45365   0.00000  Uiso   1.00
C393   C     0.10820   0.83409   0.04555   0.00000  Uiso   1.00
C394   C     0.25688   0.85384   0.47790   0.00000  Uiso   1.00
C395   C     0.19198   0.85547   0.04582   0.00000  Uiso   1.00
C396   C     0.07538   0.82158   0.02065   0.00000  Uiso   1.00
C397   C     0.17443   0.83349   0.47590   0.00000  Uiso   1.00
C398   C     0.15804   0.84101   0.02301   0.00000  Uiso   1.00
C399   C     0.13993   0.82182   0.45245   0.00000  Uiso   1.00
C400   C     0.24021   0.86194   0.02354   0.00000  Uiso   1.00
C401   C     0.09154   0.81597   0.47452   0.00000  Uiso   1.00
C402   C     0.29081   0.68795   0.24974   0.00000  Uiso   1.00
C403   C     0.04251   0.97872   0.25031   0.00000  Uiso   1.00
C404   C     0.29082   0.97871   0.24971   0.00000  Uiso   1.00
Cl405  Cl    0.28092   0.80628   0.11214   0.00000  Uiso   1.00
Cl406  Cl    0.05083   0.86859   0.38547   0.00000  Uiso   1.00
Cu407  Cu    0.04689   0.83334   0.25000   0.00000  Uiso   1.00
Cu408  Cu    0.28645   0.83333   0.25000   0.00000  Uiso   1.00
H409   H     0.26471   0.87354   0.04230   0.00000  Uiso   1.00
H410   H     0.07575   0.96271   0.25054   0.00000  Uiso   1.00
H411   H     0.25760   0.96270   0.24946   0.00000  Uiso   1.00
H412   H     0.07572   0.70396   0.25060   0.00000  Uiso   1.00
H413   H     0.19515   0.79023   0.30342   0.00000  Uiso   1.00
H414   H     0.13818   0.87645   0.19659   0.00000  Uiso   1.00
H415   H     0.10809   0.79040   0.30348   0.00000  Uiso   1.00
H416   H     0.22523   0.87630   0.19654   0.00000  Uiso   1.00
H417   H     0.06654   0.80664   0.45522   0.00000  Uiso   1.00
H418   H     0.11335   0.84710   0.11303   0.00000  Uiso   1.00
H419   H     0.22176   0.81618   0.38826   0.00000  Uiso   1.00
H420   H     0.33003   0.87335   0.47488   0.00000  Uiso   1.00
H421   H     0.00164   0.80465   0.02276   0.00000  Uiso   1.00
H422   H     0.18265   0.86308   0.08094   0.00000  Uiso   1.00
H423   H     0.14865   0.81755   0.41666   0.00000  Uiso   1.00
H424   H     0.25757   0.70396   0.24952   0.00000  Uiso   1.00
N425   N     0.11736   0.83334   0.24999   0.00000  Uiso   1.00
N426   N     0.21597   0.83332   0.25001   0.00000  Uiso   1.00
O427   O     0.03958   0.77322   0.25000   0.00000  Uiso   1.00
O428   O     0.29375   0.89345   0.25000   0.00000  Uiso   1.00
O429   O     0.29372   0.77321   0.25000   0.00000  Uiso   1.00
O430   O     0.03961   0.89346   0.24999   0.00000  Uiso   1.00
O431   O     0.01852   0.83334   0.31491   0.00000  Uiso   1.00
O432   O     0.31481   0.83332   0.18508   0.00000  Uiso   1.00
O433   O     0.27267   0.83333   0.31492   0.00000  Uiso   1.00
O434   O     0.06067   0.83333   0.18508   0.00000  Uiso   1.00
C435   C     0.66665   0.75401   0.25003   0.00000  Uiso   1.00
C436   C     0.37583   0.68795   0.25034   0.00000  Uiso   1.00
C437   C     0.33334   0.95726   0.25000   0.00000  Uiso   1.00
C438   C     0.66665   0.70940   0.25004   0.00000  Uiso   1.00
C439   C     0.51646   0.80945   0.27970   0.00000  Uiso   1.00
C440   C     0.48354   0.85723   0.22031   0.00000  Uiso   1.00
C441   C     0.46683   0.80950   0.27972   0.00000  Uiso   1.00
C442   C     0.53316   0.85718   0.22030   0.00000  Uiso   1.00
C443   C     0.63972   0.83453   0.33623   0.00000  Uiso   1.00
C444   C     0.36030   0.83251   0.16371   0.00000  Uiso   1.00
C445   C     0.62532   0.83894   0.38553   0.00000  Uiso   1.00
C446   C     0.33335   0.91265   0.24998   0.00000  Uiso   1.00
C447   C     0.37471   0.83022   0.11415   0.00000  Uiso   1.00
C448   C     0.63904   0.86126   0.45620   0.00000  Uiso   1.00
C449   C     0.35980   0.81435   0.04209   0.00000  Uiso   1.00
C450   C     0.65669   0.85463   0.41022   0.00000  Uiso   1.00
C451   C     0.34251   0.81842   0.08846   0.00000  Uiso   1.00
C452   C     0.57705   0.83003   0.40782   0.00000  Uiso   1.00
C453   C     0.42338   0.83833   0.09231   0.00000  Uiso   1.00
C454   C     0.55792   0.83885   0.45365   0.00000  Uiso   1.00
C455   C     0.44153   0.83409   0.04555   0.00000  Uiso   1.00
C456   C     0.59022   0.85384   0.47790   0.00000  Uiso   1.00
C457   C     0.52531   0.85547   0.04582   0.00000  Uiso   1.00
C458   C     0.40871   0.82158   0.02065   0.00000  Uiso   1.00
C459   C     0.50776   0.83349   0.47590   0.00000  Uiso   1.00
C460   C     0.49138   0.84101   0.02301   0.00000  Uiso   1.00
C461   C     0.47326   0.82182   0.45245   0.00000  Uiso   1.00
C462   C     0.57354   0.86194   0.02354   0.00000  Uiso   1.00
C463   C     0.42488   0.81597   0.47452   0.00000  Uiso   1.00
C464   C     0.62414   0.68795   0.24974   0.00000  Uiso   1.00
C465   C     0.37584   0.97872   0.25031   0.00000  Uiso   1.00
C466   C     0.62416   0.97871   0.24971   0.00000  Uiso   1.00
Cl467  Cl    0.61425   0.80628   0.11214   0.00000  Uiso   1.00
Cl468  Cl    0.38417   0.86859   0.38547   0.00000  Uiso   1.00
Cu469  Cu    0.38022   0.83334   0.25000   0.00000  Uiso   1.00
Cu470  Cu    0.61978   0.83333   0.25000   0.00000  Uiso   1.00
H471   H     0.59805   0.87354   0.04230   0.00000  Uiso   1.00
H472   H     0.40908   0.96271   0.25054   0.00000  Uiso   1.00
H473   H     0.59093   0.96270   0.24946   0.00000  Uiso   1.00
H474   H     0.40905   0.70396   0.25060   0.00000  Uiso   1.00
H475   H     0.52849   0.79023   0.30342   0.00000  Uiso   1.00
H476   H     0.47151   0.87645   0.19659   0.00000  Uiso   1.00
H477   H     0.44143   0.79040   0.30348   0.00000  Uiso   1.00
H478   H     0.55857   0.87630   0.19654   0.00000  Uiso   1.00
H479   H     0.39987   0.80664   0.45522   0.00000  Uiso   1.00
H480   H     0.44668   0.84710   0.11303   0.00000  Uiso   1.00
H481   H     0.55510   0.81618   0.38826   0.00000  Uiso   1.00
H482   H     0.66336   0.87335   0.47488   0.00000  Uiso   1.00
H483   H     0.33497   0.80465   0.02276   0.00000  Uiso   1.00
H484   H     0.51598   0.86308   0.08094   0.00000  Uiso   1.00
H485   H     0.48198   0.81755   0.41666   0.00000  Uiso   1.00
H486   H     0.59091   0.70396   0.24952   0.00000  Uiso   1.00
N487   N     0.45069   0.83334   0.24999   0.00000  Uiso   1.00
N488   N     0.54931   0.83332   0.25001   0.00000  Uiso   1.00
O489   O     0.37291   0.77322   0.25000   0.00000  Uiso   1.00
O490   O     0.62709   0.89345   0.25000   0.00000  Uiso   1.00
O491   O     0.62706   0.77321   0.25000   0.00000  Uiso   1.00
O492   O     0.37294   0.89346   0.24999   0.00000  Uiso   1.00
O493   O     0.35186   0.83334   0.31491   0.00000  Uiso   1.00
O494   O     0.64814   0.83332   0.18508   0.00000  Uiso   1.00
O495   O     0.60600   0.83333   0.31492   0.00000  Uiso   1.00
O496   O     0.39400   0.83333   0.18508   0.00000  Uiso   1.00
C497   C     0.99998   0.75401   0.25003   0.00000  Uiso   1.00
C498   C     0.70916   0.68795   0.25034   0.00000  Uiso   1.00
C499   C     0.66667   0.95726   0.25000   0.00000  Uiso   1.00
C500   C     0.99998   0.70940   0.25004   0.00000  Uiso   1.00
C501   C     0.84980   0.80945   0.27970   0.00000  Uiso   1.00
C502   C     0.81687   0.85723   0.22031   0.00000  Uiso   1.00
C503   C     0.80017   0.80950   0.27972   0.00000  Uiso   1.00
C504   C     0.86650   0.85718   0.22030   0.00000  Uiso   1.00
C505   C     0.97305   0.83453   0.33623   0.00000  Uiso   1.00
C506   C     0.69363   0.83251   0.16371   0.00000  Uiso   1.00
C507   C     0.95865   0.83894   0.38553   0.00000  Uiso   1.00
C508   C     0.66668   0.91265   0.24998   0.00000  Uiso   1.00
C509   C     0.70804   0.83022   0.11415   0.00000  Uiso   1.00
C510   C     0.97237   0.86126   0.45620   0.00000  Uiso   1.00
C511   C     0.69313   0.81435   0.04209   0.00000  Uiso   1.00
C512   C     0.99002   0.85463   0.41022   0.00000  Uiso   1.00
C513   C     0.67584   0.81842   0.08846   0.00000  Uiso   1.00
C514   C     0.91038   0.83003   0.40782   0.00000  Uiso   1.00
C515   C     0.75671   0.83833   0.09231   0.00000  Uiso   1.00
C516   C     0.89125   0.83885   0.45365   0.00000  Uiso   1.00
C517   C     0.77487   0.83409   0.04555   0.00000  Uiso   1.00
C518   C     0.92355   0.85384   0.47790   0.00000  Uiso   1.00
C519   C     0.85865   0.85547   0.04582   0.00000  Uiso   1.00
C520   C     0.74205   0.82158   0.02065   0.00000  Uiso   1.00
C521   C     0.84109   0.83349   0.47590   0.00000  Uiso   1.00
C522   C     0.82471   0.84101   0.02301   0.00000  Uiso   1.00
C523   C     0.80659   0.82182   0.45245   0.00000  Uiso   1.00
C524   C     0.90687   0.86194   0.02354   0.00000  Uiso   1.00
C525   C     0.75821   0.81597   0.47452   0.00000  Uiso   1.00
C526   C     0.95748   0.68795   0.24974   0.00000  Uiso   1.00
C527   C     0.70918   0.97872   0.25031   0.00000  Uiso   1.00
C528   C     0.95749   0.97871   0.24971   0.00000  Uiso   1.00
Cl529  Cl    0.94758   0.80628   0.11214   0.00000  Uiso   1.00
Cl530  Cl    0.71750   0.86859   0.38547   0.00000  Uiso   1.00
Cu531  Cu    0.71355   0.83334   0.25000   0.00000  Uiso   1.00
Cu532  Cu    0.95311   0.83333   0.25000   0.00000  Uiso   1.00
H533   H     0.93138   0.87354   0.04230   0.00000  Uiso   1.00
H534   H     0.74241   0.96271   0.25054   0.00000  Uiso   1.00
H535   H     0.92427   0.96270   0.24946   0.00000  Uiso   1.00
H536   H     0.74239   0.70396   0.25060   0.00000  Uiso   1.00
H537   H     0.86182   0.79023   0.30342   0.00000  Uiso   1.00
H538   H     0.80485   0.87645   0.19659   0.00000  Uiso   1.00
H539   H     0.77476   0.79040   0.30348   0.00000  Uiso   1.00
H540   H     0.89190   0.87630   0.19654   0.00000  Uiso   1.00
H541   H     0.73321   0.80664   0.45522   0.00000  Uiso   1.00
H542   H     0.78001   0.84710   0.11303   0.00000  Uiso   1.00
H543   H     0.88843   0.81618   0.38826   0.00000  Uiso   1.00
H544   H     0.99670   0.87335   0.47488   0.00000  Uiso   1.00
H545   H     0.66830   0.80465   0.02276   0.00000  Uiso   1.00
H546   H     0.84931   0.86308   0.08094   0.00000  Uiso   1.00
H547   H     0.81531   0.81755   0.41666   0.00000  Uiso   1.00
H548   H     0.92424   0.70396   0.24952   0.00000  Uiso   1.00
N549   N     0.78403   0.83334   0.24999   0.00000  Uiso   1.00
N550   N     0.88264   0.83332   0.25001   0.00000  Uiso   1.00
O551   O     0.70625   0.77322   0.25000   0.00000  Uiso   1.00
O552   O     0.96042   0.89345   0.25000   0.00000  Uiso   1.00
O553   O     0.96039   0.77321   0.25000   0.00000  Uiso   1.00
O554   O     0.70628   0.89346   0.24999   0.00000  Uiso   1.00
O555   O     0.68519   0.83334   0.31491   0.00000  Uiso   1.00
O556   O     0.98148   0.83332   0.18508   0.00000  Uiso   1.00
O557   O     0.93933   0.83333   0.31492   0.00000  Uiso   1.00
O558   O     0.72733   0.83333   0.18508   0.00000  Uiso   1.00
C559   C     0.33331   0.08735   0.75003   0.00000  Uiso   1.00
C560   C     0.04250   0.02128   0.75034   0.00000  Uiso   1.00
C561   C     0.00001   0.29060   0.75000   0.00000  Uiso   1.00
C562   C     0.33332   0.04274   0.75004   0.00000  Uiso   1.00
C563   C     0.18313   0.14278   0.77970   0.00000  Uiso   1.00
C564   C     0.15020   0.19056   0.72031   0.00000  Uiso   1.00
C565   C     0.13350   0.14283   0.77972   0.00000  Uiso   1.00
C566   C     0.19983   0.19052   0.72030   0.00000  Uiso   1.00
C567   C     0.30638   0.16787   0.83623   0.00000  Uiso   1.00
C568   C     0.02697   0.16585   0.66371   0.00000  Uiso   1.00
C569   C     0.29199   0.17227   0.88553   0.00000  Uiso   1.00
C570   C     0.00002   0.24598   0.74998   0.00000  Uiso   1.00
C571   C     0.04138   0.16355   0.61415   0.00000  Uiso   1.00
C572   C     0.30570   0.19459   0.95620   0.00000  Uiso   1.00
C573   C     0.02646   0.14769   0.54209   0.00000  Uiso   1.00
C574   C     0.32336   0.18796   0.91022   0.00000  Uiso   1.00
C575   C     0.00917   0.15176   0.58846   0.00000  Uiso   1.00
C576   C     0.24372   0.16337   0.90782   0.00000  Uiso   1.00
C577   C     0.09005   0.17166   0.59231   0.00000  Uiso   1.00
C578   C     0.22458   0.17218   0.95365   0.00000  Uiso   1.00
C579   C     0.10820   0.16743   0.54555   0.00000  Uiso   1.00
C580   C     0.25688   0.18717   0.97790   0.00000  Uiso   1.00
C581   C     0.19198   0.18881   0.54582   0.00000  Uiso   1.00
C582   C     0.07538   0.15491   0.52065   0.00000  Uiso   1.00
C583   C     0.17443   0.16683   0.97590   0.00000  Uiso   1.00
C584   C     0.15804   0.17434   0.52301   0.00000  Uiso   1.00
C585   C     0.13993   0.15516   0.95245   0.00000  Uiso   1.00
C586   C     0.24021   0.19527   0.52354   0.00000  Uiso   1.00
C587   C     0.09154   0.14931   0.97452   0.00000  Uiso   1.00
C588   C     0.29081   0.02128   0.74974   0.00000  Uiso   1.00
C589   C     0.04251   0.31205   0.75031   0.00000  Uiso   1.00
C590   C     0.29082   0.31205   0.74971   0.00000  Uiso   1.00
Cl591  Cl    0.28092   0.13961   0.61214   0.00000  Uiso   1.00
Cl592  Cl    0.05083   0.20192   0.88547   0.00000  Uiso   1.00
Cu593  Cu    0.04689   0.16667   0.75000   0.00000  Uiso   1.00
Cu594  Cu    0.28645   0.16666   0.75000   0.00000  Uiso   1.00
H595   H     0.26471   0.20688   0.54230   0.00000  Uiso   1.00
H596   H     0.07575   0.29604   0.75054   0.00000  Uiso   1.00
H597   H     0.25760   0.29604   0.74946   0.00000  Uiso   1.00
H598   H     0.07572   0.03729   0.75060   0.00000  Uiso   1.00
H599   H     0.19515   0.12356   0.80342   0.00000  Uiso   1.00
H600   H     0.13818   0.20978   0.69659   0.00000  Uiso   1.00
H601   H     0.10809   0.12373   0.80348   0.00000  Uiso   1.00
H602   H     0.22523   0.20963   0.69654   0.00000  Uiso   1.00
H603   H     0.06654   0.13998   0.95522   0.00000  Uiso   1.00
H604   H     0.11335   0.18043   0.61303   0.00000  Uiso   1.00
H605   H     0.22176   0.14951   0.88826   0.00000  Uiso   1.00
H606   H     0.33003   0.20668   0.97488   0.00000  Uiso   1.00
H607   H     0.00164   0.13798   0.52276   0.00000  Uiso   1.00
H608   H     0.18265   0.19641   0.58094   0.00000  Uiso   1.00
H609   H     0.14865   0.15088   0.91666   0.00000  Uiso   1.00
H610   H     0.25757   0.03729   0.74952   0.00000  Uiso   1.00
N611   N     0.11736   0.16668   0.74999   0.00000  Uiso   1.00
N612   N     0.21597   0.16666   0.75001   0.00000  Uiso   1.00
O613   O     0.03958   0.10655   0.75000   0.00000  Uiso   1.00
O614   O     0.29375   0.22678   0.75000   0.00000  Uiso   1.00
O615   O     0.29372   0.10654   0.75000   0.00000  Uiso   1.00
O616   O     0.03961   0.22679   0.74999   0.00000  Uiso   1.00
O617   O     0.01852   0.16668   0.81491   0.00000  Uiso   1.00
O618   O     0.31481   0.16666   0.68508   0.00000  Uiso   1.00
O619   O     0.27267   0.16667   0.81492   0.00000  Uiso   1.00
O620   O     0.06067   0.16667   0.68508   0.00000  Uiso   1.00
C621   C     0.66665   0.08735   0.75003   0.00000  Uiso   1.00
C622   C     0.37583   0.02128   0.75034   0.00000  Uiso   1.00
C623   C     0.33334   0.29060   0.75000   0.00000  Uiso   1.00
C624   C     0.66665   0.04274   0.75004   0.00000  Uiso   1.00
C625   C     0.51646   0.14278   0.77970   0.00000  Uiso   1.00
C626   C     0.48354   0.19056   0.72031   0.00000  Uiso   1.00
C627   C     0.46683   0.14283   0.77972   0.00000  Uiso   1.00
C628   C     0.53316   0.19052   0.72030   0.00000  Uiso   1.00
C629   C     0.63972   0.16787   0.83623   0.00000  Uiso   1.00
C630   C     0.36030   0.16585   0.66371   0.00000  Uiso   1.00
C631   C     0.62532   0.17227   0.88553   0.00000  Uiso   1.00
C632   C     0.33335   0.24598   0.74998   0.00000  Uiso   1.00
C633   C     0.37471   0.16355   0.61415   0.00000  Uiso   1.00
C634   C     0.63904   0.19459   0.95620   0.00000  Uiso   1.00
C635   C     0.35980   0.14769   0.54209   0.00000  Uiso   1.00
C636   C     0.65669   0.18796   0.91022   0.00000  Uiso   1.00
C637   C     0.34251   0.15176   0.58846   0.00000  Uiso   1.00
C638   C     0.57705   0.16337   0.90782   0.00000  Uiso   1.00
C639   C     0.42338   0.17166   0.59231   0.00000  Uiso   1.00
C640   C     0.55792   0.17218   0.95365   0.00000  Uiso   1.00
C641   C     0.44153   0.16743   0.54555   0.00000  Uiso   1.00
C642   C     0.59022   0.18717   0.97790   0.00000  Uiso   1.00
C643   C     0.52531   0.18881   0.54582   0.00000  Uiso   1.00
C644   C     0.40871   0.15491   0.52065   0.00000  Uiso   1.00
C645   C     0.50776   0.16683   0.97590   0.00000  Uiso   1.00
C646   C     0.49138   0.17434   0.52301   0.00000  Uiso   1.00
C647   C     0.47326   0.15516   0.95245   0.00000  Uiso   1.00
C648   C     0.57354   0.19527   0.52354   0.00000  Uiso   1.00
C649   C     0.42488   0.14931   0.97452   0.00000  Uiso   1.00
C650   C     0.62414   0.02128   0.74974   0.00000  Uiso   1.00
C651   C     0.37584   0.31205   0.75031   0.00000  Uiso   1.00
C652   C     0.62416   0.31205   0.74971   0.00000  Uiso   1.00
Cl653  Cl    0.61425   0.13961   0.61214   0.00000  Uiso   1.00
Cl654  Cl    0.38417   0.20192   0.88547   0.00000  Uiso   1.00
Cu655  Cu    0.38022   0.16667   0.75000   0.00000  Uiso   1.00
Cu656  Cu    0.61978   0.16666   0.75000   0.00000  Uiso   1.00
H657   H     0.59805   0.20688   0.54230   0.00000  Uiso   1.00
H658   H     0.40908   0.29604   0.75054   0.00000  Uiso   1.00
H659   H     0.59093   0.29604   0.74946   0.00000  Uiso   1.00
H660   H     0.40905   0.03729   0.75060   0.00000  Uiso   1.00
H661   H     0.52849   0.12356   0.80342   0.00000  Uiso   1.00
H662   H     0.47151   0.20978   0.69659   0.00000  Uiso   1.00
H663   H     0.44143   0.12373   0.80348   0.00000  Uiso   1.00
H664   H     0.55857   0.20963   0.69654   0.00000  Uiso   1.00
H665   H     0.39987   0.13998   0.95522   0.00000  Uiso   1.00
H666   H     0.44668   0.18043   0.61303   0.00000  Uiso   1.00
H667   H     0.55510   0.14951   0.88826   0.00000  Uiso   1.00
H668   H     0.66336   0.20668   0.97488   0.00000  Uiso   1.00
H669   H     0.33497   0.13798   0.52276   0.00000  Uiso   1.00
H670   H     0.51598   0.19641   0.58094   0.00000  Uiso   1.00
H671   H     0.48198   0.15088   0.91666   0.00000  Uiso   1.00
H672   H     0.59091   0.03729   0.74952   0.00000  Uiso   1.00
N673   N     0.45069   0.16668   0.74999   0.00000  Uiso   1.00
N674   N     0.54931   0.16666   0.75001   0.00000  Uiso   1.00
O675   O     0.37291   0.10655   0.75000   0.00000  Uiso   1.00
O676   O     0.62709   0.22678   0.75000   0.00000  Uiso   1.00
O677   O     0.62706   0.10654   0.75000   0.00000  Uiso   1.00
O678   O     0.37294   0.22679   0.74999   0.00000  Uiso   1.00
O679   O     0.35186   0.16668   0.81491   0.00000  Uiso   1.00
O680   O     0.64814   0.16666   0.68508   0.00000  Uiso   1.00
O681   O     0.60600   0.16667   0.81492   0.00000  Uiso   1.00
O682   O     0.39400   0.16667   0.68508   0.00000  Uiso   1.00
C683   C     0.99998   0.08735   0.75003   0.00000  Uiso   1.00
C684   C     0.70916   0.02128   0.75034   0.00000  Uiso   1.00
C685   C     0.66667   0.29060   0.75000   0.00000  Uiso   1.00
C686   C     0.99998   0.04274   0.75004   0.00000  Uiso   1.00
C687   C     0.84980   0.14278   0.77970   0.00000  Uiso   1.00
C688   C     0.81687   0.19056   0.72031   0.00000  Uiso   1.00
C689   C     0.80017   0.14283   0.77972   0.00000  Uiso   1.00
C690   C     0.86650   0.19052   0.72030   0.00000  Uiso   1.00
C691   C     0.97305   0.16787   0.83623   0.00000  Uiso   1.00
C692   C     0.69363   0.16585   0.66371   0.00000  Uiso   1.00
C693   C     0.95865   0.17227   0.88553   0.00000  Uiso   1.00
C694   C     0.66668   0.24598   0.74998   0.00000  Uiso   1.00
C695   C     0.70804   0.16355   0.61415   0.00000  Uiso   1.00
C696   C     0.97237   0.19459   0.95620   0.00000  Uiso   1.00
C697   C     0.69313   0.14769   0.54209   0.00000  Uiso   1.00
C698   C     0.99002   0.18796   0.91022   0.00000  Uiso   1.00
C699   C     0.67584   0.15176   0.58846   0.00000  Uiso   1.00
C700   C     0.91038   0.16337   0.90782   0.00000  Uiso   1.00
C701   C     0.75671   0.17166   0.59231   0.00000  Uiso   1.00
C702   C     0.89125   0.17218   0.95365   0.00000  Uiso   1.00
C703   C     0.77487   0.16743   0.54555   0.00000  Uiso   1.00
C704   C     0.92355   0.18717   0.97790   0.00000  Uiso   1.00
C705   C     0.85865   0.18881   0.54582   0.00000  Uiso   1.00
C706   C     0.74205   0.15491   0.52065   0.00000  Uiso   1.00
C707   C     0.84109   0.16683   0.97590   0.00000  Uiso   1.00
C708   C     0.82471   0.17434   0.52301   0.00000  Uiso   1.00
C709   C     0.80659   0.15516   0.95245   0.00000  Uiso   1.00
C710   C     0.90687   0.19527   0.52354   0.00000  Uiso   1.00
C711   C     0.75821   0.14931   0.97452   0.00000  Uiso   1.00
C712   C     0.95748   0.02128   0.74974   0.00000  Uiso   1.00
C713   C     0.70918   0.31205   0.75031   0.00000  Uiso   1.00
C714   C     0.95749   0.31205   0.74971   0.00000  Uiso   1.00
Cl715  Cl    0.94758   0.13961   0.61214   0.00000  Uiso   1.00
Cl716  Cl    0.71750   0.20192   0.88547   0.00000  Uiso   1.00
Cu717  Cu    0.71355   0.16667   0.75000   0.00000  Uiso   1.00
Cu718  Cu    0.95311   0.16666   0.75000   0.00000  Uiso   1.00
H719   H     0.93138   0.20688   0.54230   0.00000  Uiso   1.00
H720   H     0.74241   0.29604   0.75054   0.00000  Uiso   1.00
H721   H     0.92427   0.29604   0.74946   0.00000  Uiso   1.00
H722   H     0.74239   0.03729   0.75060   0.00000  Uiso   1.00
H723   H     0.86182   0.12356   0.80342   0.00000  Uiso   1.00
H724   H     0.80485   0.20978   0.69659   0.00000  Uiso   1.00
H725   H     0.77476   0.12373   0.80348   0.00000  Uiso   1.00
H726   H     0.89190   0.20963   0.69654   0.00000  Uiso   1.00
H727   H     0.73321   0.13998   0.95522   0.00000  Uiso   1.00
H728   H     0.78001   0.18043   0.61303   0.00000  Uiso   1.00
H729   H     0.88843   0.14951   0.88826   0.00000  Uiso   1.00
H730   H     0.99670   0.20668   0.97488   0.00000  Uiso   1.00
H731   H     0.66830   0.13798   0.52276   0.00000  Uiso   1.00
H732   H     0.84931   0.19641   0.58094   0.00000  Uiso   1.00
H733   H     0.81531   0.15088   0.91666   0.00000  Uiso   1.00
H734   H     0.92424   0.03729   0.74952   0.00000  Uiso   1.00
N735   N     0.78403   0.16668   0.74999   0.00000  Uiso   1.00
N736   N     0.88264   0.16666   0.75001   0.00000  Uiso   1.00
O737   O     0.70625   0.10655   0.75000   0.00000  Uiso   1.00
O738   O     0.96042   0.22678   0.75000   0.00000  Uiso   1.00
O739   O     0.96039   0.10654   0.75000   0.00000  Uiso   1.00
O740   O     0.70628   0.22679   0.74999   0.00000  Uiso   1.00
O741   O     0.68519   0.16668   0.81491   0.00000  Uiso   1.00
O742   O     0.98148   0.16666   0.68508   0.00000  Uiso   1.00
O743   O     0.93933   0.16667   0.81492   0.00000  Uiso   1.00
O744   O     0.72733   0.16667   0.68508   0.00000  Uiso   1.00
C745   C     0.33331   0.42068   0.75003   0.00000  Uiso   1.00
C746   C     0.04250   0.35462   0.75034   0.00000  Uiso   1.00
C747   C     0.00001   0.62393   0.75000   0.00000  Uiso   1.00
C748   C     0.33332   0.37607   0.75004   0.00000  Uiso   1.00
C749   C     0.18313   0.47611   0.77970   0.00000  Uiso   1.00
C750   C     0.15020   0.52389   0.72031   0.00000  Uiso   1.00
C751   C     0.13350   0.47616   0.77972   0.00000  Uiso   1.00
C752   C     0.19983   0.52385   0.72030   0.00000  Uiso   1.00
C753   C     0.30638   0.50120   0.83623   0.00000  Uiso   1.00
C754   C     0.02697   0.49918   0.66371   0.00000  Uiso   1.00
C755   C     0.29199   0.50561   0.88553   0.00000  Uiso   1.00
C756   C     0.00002   0.57932   0.74998   0.00000  Uiso   1.00
C757   C     0.04138   0.49689   0.61415   0.00000  Uiso   1.00
C758   C     0.30570   0.52792   0.95620   0.00000  Uiso   1.00
C759   C     0.02646   0.48102   0.54209   0.00000  Uiso   1.00
C760   C     0.32336   0.52130   0.91022   0.00000  Uiso   1.00
C761   C     0.00917   0.48509   0.58846   0.00000  Uiso   1.00
C762   C     0.24372   0.49670   0.90782   0.00000  Uiso   1.00
C763   C     0.09005   0.50499   0.59231   0.00000  Uiso   1.00
C764   C     0.22458   0.50552   0.95365   0.00000  Uiso   1.00
C765   C     0.10820   0.50076   0.54555   0.00000  Uiso   1.00
C766   C     0.25688   0.52051   0.97790   0.00000  Uiso   1.00
C767   C     0.19198   0.52214   0.54582   0.00000  Uiso   1.00
C768   C     0.07538   0.48825   0.52065   0.00000  Uiso   1.00
C769   C     0.17443   0.50016   0.97590   0.00000  Uiso   1.00
C770   C     0.15804   0.50768   0.52301   0.00000  Uiso   1.00
C771   C     0.13993   0.48849   0.95245   0.00000  Uiso   1.00
C772   C     0.24021   0.52860   0.52354   0.00000  Uiso   1.00
C773   C     0.09154   0.48264   0.97452   0.00000  Uiso   1.00
C774   C     0.29081   0.35461   0.74974   0.00000  Uiso   1.00
C775   C     0.04251   0.64538   0.75031   0.00000  Uiso   1.00
C776   C     0.29082   0.64538   0.74971   0.00000  Uiso   1.00
Cl777  Cl    0.28092   0.47294   0.61214   0.00000  Uiso   1.00
Cl778  Cl    0.05083   0.53526   0.88547   0.00000  Uiso   1.00
Cu779  Cu    0.04689   0.50001   0.75000   0.00000  Uiso   1.00
Cu780  Cu    0.28645   0.49999   0.75000   0.00000  Uiso   1.00
H781   H     0.26471   0.54021   0.54230   0.00000  Uiso   1.00
H782   H     0.07575   0.62937   0.75054   0.00000  Uiso   1.00
H783   H     0.25760   0.62937   0.74946   0.00000  Uiso   1.00
H784   H     0.07572   0.37063   0.75060   0.00000  Uiso   1.00
H785   H     0.19515   0.45690   0.80342   0.00000  Uiso   1.00
H786   H     0.13818   0.54312   0.69659   0.00000  Uiso   1.00
H787   H     0.10809   0.45706   0.80348   0.00000  Uiso   1.00
H788   H     0.22523   0.54297   0.69654   0.00000  Uiso   1.00
H789   H     0.06654   0.47331   0.95522   0.00000  Uiso   1.00
H790   H     0.11335   0.51377   0.61303   0.00000  Uiso   1.00
H791   H     0.22176   0.48284   0.88826   0.00000  Uiso   1.00
H792   H     0.33003   0.54001   0.97488   0.00000  Uiso   1.00
H793   H     0.00164   0.47132   0.52276   0.00000  Uiso   1.00
H794   H     0.18265   0.52975   0.58094   0.00000  Uiso   1.00
H795   H     0.14865   0.48421   0.91666   0.00000  Uiso   1.00
H796   H     0.25757   0.37062   0.74952   0.00000  Uiso   1.00
N797   N     0.11736   0.50001   0.74999   0.00000  Uiso   1.00
N798   N     0.21597   0.49999   0.75001   0.00000  Uiso   1.00
O799   O     0.03958   0.43989   0.75000   0.00000  Uiso   1.00
O800   O     0.29375   0.56011   0.75000   0.00000  Uiso   1.00
O801   O     0.29372   0.43988   0.75000   0.00000  Uiso   1.00
O802   O     0.03961   0.56012   0.74999   0.00000  Uiso   1.00
O803   O     0.01852   0.50001   0.81491   0.00000  Uiso   1.00
O804   O     0.31481   0.49999   0.68508   0.00000  Uiso   1.00
O805   O     0.27267   0.50000   0.81492   0.00000  Uiso   1.00
O806   O     0.06067   0.50000   0.68508   0.00000  Uiso   1.00
C807   C     0.66665   0.42068   0.75003   0.00000  Uiso   1.00
C808   C     0.37583   0.35462   0.75034   0.00000  Uiso   1.00
C809   C     0.33334   0.62393   0.75000   0.00000  Uiso   1.00
C810   C     0.66665   0.37607   0.75004   0.00000  Uiso   1.00
C811   C     0.51646   0.47611   0.77970   0.00000  Uiso   1.00
C812   C     0.48354   0.52389   0.72031   0.00000  Uiso   1.00
C813   C     0.46683   0.47616   0.77972   0.00000  Uiso   1.00
C814   C     0.53316   0.52385   0.72030   0.00000  Uiso   1.00
C815   C     0.63972   0.50120   0.83623   0.00000  Uiso   1.00
C816   C     0.36030   0.49918   0.66371   0.00000  Uiso   1.00
C817   C     0.62532   0.50561   0.88553   0.00000  Uiso   1.00
C818   C     0.33335   0.57932   0.74998   0.00000  Uiso   1.00
C819   C     0.37471   0.49689   0.61415   0.00000  Uiso   1.00
C820   C     0.63904   0.52792   0.95620   0.00000  Uiso   1.00
C821   C     0.35980   0.48102   0.54209   0.00000  Uiso   1.00
C822   C     0.65669   0.52130   0.91022   0.00000  Uiso   1.00
C823   C     0.34251   0.48509   0.58846   0.00000  Uiso   1.00
C824   C     0.57705   0.49670   0.90782   0.00000  Uiso   1.00
C825   C     0.42338   0.50499   0.59231   0.00000  Uiso   1.00
C826   C     0.55792   0.50552   0.95365   0.00000  Uiso   1.00
C827   C     0.44153   0.50076   0.54555   0.00000  Uiso   1.00
C828   C     0.59022   0.52051   0.97790   0.00000  Uiso   1.00
C829   C     0.52531   0.52214   0.54582   0.00000  Uiso   1.00
C830   C     0.40871   0.48825   0.52065   0.00000  Uiso   1.00
C831   C     0.50776   0.50016   0.97590   0.00000  Uiso   1.00
C832   C     0.49138   0.50768   0.52301   0.00000  Uiso   1.00
C833   C     0.47326   0.48849   0.95245   0.00000  Uiso   1.00
C834   C     0.57354   0.52860   0.52354   0.00000  Uiso   1.00
C835   C     0.42488   0.48264   0.97452   0.00000  Uiso   1.00
C836   C     0.62414   0.35461   0.74974   0.00000  Uiso   1.00
C837   C     0.37584   0.64538   0.75031   0.00000  Uiso   1.00
C838   C     0.62416   0.64538   0.74971   0.00000  Uiso   1.00
Cl839  Cl    0.61425   0.47294   0.61214   0.00000  Uiso   1.00
Cl840  Cl    0.38417   0.53526   0.88547   0.00000  Uiso   1.00
Cu841  Cu    0.38022   0.50001   0.75000   0.00000  Uiso   1.00
Cu842  Cu    0.61978   0.49999   0.75000   0.00000  Uiso   1.00
H843   H     0.59805   0.54021   0.54230   0.00000  Uiso   1.00
H844   H     0.40908   0.62937   0.75054   0.00000  Uiso   1.00
H845   H     0.59093   0.62937   0.74946   0.00000  Uiso   1.00
H846   H     0.40905   0.37063   0.75060   0.00000  Uiso   1.00
H847   H     0.52849   0.45690   0.80342   0.00000  Uiso   1.00
H848   H     0.47151   0.54312   0.69659   0.00000  Uiso   1.00
H849   H     0.44143   0.45706   0.80348   0.00000  Uiso   1.00
H850   H     0.55857   0.54297   0.69654   0.00000  Uiso   1.00
H851   H     0.39987   0.47331   0.95522   0.00000  Uiso   1.00
H852   H     0.44668   0.51377   0.61303   0.00000  Uiso   1.00
H853   H     0.55510   0.48284   0.88826   0.00000  Uiso   1.00
H854   H     0.66336   0.54001   0.97488   0.00000  Uiso   1.00
H855   H     0.33497   0.47132   0.52276   0.00000  Uiso   1.00
H856   H     0.51598   0.52975   0.58094   0.00000  Uiso   1.00
H857   H     0.48198   0.48421   0.91666   0.00000  Uiso   1.00
H858   H     0.59091   0.37062   0.74952   0.00000  Uiso   1.00
N859   N     0.45069   0.50001   0.74999   0.00000  Uiso   1.00
N860   N     0.54931   0.49999   0.75001   0.00000  Uiso   1.00
O861   O     0.37291   0.43989   0.75000   0.00000  Uiso   1.00
O862   O     0.62709   0.56011   0.75000   0.00000  Uiso   1.00
O863   O     0.62706   0.43988   0.75000   0.00000  Uiso   1.00
O864   O     0.37294   0.56012   0.74999   0.00000  Uiso   1.00
O865   O     0.35186   0.50001   0.81491   0.00000  Uiso   1.00
O866   O     0.64814   0.49999   0.68508   0.00000  Uiso   1.00
O867   O     0.60600   0.50000   0.81492   0.00000  Uiso   1.00
O868   O     0.39400   0.50000   0.68508   0.00000  Uiso   1.00
C869   C     0.99998   0.42068   0.75003   0.00000  Uiso   1.00
C870   C     0.70916   0.35462   0.75034   0.00000  Uiso   1.00
C871   C     0.66667   0.62393   0.75000   0.00000  Uiso   1.00
C872   C     0.99998   0.37607   0.75004   0.00000  Uiso   1.00
C873   C     0.84980   0.47611   0.77970   0.00000  Uiso   1.00
C874   C     0.81687   0.52389   0.72031   0.00000  Uiso   1.00
C875   C     0.80017   0.47616   0.77972   0.00000  Uiso   1.00
C876   C     0.86650   0.52385   0.72030   0.00000  Uiso   1.00
C877   C     0.97305   0.50120   0.83623   0.00000  Uiso   1.00
C878   C     0.69363   0.49918   0.66371   0.00000  Uiso   1.00
C879   C     0.95865   0.50561   0.88553   0.00000  Uiso   1.00
C880   C     0.66668   0.57932   0.74998   0.00000  Uiso   1.00
C881   C     0.70804   0.49689   0.61415   0.00000  Uiso   1.00
C882   C     0.97237   0.52792   0.95620   0.00000  Uiso   1.00
C883   C     0.69313   0.48102   0.54209   0.00000  Uiso   1.00
C884   C     0.99002   0.52130   0.91022   0.00000  Uiso   1.00
C885   C     0.67584   0.48509   0.58846   0.00000  Uiso   1.00
C886   C     0.91038   0.49670   0.90782   0.00000  Uiso   1.00
C887   C     0.75671   0.50499   0.59231   0.00000  Uiso   1.00
C888   C     0.89125   0.50552   0.95365   0.00000  Uiso   1.00
C889   C     0.77487   0.50076   0.54555   0.00000  Uiso   1.00
C890   C     0.92355   0.52051   0.97790   0.00000  Uiso   1.00
C891   C     0.85865   0.52214   0.54582   0.00000  Uiso   1.00
C892   C     0.74205   0.48825   0.52065   0.00000  Uiso   1.00
C893   C     0.84109   0.50016   0.97590   0.00000  Uiso   1.00
C894   C     0.82471   0.50768   0.52301   0.00000  Uiso   1.00
C895   C     0.80659   0.48849   0.95245   0.00000  Uiso   1.00
C896   C     0.90687   0.52860   0.52354   0.00000  Uiso   1.00
C897   C     0.75821   0.48264   0.97452   0.00000  Uiso   1.00
C898   C     0.95748   0.35461   0.74974   0.00000  Uiso   1.00
C899   C     0.70918   0.64538   0.75031   0.00000  Uiso   1.00
C900   C     0.95749   0.64538   0.74971   0.00000  Uiso   1.00
Cl901  Cl    0.94758   0.47294   0.61214   0.00000  Uiso   1.00
Cl902  Cl    0.71750   0.53526   0.88547   0.00000  Uiso   1.00
Cu903  Cu    0.71355   0.50001   0.75000   0.00000  Uiso   1.00
Cu904  Cu    0.95311   0.49999   0.75000   0.00000  Uiso   1.00
H905   H     0.93138   0.54021   0.54230   0.00000  Uiso   1.00
H906   H     0.74241   0.62937   0.75054   0.00000  Uiso   1.00
H907   H     0.92427   0.62937   0.74946   0.00000  Uiso   1.00
H908   H     0.74239   0.37063   0.75060   0.00000  Uiso   1.00
H909   H     0.86182   0.45690   0.80342   0.00000  Uiso   1.00
H910   H     0.80485   0.54312   0.69659   0.00000  Uiso   1.00
H911   H     0.77476   0.45706   0.80348   0.00000  Uiso   1.00
H912   H     0.89190   0.54297   0.69654   0.00000  Uiso   1.00
H913   H     0.73321   0.47331   0.95522   0.00000  Uiso   1.00
H914   H     0.78001   0.51377   0.61303   0.00000  Uiso   1.00
H915   H     0.88843   0.48284   0.88826   0.00000  Uiso   1.00
H916   H     0.99670   0.54001   0.97488   0.00000  Uiso   1.00
H917   H     0.66830   0.47132   0.52276   0.00000  Uiso   1.00
H918   H     0.84931   0.52975   0.58094   0.00000  Uiso   1.00
H919   H     0.81531   0.48421   0.91666   0.00000  Uiso   1.00
H920   H     0.92424   0.37062   0.74952   0.00000  Uiso   1.00
N921   N     0.78403   0.50001   0.74999   0.00000  Uiso   1.00
N922   N     0.88264   0.49999   0.75001   0.00000  Uiso   1.00
O923   O     0.70625   0.43989   0.75000   0.00000  Uiso   1.00
O924   O     0.96042   0.56011   0.75000   0.00000  Uiso   1.00
O925   O     0.96039   0.43988   0.75000   0.00000  Uiso   1.00
O926   O     0.70628   0.56012   0.74999   0.00000  Uiso   1.00
O927   O     0.68519   0.50001   0.81491   0.00000  Uiso   1.00
O928   O     0.98148   0.49999   0.68508   0.00000  Uiso   1.00
O929   O     0.93933   0.50000   0.81492   0.00000  Uiso   1.00
O930   O     0.72733   0.50000   0.68508   0.00000  Uiso   1.00
C931   C     0.33331   0.75401   0.75003   0.00000  Uiso   1.00
C932   C     0.04250   0.68795   0.75034   0.00000  Uiso   1.00
C933   C     0.00001   0.95726   0.75000   0.00000  Uiso   1.00
C934   C     0.33332   0.70940   0.75004   0.00000  Uiso   1.00
C935   C     0.18313   0.80945   0.77970   0.00000  Uiso   1.00
C936   C     0.15020   0.85723   0.72031   0.00000  Uiso   1.00
C937   C     0.13350   0.80950   0.77972   0.00000  Uiso   1.00
C938   C     0.19983   0.85718   0.72030   0.00000  Uiso   1.00
C939   C     0.30638   0.83453   0.83623   0.00000  Uiso   1.00
C940   C     0.02697   0.83251   0.66371   0.00000  Uiso   1.00
C941   C     0.29199   0.83894   0.88553   0.00000  Uiso   1.00
C942   C     0.00002   0.91265   0.74998   0.00000  Uiso   1.00
C943   C     0.04138   0.83022   0.61415   0.00000  Uiso   1.00
C944   C     0.30570   0.86126   0.95620   0.00000  Uiso   1.00
C945   C     0.02646   0.81435   0.54209   0.00000  Uiso   1.00
C946   C     0.32336   0.85463   0.91022   0.00000  Uiso   1.00
C947   C     0.00917   0.81842   0.58846   0.00000  Uiso   1.00
C948   C     0.24372   0.83003   0.90782   0.00000  Uiso   1.00
C949   C     0.09005   0.83833   0.59231   0.00000  Uiso   1.00
C950   C     0.22458   0.83885   0.95365   0.00000  Uiso   1.00
C951   C     0.10820   0.83409   0.54555   0.00000  Uiso   1.00
C952   C     0.25688   0.85384   0.97790   0.00000  Uiso   1.00
C953   C     0.19198   0.85547   0.54582   0.00000  Uiso   1.00
C954   C     0.07538   0.82158   0.52065   0.00000  Uiso   1.00
C955   C     0.17443   0.83349   0.97590   0.00000  Uiso   1.00
C956   C     0.15804   0.84101   0.52301   0.00000  Uiso   1.00
C957   C     0.13993   0.82182   0.95245   0.00000  Uiso   1.00
C958   C     0.24021   0.86194   0.52354   0.00000  Uiso   1.00
C959   C     0.09154   0.81597   0.97452   0.00000  Uiso   1.00
C960   C     0.29081   0.68795   0.74974   0.00000  Uiso   1.00
C961   C     0.04251   0.97872   0.75031   0.00000  Uiso   1.00
C962   C     0.29082   0.97871   0.74971   0.00000  Uiso   1.00
Cl963  Cl    0.28092   0.80628   0.61214   0.00000  Uiso   1.00
Cl964  Cl    0.05083   0.86859   0.88547   0.00000  Uiso   1.00
Cu965  Cu    0.04689   0.83334   0.75000   0.00000  Uiso   1.00
Cu966  Cu    0.28645   0.83333   0.75000   0.00000  Uiso   1.00
H967   H     0.26471   0.87354   0.54230   0.00000  Uiso   1.00
H968   H     0.07575   0.96271   0.75054   0.00000  Uiso   1.00
H969   H     0.25760   0.96270   0.74946   0.00000  Uiso   1.00
H970   H     0.07572   0.70396   0.75060   0.00000  Uiso   1.00
H971   H     0.19515   0.79023   0.80342   0.00000  Uiso   1.00
H972   H     0.13818   0.87645   0.69659   0.00000  Uiso   1.00
H973   H     0.10809   0.79040   0.80348   0.00000  Uiso   1.00
H974   H     0.22523   0.87630   0.69654   0.00000  Uiso   1.00
H975   H     0.06654   0.80664   0.95522   0.00000  Uiso   1.00
H976   H     0.11335   0.84710   0.61303   0.00000  Uiso   1.00
H977   H     0.22176   0.81618   0.88826   0.00000  Uiso   1.00
H978   H     0.33003   0.87335   0.97488   0.00000  Uiso   1.00
H979   H     0.00164   0.80465   0.52276   0.00000  Uiso   1.00
H980   H     0.18265   0.86308   0.58094   0.00000  Uiso   1.00
H981   H     0.14865   0.81755   0.91666   0.00000  Uiso   1.00
H982   H     0.25757   0.70396   0.74952   0.00000  Uiso   1.00
N983   N     0.11736   0.83334   0.74999   0.00000  Uiso   1.00
N984   N     0.21597   0.83332   0.75001   0.00000  Uiso   1.00
O985   O     0.03958   0.77322   0.75000   0.00000  Uiso   1.00
O986   O     0.29375   0.89345   0.75000   0.00000  Uiso   1.00
O987   O     0.29372   0.77321   0.75000   0.00000  Uiso   1.00
O988   O     0.03961   0.89346   0.74999   0.00000  Uiso   1.00
O989   O     0.01852   0.83334   0.81491   0.00000  Uiso   1.00
O990   O     0.31481   0.83332   0.68508   0.00000  Uiso   1.00
O991   O     0.27267   0.83333   0.81492   0.00000  Uiso   1.00
O992   O     0.06067   0.83333   0.68508   0.00000  Uiso   1.00
C993   C     0.66665   0.75401   0.75003   0.00000  Uiso   1.00
C994   C     0.37583   0.68795   0.75034   0.00000  Uiso   1.00
C995   C     0.33334   0.95726   0.75000   0.00000  Uiso   1.00
C996   C     0.66665   0.70940   0.75004   0.00000  Uiso   1.00
C997   C     0.51646   0.80945   0.77970   0.00000  Uiso   1.00
C998   C     0.48354   0.85723   0.72031   0.00000  Uiso   1.00
C999   C     0.46683   0.80950   0.77972   0.00000  Uiso   1.00
C1000  C     0.53316   0.85718   0.72030   0.00000  Uiso   1.00
C1001  C     0.63972   0.83453   0.83623   0.00000  Uiso   1.00
C1002  C     0.36030   0.83251   0.66371   0.00000  Uiso   1.00
C1003  C     0.62532   0.83894   0.88553   0.00000  Uiso   1.00
C1004  C     0.33335   0.91265   0.74998   0.00000  Uiso   1.00
C1005  C     0.37471   0.83022   0.61415   0.00000  Uiso   1.00
C1006  C     0.63904   0.86126   0.95620   0.00000  Uiso   1.00
C1007  C     0.35980   0.81435   0.54209   0.00000  Uiso   1.00
C1008  C     0.65669   0.85463   0.91022   0.00000  Uiso   1.00
C1009  C     0.34251   0.81842   0.58846   0.00000  Uiso   1.00
C1010  C     0.57705   0.83003   0.90782   0.00000  Uiso   1.00
C1011  C     0.42338   0.83833   0.59231   0.00000  Uiso   1.00
C1012  C     0.55792   0.83885   0.95365   0.00000  Uiso   1.00
C1013  C     0.44153   0.83409   0.54555   0.00000  Uiso   1.00
C1014  C     0.59022   0.85384   0.97790   0.00000  Uiso   1.00
C1015  C     0.52531   0.85547   0.54582   0.00000  Uiso   1.00
C1016  C     0.40871   0.82158   0.52065   0.00000  Uiso   1.00
C1017  C     0.50776   0.83349   0.97590   0.00000  Uiso   1.00
C1018  C     0.49138   0.84101   0.52301   0.00000  Uiso   1.00
C1019  C     0.47326   0.82182   0.95245   0.00000  Uiso   1.00
C1020  C     0.57354   0.86194   0.52354   0.00000  Uiso   1.00
C1021  C     0.42488   0.81597   0.97452   0.00000  Uiso   1.00
C1022  C     0.62414   0.68795   0.74974   0.00000  Uiso   1.00
C1023  C     0.37584   0.97872   0.75031   0.00000  Uiso   1.00
C1024  C     0.62416   0.97871   0.74971   0.00000  Uiso   1.00
Cl1025 Cl    0.61425   0.80628   0.61214   0.00000  Uiso   1.00
Cl1026 Cl    0.38417   0.86859   0.88547   0.00000  Uiso   1.00
Cu1027 Cu    0.38022   0.83334   0.75000   0.00000  Uiso   1.00
Cu1028 Cu    0.61978   0.83333   0.75000   0.00000  Uiso   1.00
H1029  H     0.59805   0.87354   0.54230   0.00000  Uiso   1.00
H1030  H     0.40908   0.96271   0.75054   0.00000  Uiso   1.00
H1031  H     0.59093   0.96270   0.74946   0.00000  Uiso   1.00
H1032  H     0.40905   0.70396   0.75060   0.00000  Uiso   1.00
H1033  H     0.52849   0.79023   0.80342   0.00000  Uiso   1.00
H1034  H     0.47151   0.87645   0.69659   0.00000  Uiso   1.00
H1035  H     0.44143   0.79040   0.80348   0.00000  Uiso   1.00
H1036  H     0.55857   0.87630   0.69654   0.00000  Uiso   1.00
H1037  H     0.39987   0.80664   0.95522   0.00000  Uiso   1.00
H1038  H     0.44668   0.84710   0.61303   0.00000  Uiso   1.00
H1039  H     0.55510   0.81618   0.88826   0.00000  Uiso   1.00
H1040  H     0.66336   0.87335   0.97488   0.00000  Uiso   1.00
H1041  H     0.33497   0.80465   0.52276   0.00000  Uiso   1.00
H1042  H     0.51598   0.86308   0.58094   0.00000  Uiso   1.00
H1043  H     0.48198   0.81755   0.91666   0.00000  Uiso   1.00
H1044  H     0.59091   0.70396   0.74952   0.00000  Uiso   1.00
N1045  N     0.45069   0.83334   0.74999   0.00000  Uiso   1.00
N1046  N     0.54931   0.83332   0.75001   0.00000  Uiso   1.00
O1047  O     0.37291   0.77322   0.75000   0.00000  Uiso   1.00
O1048  O     0.62709   0.89345   0.75000   0.00000  Uiso   1.00
O1049  O     0.62706   0.77321   0.75000   0.00000  Uiso   1.00
O1050  O     0.37294   0.89346   0.74999   0.00000  Uiso   1.00
O1051  O     0.35186   0.83334   0.81491   0.00000  Uiso   1.00
O1052  O     0.64814   0.83332   0.68508   0.00000  Uiso   1.00
O1053  O     0.60600   0.83333   0.81492   0.00000  Uiso   1.00
O1054  O     0.39400   0.83333   0.68508   0.00000  Uiso   1.00
C1055  C     0.99998   0.75401   0.75003   0.00000  Uiso   1.00
C1056  C     0.70916   0.68795   0.75034   0.00000  Uiso   1.00
C1057  C     0.66667   0.95726   0.75000   0.00000  Uiso   1.00
C1058  C     0.99998   0.70940   0.75004   0.00000  Uiso   1.00
C1059  C     0.84980   0.80945   0.77970   0.00000  Uiso   1.00
C1060  C     0.81687   0.85723   0.72031   0.00000  Uiso   1.00
C1061  C     0.80017   0.80950   0.77972   0.00000  Uiso   1.00
C1062  C     0.86650   0.85718   0.72030   0.00000  Uiso   1.00
C1063  C     0.97305   0.83453   0.83623   0.00000  Uiso   1.00
C1064  C     0.69363   0.83251   0.66371   0.00000  Uiso   1.00
C1065  C     0.95865   0.83894   0.88553   0.00000  Uiso   1.00
C1066  C     0.66668   0.91265   0.74998   0.00000  Uiso   1.00
C1067  C     0.70804   0.83022   0.61415   0.00000  Uiso   1.00
C1068  C     0.97237   0.86126   0.95620   0.00000  Uiso   1.00
C1069  C     0.69313   0.81435   0.54209   0.00000  Uiso   1.00
C1070  C     0.99002   0.85463   0.91022   0.00000  Uiso   1.00
C1071  C     0.67584   0.81842   0.58846   0.00000  Uiso   1.00
C1072  C     0.91038   0.83003   0.90782   0.00000  Uiso   1.00
C1073  C     0.75671   0.83833   0.59231   0.00000  Uiso   1.00
C1074  C     0.89125   0.83885   0.95365   0.00000  Uiso   1.00
C1075  C     0.77487   0.83409   0.54555   0.00000  Uiso   1.00
C1076  C     0.92355   0.85384   0.97790   0.00000  Uiso   1.00
C1077  C     0.85865   0.85547   0.54582   0.00000  Uiso   1.00
C1078  C     0.74205   0.82158   0.52065   0.00000  Uiso   1.00
C1079  C     0.84109   0.83349   0.97590   0.00000  Uiso   1.00
C1080  C     0.82471   0.84101   0.52301   0.00000  Uiso   1.00
C1081  C     0.80659   0.82182   0.95245   0.00000  Uiso   1.00
C1082  C     0.90687   0.86194   0.52354   0.00000  Uiso   1.00
C1083  C     0.75821   0.81597   0.97452   0.00000  Uiso   1.00
C1084  C     0.95748   0.68795   0.74974   0.00000  Uiso   1.00
C1085  C     0.70918   0.97872   0.75031   0.00000  Uiso   1.00
C1086  C     0.95749   0.97871   0.74971   0.00000  Uiso   1.00
Cl1087 Cl    0.94758   0.80628   0.61214   0.00000  Uiso   1.00
Cl1088 Cl    0.71750   0.86859   0.88547   0.00000  Uiso   1.00
Cu1089 Cu    0.71355   0.83334   0.75000   0.00000  Uiso   1.00
Cu1090 Cu    0.95311   0.83333   0.75000   0.00000  Uiso   1.00
H1091  H     0.93138   0.87354   0.54230   0.00000  Uiso   1.00
H1092  H     0.74241   0.96271   0.75054   0.00000  Uiso   1.00
H1093  H     0.92427   0.96270   0.74946   0.00000  Uiso   1.00
H1094  H     0.74239   0.70396   0.75060   0.00000  Uiso   1.00
H1095  H     0.86182   0.79023   0.80342   0.00000  Uiso   1.00
H1096  H     0.80485   0.87645   0.69659   0.00000  Uiso   1.00
H1097  H     0.77476   0.79040   0.80348   0.00000  Uiso   1.00
H1098  H     0.89190   0.87630   0.69654   0.00000  Uiso   1.00
H1099  H     0.73321   0.80664   0.95522   0.00000  Uiso   1.00
H1100  H     0.78001   0.84710   0.61303   0.00000  Uiso   1.00
H1101  H     0.88843   0.81618   0.88826   0.00000  Uiso   1.00
H1102  H     0.99670   0.87335   0.97488   0.00000  Uiso   1.00
H1103  H     0.66830   0.80465   0.52276   0.00000  Uiso   1.00
H1104  H     0.84931   0.86308   0.58094   0.00000  Uiso   1.00
H1105  H     0.81531   0.81755   0.91666   0.00000  Uiso   1.00
H1106  H     0.92424   0.70396   0.74952   0.00000  Uiso   1.00
N1107  N     0.78403   0.83334   0.74999   0.00000  Uiso   1.00
N1108  N     0.88264   0.83332   0.75001   0.00000  Uiso   1.00
O1109  O     0.70625   0.77322   0.75000   0.00000  Uiso   1.00
O1110  O     0.96042   0.89345   0.75000   0.00000  Uiso   1.00
O1111  O     0.96039   0.77321   0.75000   0.00000  Uiso   1.00
O1112  O     0.70628   0.89346   0.74999   0.00000  Uiso   1.00
O1113  O     0.68519   0.83334   0.81491   0.00000  Uiso   1.00
O1114  O     0.98148   0.83332   0.68508   0.00000  Uiso   1.00
O1115  O     0.93933   0.83333   0.81492   0.00000  Uiso   1.00
O1116  O     0.72733   0.83333   0.68508   0.00000  Uiso   1.00
loop_
_geom_bond_atom_site_label_1
_geom_bond_atom_site_label_2
_geom_bond_distance
_geom_bond_site_symmetry_2
_ccdc_geom_bond_type
C1     O57     1.291   .     A
C1     C4      1.450   .     S
C1     O117    1.291   .     S
C2     H40     1.083   .     S
C2     C128    1.401   1_455 S
C2     C403    1.383   1_545 S
C3     C31     1.401   .     A
C3     C12     1.450   .     S
C3     C156    1.401   1_455 S
C4     C30     1.401   .     A
C4     C64     1.401   .     S
C5     H41     1.082   .     S
C5     C7      1.416   .     A
C5     N54     1.367   .     A
C6     C8      1.416   .     A
C6     N53     1.367   .     A
C6     H42     1.082   .     S
C7     N53     1.366   .     A
C7     H43     1.082   .     S
C8     N54     1.366   .     A
C8     H44     1.082   .     S
C9     C11     1.475   .     S
C9     O61     1.298   .     A
C9     O121    1.294   .     S
C10    O62     1.299   .     A
C10    C13     1.478   .     S
C10    O184    1.295   1_455 S
C11    C18     1.401   .     A
C11    C16     1.412   .     A
C12    O58     1.291   .     A
C12    O180    1.291   1_455 S
C13    C17     1.413   .     A
C13    C19     1.402   .     A
C14    C22     1.401   .     A
C14    C16     1.393   .     A
C14    H48     1.084   .     S
C15    C24     1.401   .     A
C15    H49     1.084   .     S
C15    C17     1.393   .     A
C16    Cl96    1.764   .     S
C17    Cl157   1.764   1_455 S
C18    H47     1.075   .     S
C18    C20     1.407   .     A
C19    H46     1.073   .     S
C19    C21     1.407   .     A
C20    C22     1.416   .     A
C20    C25     1.428   .     A
C21    C26     1.429   .     A
C21    C24     1.416   .     A
C22    C586    1.389   .     S
C23    C28     1.385   .     A
C23    C26     1.417   .     A
C23    H50     1.075   .     S
C24    C587    1.389   1_554 S
C25    C27     1.416   .     A
C25    C584    1.427   .     S
C26    C583    1.427   1_554 S
C27    H51     1.076   .     S
C27    C29     1.385   .     A
C28    H37     1.085   .     S
C28    C580    1.389   1_554 S
C29    H45     1.084   .     S
C29    C582    1.389   .     S
C30    H52     1.083   .     S
C30    C404    1.383   1_545 S
C31    H38     1.083   .     S
C31    C188    1.383   .     S
C32    H39     1.083   .     S
C32    C65     1.401   .     S
C32    C216    1.383   .     S
Cl33   C79     1.764   .     S
Cl34   C140    1.764   1_455 S
Cu35   N53     2.011   .     S
Cu35   O58     1.965   .     S
Cu35   O62     1.937   .     S
Cu35   O55     1.965   .     S
Cu35   O59     1.955   .     S
Cu35   Cu160   2.676   1_455 S
Cu36   O56     1.965   .     S
Cu36   O60     1.955   .     S
Cu36   O61     1.937   .     S
Cu36   N54     2.011   .     S
Cu36   O57     1.965   .     S
Cu36   Cu97    2.676   .     S
O55    C125    1.291   1_455 S
O56    C74     1.291   .     S
O59    C133    1.294   1_455 S
O60    C72     1.295   .     S
C63    O119    1.291   .     A
C63    C66     1.450   .     S
C63    O179    1.291   .     S
C64    H102    1.083   .     S
C64    C465    1.383   1_545 S
C65    C93     1.401   .     A
C65    C74     1.450   .     S
C66    C92     1.401   .     A
C66    C126    1.401   .     S
C67    H103    1.082   .     S
C67    C69     1.416   .     A
C67    N116    1.367   .     A
C68    C70     1.416   .     A
C68    N115    1.367   .     A
C68    H104    1.082   .     S
C69    N115    1.366   .     A
C69    H105    1.082   .     S
C70    N116    1.366   .     A
C70    H106    1.082   .     S
C71    C73     1.475   .     S
C71    O123    1.298   .     A
C71    O183    1.294   .     S
C72    O124    1.299   .     A
C72    C75     1.478   .     S
C73    C80     1.401   .     A
C73    C78     1.412   .     A
C74    O120    1.291   .     A
C75    C79     1.413   .     A
C75    C81     1.402   .     A
C76    C84     1.401   .     A
C76    C78     1.393   .     A
C76    H110    1.084   .     S
C77    C86     1.401   .     A
C77    H111    1.084   .     S
C77    C79     1.393   .     A
C78    Cl158   1.764   .     S
C80    H109    1.075   .     S
C80    C82     1.407   .     A
C81    H108    1.073   .     S
C81    C83     1.407   .     A
C82    C84     1.416   .     A
C82    C87     1.428   .     A
C83    C88     1.429   .     A
C83    C86     1.416   .     A
C84    C648    1.389   .     S
C85    C90     1.385   .     A
C85    C88     1.417   .     A
C85    H112    1.075   .     S
C86    C649    1.389   1_554 S
C87    C89     1.416   .     A
C87    C646    1.427   .     S
C88    C645    1.427   1_554 S
C89    H113    1.076   .     S
C89    C91     1.385   .     A
C90    H99     1.085   .     S
C90    C642    1.389   1_554 S
C91    H107    1.084   .     S
C91    C644    1.389   .     S
C92    H114    1.083   .     S
C92    C466    1.383   1_545 S
C93    H100    1.083   .     S
C93    C250    1.383   .     S
C94    H101    1.083   .     S
C94    C127    1.401   .     S
C94    C278    1.383   .     S
Cl95   C141    1.764   .     S
Cu97   N115    2.011   .     S
Cu97   O120    1.965   .     S
Cu97   O124    1.937   .     S
Cu97   O117    1.965   .     S
Cu97   O121    1.955   .     S
Cu98   O118    1.965   .     S
Cu98   O122    1.955   .     S
Cu98   O123    1.937   .     S
Cu98   N116    2.011   .     S
Cu98   O119    1.965   .     S
Cu98   Cu159   2.676   .     S
O118   C136    1.291   .     S
O122   C134    1.295   .     S
C125   O181    1.291   .     A
C125   C128    1.450   .     S
C125   O55     1.291   1_655 S
C126   H164    1.083   .     S
C126   C527    1.383   1_545 S
C127   C155    1.401   .     A
C127   C136    1.450   .     S
C128   C154    1.401   .     A
C128   C2      1.401   1_655 S
C129   H165    1.082   .     S
C129   C131    1.416   .     A
C129   N178    1.367   .     A
C130   C132    1.416   .     A
C130   N177    1.367   .     A
C130   H166    1.082   .     S
C131   N177    1.366   .     A
C131   H167    1.082   .     S
C132   N178    1.366   .     A
C132   H168    1.082   .     S
C133   C135    1.475   .     S
C133   O185    1.298   .     A
C133   O59     1.294   1_655 S
C134   O186    1.299   .     A
C134   C137    1.478   .     S
C135   C142    1.401   .     A
C135   C140    1.412   .     A
C136   O182    1.291   .     A
C137   C141    1.413   .     A
C137   C143    1.402   .     A
C138   C146    1.401   .     A
C138   C140    1.393   .     A
C138   H172    1.084   .     S
C139   C148    1.401   .     A
C139   H173    1.084   .     S
C139   C141    1.393   .     A
C140   Cl34    1.764   1_655 S
C142   H171    1.075   .     S
C142   C144    1.407   .     A
C143   H170    1.073   .     S
C143   C145    1.407   .     A
C144   C146    1.416   .     A
C144   C149    1.428   .     A
C145   C150    1.429   .     A
C145   C148    1.416   .     A
C146   C710    1.389   .     S
C147   C152    1.385   .     A
C147   C150    1.417   .     A
C147   H174    1.075   .     S
C148   C711    1.389   1_554 S
C149   C151    1.416   .     A
C149   C708    1.427   .     S
C150   C707    1.427   1_554 S
C151   H175    1.076   .     S
C151   C153    1.385   .     A
C152   H161    1.085   .     S
C152   C704    1.389   1_554 S
C153   H169    1.084   .     S
C153   C706    1.389   .     S
C154   H176    1.083   .     S
C154   C528    1.383   1_545 S
C155   H162    1.083   .     S
C155   C312    1.383   .     S
C156   H163    1.083   .     S
C156   C3      1.401   1_655 S
C156   C340    1.383   .     S
Cl157  C17     1.764   1_655 S
Cu159  N177    2.011   .     S
Cu159  O182    1.965   .     S
Cu159  O186    1.937   .     S
Cu159  O179    1.965   .     S
Cu159  O183    1.955   .     S
Cu160  O180    1.965   .     S
Cu160  O184    1.955   .     S
Cu160  O185    1.937   .     S
Cu160  N178    2.011   .     S
Cu160  O181    1.965   .     S
Cu160  Cu35    2.676   1_655 S
O180   C12     1.291   1_655 S
O184   C10     1.295   1_655 S
C187   O243    1.291   .     A
C187   C190    1.450   .     S
C187   O303    1.291   .     S
C188   H226    1.083   .     S
C188   C314    1.401   1_455 S
C189   C217    1.401   .     A
C189   C198    1.450   .     S
C189   C342    1.401   1_455 S
C190   C216    1.401   .     A
C190   C250    1.401   .     S
C191   H227    1.082   .     S
C191   C193    1.416   .     A
C191   N240    1.367   .     A
C192   C194    1.416   .     A
C192   N239    1.367   .     A
C192   H228    1.082   .     S
C193   N239    1.366   .     A
C193   H229    1.082   .     S
C194   N240    1.366   .     A
C194   H230    1.082   .     S
C195   C197    1.475   .     S
C195   O247    1.298   .     A
C195   O307    1.294   .     S
C196   O248    1.299   .     A
C196   C199    1.478   .     S
C196   O370    1.295   1_455 S
C197   C204    1.401   .     A
C197   C202    1.412   .     A
C198   O244    1.291   .     A
C198   O366    1.291   1_455 S
C199   C203    1.413   .     A
C199   C205    1.402   .     A
C200   C208    1.401   .     A
C200   C202    1.393   .     A
C200   H234    1.084   .     S
C201   C210    1.401   .     A
C201   H235    1.084   .     S
C201   C203    1.393   .     A
C202   Cl282   1.764   .     S
C203   Cl343   1.764   1_455 S
C204   H233    1.075   .     S
C204   C206    1.407   .     A
C205   H232    1.073   .     S
C205   C207    1.407   .     A
C206   C208    1.416   .     A
C206   C211    1.428   .     A
C207   C212    1.429   .     A
C207   C210    1.416   .     A
C208   C772    1.389   .     S
C209   C214    1.385   .     A
C209   C212    1.417   .     A
C209   H236    1.075   .     S
C210   C773    1.389   1_554 S
C211   C213    1.416   .     A
C211   C770    1.427   .     S
C212   C769    1.427   1_554 S
C213   H237    1.076   .     S
C213   C215    1.385   .     A
C214   H223    1.085   .     S
C214   C766    1.389   1_554 S
C215   H231    1.084   .     S
C215   C768    1.389   .     S
C216   H238    1.083   .     S
C217   H224    1.083   .     S
C217   C374    1.383   .     S
C218   H225    1.083   .     S
C218   C251    1.401   .     S
C218   C402    1.383   .     S
Cl219  C265    1.764   .     S
Cl220  C326    1.764   1_455 S
Cu221  N239    2.011   .     S
Cu221  O244    1.965   .     S
Cu221  O248    1.937   .     S
Cu221  O241    1.965   .     S
Cu221  O245    1.955   .     S
Cu221  Cu346   2.676   1_455 S
Cu222  O242    1.965   .     S
Cu222  O246    1.955   .     S
Cu222  O247    1.937   .     S
Cu222  N240    2.011   .     S
Cu222  O243    1.965   .     S
Cu222  Cu283   2.676   .     S
O241   C311    1.291   1_455 S
O242   C260    1.291   .     S
O245   C319    1.294   1_455 S
O246   C258    1.295   .     S
C249   O305    1.291   .     A
C249   C252    1.450   .     S
C249   O365    1.291   .     S
C250   H288    1.083   .     S
C251   C279    1.401   .     A
C251   C260    1.450   .     S
C252   C278    1.401   .     A
C252   C312    1.401   .     S
C253   H289    1.082   .     S
C253   C255    1.416   .     A
C253   N302    1.367   .     A
C254   C256    1.416   .     A
C254   N301    1.367   .     A
C254   H290    1.082   .     S
C255   N301    1.366   .     A
C255   H291    1.082   .     S
C256   N302    1.366   .     A
C256   H292    1.082   .     S
C257   C259    1.475   .     S
C257   O309    1.298   .     A
C257   O369    1.294   .     S
C258   O310    1.299   .     A
C258   C261    1.478   .     S
C259   C266    1.401   .     A
C259   C264    1.412   .     A
C260   O306    1.291   .     A
C261   C265    1.413   .     A
C261   C267    1.402   .     A
C262   C270    1.401   .     A
C262   C264    1.393   .     A
C262   H296    1.084   .     S
C263   C272    1.401   .     A
C263   H297    1.084   .     S
C263   C265    1.393   .     A
C264   Cl344   1.764   .     S
C266   H295    1.075   .     S
C266   C268    1.407   .     A
C267   H294    1.073   .     S
C267   C269    1.407   .     A
C268   C270    1.416   .     A
C268   C273    1.428   .     A
C269   C274    1.429   .     A
C269   C272    1.416   .     A
C270   C834    1.389   .     S
C271   C276    1.385   .     A
C271   C274    1.417   .     A
C271   H298    1.075   .     S
C272   C835    1.389   1_554 S
C273   C275    1.416   .     A
C273   C832    1.427   .     S
C274   C831    1.427   1_554 S
C275   H299    1.076   .     S
C275   C277    1.385   .     A
C276   H285    1.085   .     S
C276   C828    1.389   1_554 S
C277   H293    1.084   .     S
C277   C830    1.389   .     S
C278   H300    1.083   .     S
C279   H286    1.083   .     S
C279   C436    1.383   .     S
C280   H287    1.083   .     S
C280   C313    1.401   .     S
C280   C464    1.383   .     S
Cl281  C327    1.764   .     S
Cu283  N301    2.011   .     S
Cu283  O306    1.965   .     S
Cu283  O310    1.937   .     S
Cu283  O303    1.965   .     S
Cu283  O307    1.955   .     S
Cu284  O304    1.965   .     S
Cu284  O308    1.955   .     S
Cu284  O309    1.937   .     S
Cu284  N302    2.011   .     S
Cu284  O305    1.965   .     S
Cu284  Cu345   2.676   .     S
O304   C322    1.291   .     S
O308   C320    1.295   .     S
C311   O367    1.291   .     A
C311   C314    1.450   .     S
C311   O241    1.291   1_655 S
C312   H350    1.083   .     S
C313   C341    1.401   .     A
C313   C322    1.450   .     S
C314   C340    1.401   .     A
C314   C188    1.401   1_655 S
C315   H351    1.082   .     S
C315   C317    1.416   .     A
C315   N364    1.367   .     A
C316   C318    1.416   .     A
C316   N363    1.367   .     A
C316   H352    1.082   .     S
C317   N363    1.366   .     A
C317   H353    1.082   .     S
C318   N364    1.366   .     A
C318   H354    1.082   .     S
C319   C321    1.475   .     S
C319   O371    1.298   .     A
C319   O245    1.294   1_655 S
C320   O372    1.299   .     A
C320   C323    1.478   .     S
C321   C328    1.401   .     A
C321   C326    1.412   .     A
C322   O368    1.291   .     A
C323   C327    1.413   .     A
C323   C329    1.402   .     A
C324   C332    1.401   .     A
C324   C326    1.393   .     A
C324   H358    1.084   .     S
C325   C334    1.401   .     A
C325   H359    1.084   .     S
C325   C327    1.393   .     A
C326   Cl220   1.764   1_655 S
C328   H357    1.075   .     S
C328   C330    1.407   .     A
C329   H356    1.073   .     S
C329   C331    1.407   .     A
C330   C332    1.416   .     A
C330   C335    1.428   .     A
C331   C336    1.429   .     A
C331   C334    1.416   .     A
C332   C896    1.389   .     S
C333   C338    1.385   .     A
C333   C336    1.417   .     A
C333   H360    1.075   .     S
C334   C897    1.389   1_554 S
C335   C337    1.416   .     A
C335   C894    1.427   .     S
C336   C893    1.427   1_554 S
C337   H361    1.076   .     S
C337   C339    1.385   .     A
C338   H347    1.085   .     S
C338   C890    1.389   1_554 S
C339   H355    1.084   .     S
C339   C892    1.389   .     S
C340   H362    1.083   .     S
C341   H348    1.083   .     S
C341   C498    1.383   .     S
C342   H349    1.083   .     S
C342   C189    1.401   1_655 S
C342   C526    1.383   .     S
Cl343  C203    1.764   1_655 S
Cu345  N363    2.011   .     S
Cu345  O368    1.965   .     S
Cu345  O372    1.937   .     S
Cu345  O365    1.965   .     S
Cu345  O369    1.955   .     S
Cu346  O366    1.965   .     S
Cu346  O370    1.955   .     S
Cu346  O371    1.937   .     S
Cu346  N364    2.011   .     S
Cu346  O367    1.965   .     S
Cu346  Cu221   2.676   1_655 S
O366   C198    1.291   1_655 S
O370   C196    1.295   1_655 S
C373   O429    1.291   .     A
C373   C376    1.450   .     S
C373   O489    1.291   .     S
C374   H412    1.083   .     S
C374   C500    1.401   1_455 S
C375   C403    1.401   .     A
C375   C384    1.450   .     S
C375   C528    1.401   1_455 S
C376   C402    1.401   .     A
C376   C436    1.401   .     S
C377   H413    1.082   .     S
C377   C379    1.416   .     A
C377   N426    1.367   .     A
C378   C380    1.416   .     A
C378   N425    1.367   .     A
C378   H414    1.082   .     S
C379   N425    1.366   .     A
C379   H415    1.082   .     S
C380   N426    1.366   .     A
C380   H416    1.082   .     S
C381   C383    1.475   .     S
C381   O433    1.298   .     A
C381   O493    1.294   .     S
C382   O434    1.299   .     A
C382   C385    1.478   .     S
C382   O556    1.295   1_455 S
C383   C390    1.401   .     A
C383   C388    1.412   .     A
C384   O430    1.291   .     A
C384   O552    1.291   1_455 S
C385   C389    1.413   .     A
C385   C391    1.402   .     A
C386   C394    1.401   .     A
C386   C388    1.393   .     A
C386   H420    1.084   .     S
C387   C396    1.401   .     A
C387   H421    1.084   .     S
C387   C389    1.393   .     A
C388   Cl468   1.764   .     S
C389   Cl529   1.764   1_455 S
C390   H419    1.075   .     S
C390   C392    1.407   .     A
C391   H418    1.073   .     S
C391   C393    1.407   .     A
C392   C394    1.416   .     A
C392   C397    1.428   .     A
C393   C398    1.429   .     A
C393   C396    1.416   .     A
C394   C958    1.389   .     S
C395   C400    1.385   .     A
C395   C398    1.417   .     A
C395   H422    1.075   .     S
C396   C959    1.389   1_554 S
C397   C399    1.416   .     A
C397   C956    1.427   .     S
C398   C955    1.427   1_554 S
C399   H423    1.076   .     S
C399   C401    1.385   .     A
C400   H409    1.085   .     S
C400   C952    1.389   1_554 S
C401   H417    1.084   .     S
C401   C954    1.389   .     S
C402   H424    1.083   .     S
C403   H410    1.083   .     S
C403   C2      1.383   1_565 S
C404   H411    1.083   .     S
C404   C437    1.401   .     S
C404   C30     1.383   1_565 S
Cl405  C451    1.764   .     S
Cl406  C512    1.764   1_455 S
Cu407  N425    2.011   .     S
Cu407  O430    1.965   .     S
Cu407  O434    1.937   .     S
Cu407  O427    1.965   .     S
Cu407  O431    1.955   .     S
Cu407  Cu532   2.676   1_455 S
Cu408  O428    1.965   .     S
Cu408  O432    1.955   .     S
Cu408  O433    1.937   .     S
Cu408  N426    2.011   .     S
Cu408  O429    1.965   .     S
Cu408  Cu469   2.676   .     S
O427   C497    1.291   1_455 S
O428   C446    1.291   .     S
O431   C505    1.294   1_455 S
O432   C444    1.295   .     S
C435   O491    1.291   .     A
C435   C438    1.450   .     S
C435   O551    1.291   .     S
C436   H474    1.083   .     S
C437   C465    1.401   .     A
C437   C446    1.450   .     S
C438   C464    1.401   .     A
C438   C498    1.401   .     S
C439   H475    1.082   .     S
C439   C441    1.416   .     A
C439   N488    1.367   .     A
C440   C442    1.416   .     A
C440   N487    1.367   .     A
C440   H476    1.082   .     S
C441   N487    1.366   .     A
C441   H477    1.082   .     S
C442   N488    1.366   .     A
C442   H478    1.082   .     S
C443   C445    1.475   .     S
C443   O495    1.298   .     A
C443   O555    1.294   .     S
C444   O496    1.299   .     A
C444   C447    1.478   .     S
C445   C452    1.401   .     A
C445   C450    1.412   .     A
C446   O492    1.291   .     A
C447   C451    1.413   .     A
C447   C453    1.402   .     A
C448   C456    1.401   .     A
C448   C450    1.393   .     A
C448   H482    1.084   .     S
C449   C458    1.401   .     A
C449   H483    1.084   .     S
C449   C451    1.393   .     A
C450   Cl530   1.764   .     S
C452   H481    1.075   .     S
C452   C454    1.407   .     A
C453   H480    1.073   .     S
C453   C455    1.407   .     A
C454   C456    1.416   .     A
C454   C459    1.428   .     A
C455   C460    1.429   .     A
C455   C458    1.416   .     A
C456   C1020   1.389   .     S
C457   C462    1.385   .     A
C457   C460    1.417   .     A
C457   H484    1.075   .     S
C458   C1021   1.389   1_554 S
C459   C461    1.416   .     A
C459   C1018   1.427   .     S
C460   C1017   1.427   1_554 S
C461   H485    1.076   .     S
C461   C463    1.385   .     A
C462   H471    1.085   .     S
C462   C1014   1.389   1_554 S
C463   H479    1.084   .     S
C463   C1016   1.389   .     S
C464   H486    1.083   .     S
C465   H472    1.083   .     S
C465   C64     1.383   1_565 S
C466   H473    1.083   .     S
C466   C499    1.401   .     S
C466   C92     1.383   1_565 S
Cl467  C513    1.764   .     S
Cu469  N487    2.011   .     S
Cu469  O492    1.965   .     S
Cu469  O496    1.937   .     S
Cu469  O489    1.965   .     S
Cu469  O493    1.955   .     S
Cu470  O490    1.965   .     S
Cu470  O494    1.955   .     S
Cu470  O495    1.937   .     S
Cu470  N488    2.011   .     S
Cu470  O491    1.965   .     S
Cu470  Cu531   2.676   .     S
O490   C508    1.291   .     S
O494   C506    1.295   .     S
C497   O553    1.291   .     A
C497   C500    1.450   .     S
C497   O427    1.291   1_655 S
C498   H536    1.083   .     S
C499   C527    1.401   .     A
C499   C508    1.450   .     S
C500   C526    1.401   .     A
C500   C374    1.401   1_655 S
C501   H537    1.082   .     S
C501   C503    1.416   .     A
C501   N550    1.367   .     A
C502   C504    1.416   .     A
C502   N549    1.367   .     A
C502   H538    1.082   .     S
C503   N549    1.366   .     A
C503   H539    1.082   .     S
C504   N550    1.366   .     A
C504   H540    1.082   .     S
C505   C507    1.475   .     S
C505   O557    1.298   .     A
C505   O431    1.294   1_655 S
C506   O558    1.299   .     A
C506   C509    1.478   .     S
C507   C514    1.401   .     A
C507   C512    1.412   .     A
C508   O554    1.291   .     A
C509   C513    1.413   .     A
C509   C515    1.402   .     A
C510   C518    1.401   .     A
C510   C512    1.393   .     A
C510   H544    1.084   .     S
C511   C520    1.401   .     A
C511   H545    1.084   .     S
C511   C513    1.393   .     A
C512   Cl406   1.764   1_655 S
C514   H543    1.075   .     S
C514   C516    1.407   .     A
C515   H542    1.073   .     S
C515   C517    1.407   .     A
C516   C518    1.416   .     A
C516   C521    1.428   .     A
C517   C522    1.429   .     A
C517   C520    1.416   .     A
C518   C1082   1.389   .     S
C519   C524    1.385   .     A
C519   C522    1.417   .     A
C519   H546    1.075   .     S
C520   C1083   1.389   1_554 S
C521   C523    1.416   .     A
C521   C1080   1.427   .     S
C522   C1079   1.427   1_554 S
C523   H547    1.076   .     S
C523   C525    1.385   .     A
C524   H533    1.085   .     S
C524   C1076   1.389   1_554 S
C525   H541    1.084   .     S
C525   C1078   1.389   .     S
C526   H548    1.083   .     S
C527   H534    1.083   .     S
C527   C126    1.383   1_565 S
C528   H535    1.083   .     S
C528   C375    1.401   1_655 S
C528   C154    1.383   1_565 S
Cl529  C389    1.764   1_655 S
Cu531  N549    2.011   .     S
Cu531  O554    1.965   .     S
Cu531  O558    1.937   .     S
Cu531  O551    1.965   .     S
Cu531  O555    1.955   .     S
Cu532  O552    1.965   .     S
Cu532  O556    1.955   .     S
Cu532  O557    1.937   .     S
Cu532  N550    2.011   .     S
Cu532  O553    1.965   .     S
Cu532  Cu407   2.676   1_655 S
O552   C384    1.291   1_655 S
O556   C382    1.295   1_655 S
C559   O615    1.291   .     A
C559   C562    1.450   .     S
C559   O675    1.291   .     S
C560   H598    1.083   .     S
C560   C686    1.401   1_455 S
C560   C961    1.383   1_545 S
C561   C589    1.401   .     A
C561   C570    1.450   .     S
C561   C714    1.401   1_455 S
C562   C588    1.401   .     A
C562   C622    1.401   .     S
C563   H599    1.082   .     S
C563   C565    1.416   .     A
C563   N612    1.367   .     A
C564   C566    1.416   .     A
C564   N611    1.367   .     A
C564   H600    1.082   .     S
C565   N611    1.366   .     A
C565   H601    1.082   .     S
C566   N612    1.366   .     A
C566   H602    1.082   .     S
C567   C569    1.475   .     S
C567   O619    1.298   .     A
C567   O679    1.294   .     S
C568   O620    1.299   .     A
C568   C571    1.478   .     S
C568   O742    1.295   1_455 S
C569   C576    1.401   .     A
C569   C574    1.412   .     A
C570   O616    1.291   .     A
C570   O738    1.291   1_455 S
C571   C575    1.413   .     A
C571   C577    1.402   .     A
C572   C580    1.401   .     A
C572   C574    1.393   .     A
C572   H606    1.084   .     S
C573   C582    1.401   .     A
C573   H607    1.084   .     S
C573   C575    1.393   .     A
C574   Cl654   1.764   .     S
C575   Cl715   1.764   1_455 S
C576   H605    1.075   .     S
C576   C578    1.407   .     A
C577   H604    1.073   .     S
C577   C579    1.407   .     A
C578   C580    1.416   .     A
C578   C583    1.428   .     A
C579   C584    1.429   .     A
C579   C582    1.416   .     A
C580   C28     1.389   1_556 S
C581   C586    1.385   .     A
C581   C584    1.417   .     A
C581   H608    1.075   .     S
C583   C585    1.416   .     A
C583   C26     1.427   1_556 S
C585   H609    1.076   .     S
C585   C587    1.385   .     A
C586   H595    1.085   .     S
C587   H603    1.084   .     S
C587   C24     1.389   1_556 S
C588   H610    1.083   .     S
C588   C962    1.383   1_545 S
C589   H596    1.083   .     S
C589   C746    1.383   .     S
C590   H597    1.083   .     S
C590   C623    1.401   .     S
C590   C774    1.383   .     S
Cl591  C637    1.764   .     S
Cl592  C698    1.764   1_455 S
Cu593  N611    2.011   .     S
Cu593  O616    1.965   .     S
Cu593  O620    1.937   .     S
Cu593  O613    1.965   .     S
Cu593  O617    1.955   .     S
Cu593  Cu718   2.676   1_455 S
Cu594  O614    1.965   .     S
Cu594  O618    1.955   .     S
Cu594  O619    1.937   .     S
Cu594  N612    2.011   .     S
Cu594  O615    1.965   .     S
Cu594  Cu655   2.676   .     S
O613   C683    1.291   1_455 S
O614   C632    1.291   .     S
O617   C691    1.294   1_455 S
O618   C630    1.295   .     S
C621   O677    1.291   .     A
C621   C624    1.450   .     S
C621   O737    1.291   .     S
C622   H660    1.083   .     S
C622   C1023   1.383   1_545 S
C623   C651    1.401   .     A
C623   C632    1.450   .     S
C624   C650    1.401   .     A
C624   C684    1.401   .     S
C625   H661    1.082   .     S
C625   C627    1.416   .     A
C625   N674    1.367   .     A
C626   C628    1.416   .     A
C626   N673    1.367   .     A
C626   H662    1.082   .     S
C627   N673    1.366   .     A
C627   H663    1.082   .     S
C628   N674    1.366   .     A
C628   H664    1.082   .     S
C629   C631    1.475   .     S
C629   O681    1.298   .     A
C629   O741    1.294   .     S
C630   O682    1.299   .     A
C630   C633    1.478   .     S
C631   C638    1.401   .     A
C631   C636    1.412   .     A
C632   O678    1.291   .     A
C633   C637    1.413   .     A
C633   C639    1.402   .     A
C634   C642    1.401   .     A
C634   C636    1.393   .     A
C634   H668    1.084   .     S
C635   C644    1.401   .     A
C635   H669    1.084   .     S
C635   C637    1.393   .     A
C636   Cl716   1.764   .     S
C638   H667    1.075   .     S
C638   C640    1.407   .     A
C639   H666    1.073   .     S
C639   C641    1.407   .     A
C640   C642    1.416   .     A
C640   C645    1.428   .     A
C641   C646    1.429   .     A
C641   C644    1.416   .     A
C642   C90     1.389   1_556 S
C643   C648    1.385   .     A
C643   C646    1.417   .     A
C643   H670    1.075   .     S
C645   C647    1.416   .     A
C645   C88     1.427   1_556 S
C647   H671    1.076   .     S
C647   C649    1.385   .     A
C648   H657    1.085   .     S
C649   H665    1.084   .     S
C649   C86     1.389   1_556 S
C650   H672    1.083   .     S
C650   C1024   1.383   1_545 S
C651   H658    1.083   .     S
C651   C808    1.383   .     S
C652   H659    1.083   .     S
C652   C685    1.401   .     S
C652   C836    1.383   .     S
Cl653  C699    1.764   .     S
Cu655  N673    2.011   .     S
Cu655  O678    1.965   .     S
Cu655  O682    1.937   .     S
Cu655  O675    1.965   .     S
Cu655  O679    1.955   .     S
Cu656  O676    1.965   .     S
Cu656  O680    1.955   .     S
Cu656  O681    1.937   .     S
Cu656  N674    2.011   .     S
Cu656  O677    1.965   .     S
Cu656  Cu717   2.676   .     S
O676   C694    1.291   .     S
O680   C692    1.295   .     S
C683   O739    1.291   .     A
C683   C686    1.450   .     S
C683   O613    1.291   1_655 S
C684   H722    1.083   .     S
C684   C1085   1.383   1_545 S
C685   C713    1.401   .     A
C685   C694    1.450   .     S
C686   C712    1.401   .     A
C686   C560    1.401   1_655 S
C687   H723    1.082   .     S
C687   C689    1.416   .     A
C687   N736    1.367   .     A
C688   C690    1.416   .     A
C688   N735    1.367   .     A
C688   H724    1.082   .     S
C689   N735    1.366   .     A
C689   H725    1.082   .     S
C690   N736    1.366   .     A
C690   H726    1.082   .     S
C691   C693    1.475   .     S
C691   O743    1.298   .     A
C691   O617    1.294   1_655 S
C692   O744    1.299   .     A
C692   C695    1.478   .     S
C693   C700    1.401   .     A
C693   C698    1.412   .     A
C694   O740    1.291   .     A
C695   C699    1.413   .     A
C695   C701    1.402   .     A
C696   C704    1.401   .     A
C696   C698    1.393   .     A
C696   H730    1.084   .     S
C697   C706    1.401   .     A
C697   H731    1.084   .     S
C697   C699    1.393   .     A
C698   Cl592   1.764   1_655 S
C700   H729    1.075   .     S
C700   C702    1.407   .     A
C701   H728    1.073   .     S
C701   C703    1.407   .     A
C702   C704    1.416   .     A
C702   C707    1.428   .     A
C703   C708    1.429   .     A
C703   C706    1.416   .     A
C704   C152    1.389   1_556 S
C705   C710    1.385   .     A
C705   C708    1.417   .     A
C705   H732    1.075   .     S
C707   C709    1.416   .     A
C707   C150    1.427   1_556 S
C709   H733    1.076   .     S
C709   C711    1.385   .     A
C710   H719    1.085   .     S
C711   H727    1.084   .     S
C711   C148    1.389   1_556 S
C712   H734    1.083   .     S
C712   C1086   1.383   1_545 S
C713   H720    1.083   .     S
C713   C870    1.383   .     S
C714   H721    1.083   .     S
C714   C561    1.401   1_655 S
C714   C898    1.383   .     S
Cl715  C575    1.764   1_655 S
Cu717  N735    2.011   .     S
Cu717  O740    1.965   .     S
Cu717  O744    1.937   .     S
Cu717  O737    1.965   .     S
Cu717  O741    1.955   .     S
Cu718  O738    1.965   .     S
Cu718  O742    1.955   .     S
Cu718  O743    1.937   .     S
Cu718  N736    2.011   .     S
Cu718  O739    1.965   .     S
Cu718  Cu593   2.676   1_655 S
O738   C570    1.291   1_655 S
O742   C568    1.295   1_655 S
C745   O801    1.291   .     A
C745   C748    1.450   .     S
C745   O861    1.291   .     S
C746   H784    1.083   .     S
C746   C872    1.401   1_455 S
C747   C775    1.401   .     A
C747   C756    1.450   .     S
C747   C900    1.401   1_455 S
C748   C774    1.401   .     A
C748   C808    1.401   .     S
C749   H785    1.082   .     S
C749   C751    1.416   .     A
C749   N798    1.367   .     A
C750   C752    1.416   .     A
C750   N797    1.367   .     A
C750   H786    1.082   .     S
C751   N797    1.366   .     A
C751   H787    1.082   .     S
C752   N798    1.366   .     A
C752   H788    1.082   .     S
C753   C755    1.475   .     S
C753   O805    1.298   .     A
C753   O865    1.294   .     S
C754   O806    1.299   .     A
C754   C757    1.478   .     S
C754   O928    1.295   1_455 S
C755   C762    1.401   .     A
C755   C760    1.412   .     A
C756   O802    1.291   .     A
C756   O924    1.291   1_455 S
C757   C761    1.413   .     A
C757   C763    1.402   .     A
C758   C766    1.401   .     A
C758   C760    1.393   .     A
C758   H792    1.084   .     S
C759   C768    1.401   .     A
C759   H793    1.084   .     S
C759   C761    1.393   .     A
C760   Cl840   1.764   .     S
C761   Cl901   1.764   1_455 S
C762   H791    1.075   .     S
C762   C764    1.407   .     A
C763   H790    1.073   .     S
C763   C765    1.407   .     A
C764   C766    1.416   .     A
C764   C769    1.428   .     A
C765   C770    1.429   .     A
C765   C768    1.416   .     A
C766   C214    1.389   1_556 S
C767   C772    1.385   .     A
C767   C770    1.417   .     A
C767   H794    1.075   .     S
C769   C771    1.416   .     A
C769   C212    1.427   1_556 S
C771   H795    1.076   .     S
C771   C773    1.385   .     A
C772   H781    1.085   .     S
C773   H789    1.084   .     S
C773   C210    1.389   1_556 S
C774   H796    1.083   .     S
C775   H782    1.083   .     S
C775   C932    1.383   .     S
C776   H783    1.083   .     S
C776   C809    1.401   .     S
C776   C960    1.383   .     S
Cl777  C823    1.764   .     S
Cl778  C884    1.764   1_455 S
Cu779  N797    2.011   .     S
Cu779  O802    1.965   .     S
Cu779  O806    1.937   .     S
Cu779  O799    1.965   .     S
Cu779  O803    1.955   .     S
Cu779  Cu904   2.676   1_455 S
Cu780  O800    1.965   .     S
Cu780  O804    1.955   .     S
Cu780  O805    1.937   .     S
Cu780  N798    2.011   .     S
Cu780  O801    1.965   .     S
Cu780  Cu841   2.676   .     S
O799   C869    1.291   1_455 S
O800   C818    1.291   .     S
O803   C877    1.294   1_455 S
O804   C816    1.295   .     S
C807   O863    1.291   .     A
C807   C810    1.450   .     S
C807   O923    1.291   .     S
C808   H846    1.083   .     S
C809   C837    1.401   .     A
C809   C818    1.450   .     S
C810   C836    1.401   .     A
C810   C870    1.401   .     S
C811   H847    1.082   .     S
C811   C813    1.416   .     A
C811   N860    1.367   .     A
C812   C814    1.416   .     A
C812   N859    1.367   .     A
C812   H848    1.082   .     S
C813   N859    1.366   .     A
C813   H849    1.082   .     S
C814   N860    1.366   .     A
C814   H850    1.082   .     S
C815   C817    1.475   .     S
C815   O867    1.298   .     A
C815   O927    1.294   .     S
C816   O868    1.299   .     A
C816   C819    1.478   .     S
C817   C824    1.401   .     A
C817   C822    1.412   .     A
C818   O864    1.291   .     A
C819   C823    1.413   .     A
C819   C825    1.402   .     A
C820   C828    1.401   .     A
C820   C822    1.393   .     A
C820   H854    1.084   .     S
C821   C830    1.401   .     A
C821   H855    1.084   .     S
C821   C823    1.393   .     A
C822   Cl902   1.764   .     S
C824   H853    1.075   .     S
C824   C826    1.407   .     A
C825   H852    1.073   .     S
C825   C827    1.407   .     A
C826   C828    1.416   .     A
C826   C831    1.428   .     A
C827   C832    1.429   .     A
C827   C830    1.416   .     A
C828   C276    1.389   1_556 S
C829   C834    1.385   .     A
C829   C832    1.417   .     A
C829   H856    1.075   .     S
C831   C833    1.416   .     A
C831   C274    1.427   1_556 S
C833   H857    1.076   .     S
C833   C835    1.385   .     A
C834   H843    1.085   .     S
C835   H851    1.084   .     S
C835   C272    1.389   1_556 S
C836   H858    1.083   .     S
C837   H844    1.083   .     S
C837   C994    1.383   .     S
C838   H845    1.083   .     S
C838   C871    1.401   .     S
C838   C1022   1.383   .     S
Cl839  C885    1.764   .     S
Cu841  N859    2.011   .     S
Cu841  O864    1.965   .     S
Cu841  O868    1.937   .     S
Cu841  O861    1.965   .     S
Cu841  O865    1.955   .     S
Cu842  O862    1.965   .     S
Cu842  O866    1.955   .     S
Cu842  O867    1.937   .     S
Cu842  N860    2.011   .     S
Cu842  O863    1.965   .     S
Cu842  Cu903   2.676   .     S
O862   C880    1.291   .     S
O866   C878    1.295   .     S
C869   O925    1.291   .     A
C869   C872    1.450   .     S
C869   O799    1.291   1_655 S
C870   H908    1.083   .     S
C871   C899    1.401   .     A
C871   C880    1.450   .     S
C872   C898    1.401   .     A
C872   C746    1.401   1_655 S
C873   H909    1.082   .     S
C873   C875    1.416   .     A
C873   N922    1.367   .     A
C874   C876    1.416   .     A
C874   N921    1.367   .     A
C874   H910    1.082   .     S
C875   N921    1.366   .     A
C875   H911    1.082   .     S
C876   N922    1.366   .     A
C876   H912    1.082   .     S
C877   C879    1.475   .     S
C877   O929    1.298   .     A
C877   O803    1.294   1_655 S
C878   O930    1.299   .     A
C878   C881    1.478   .     S
C879   C886    1.401   .     A
C879   C884    1.412   .     A
C880   O926    1.291   .     A
C881   C885    1.413   .     A
C881   C887    1.402   .     A
C882   C890    1.401   .     A
C882   C884    1.393   .     A
C882   H916    1.084   .     S
C883   C892    1.401   .     A
C883   H917    1.084   .     S
C883   C885    1.393   .     A
C884   Cl778   1.764   1_655 S
C886   H915    1.075   .     S
C886   C888    1.407   .     A
C887   H914    1.073   .     S
C887   C889    1.407   .     A
C888   C890    1.416   .     A
C888   C893    1.428   .     A
C889   C894    1.429   .     A
C889   C892    1.416   .     A
C890   C338    1.389   1_556 S
C891   C896    1.385   .     A
C891   C894    1.417   .     A
C891   H918    1.075   .     S
C893   C895    1.416   .     A
C893   C336    1.427   1_556 S
C895   H919    1.076   .     S
C895   C897    1.385   .     A
C896   H905    1.085   .     S
C897   H913    1.084   .     S
C897   C334    1.389   1_556 S
C898   H920    1.083   .     S
C899   H906    1.083   .     S
C899   C1056   1.383   .     S
C900   H907    1.083   .     S
C900   C747    1.401   1_655 S
C900   C1084   1.383   .     S
Cl901  C761    1.764   1_655 S
Cu903  N921    2.011   .     S
Cu903  O926    1.965   .     S
Cu903  O930    1.937   .     S
Cu903  O923    1.965   .     S
Cu903  O927    1.955   .     S
Cu904  O924    1.965   .     S
Cu904  O928    1.955   .     S
Cu904  O929    1.937   .     S
Cu904  N922    2.011   .     S
Cu904  O925    1.965   .     S
Cu904  Cu779   2.676   1_655 S
O924   C756    1.291   1_655 S
O928   C754    1.295   1_655 S
C931   O987    1.291   .     A
C931   C934    1.450   .     S
C931   O1047   1.291   .     S
C932   H970    1.083   .     S
C932   C1058   1.401   1_455 S
C933   C961    1.401   .     A
C933   C942    1.450   .     S
C933   C1086   1.401   1_455 S
C934   C960    1.401   .     A
C934   C994    1.401   .     S
C935   H971    1.082   .     S
C935   C937    1.416   .     A
C935   N984    1.367   .     A
C936   C938    1.416   .     A
C936   N983    1.367   .     A
C936   H972    1.082   .     S
C937   N983    1.366   .     A
C937   H973    1.082   .     S
C938   N984    1.366   .     A
C938   H974    1.082   .     S
C939   C941    1.475   .     S
C939   O991    1.298   .     A
C939   O1051   1.294   .     S
C940   O992    1.299   .     A
C940   C943    1.478   .     S
C940   O1114   1.295   1_455 S
C941   C948    1.401   .     A
C941   C946    1.412   .     A
C942   O988    1.291   .     A
C942   O1110   1.291   1_455 S
C943   C947    1.413   .     A
C943   C949    1.402   .     A
C944   C952    1.401   .     A
C944   C946    1.393   .     A
C944   H978    1.084   .     S
C945   C954    1.401   .     A
C945   H979    1.084   .     S
C945   C947    1.393   .     A
C946   Cl1026  1.764   .     S
C947   Cl1087  1.764   1_455 S
C948   H977    1.075   .     S
C948   C950    1.407   .     A
C949   H976    1.073   .     S
C949   C951    1.407   .     A
C950   C952    1.416   .     A
C950   C955    1.428   .     A
C951   C956    1.429   .     A
C951   C954    1.416   .     A
C952   C400    1.389   1_556 S
C953   C958    1.385   .     A
C953   C956    1.417   .     A
C953   H980    1.075   .     S
C955   C957    1.416   .     A
C955   C398    1.427   1_556 S
C957   H981    1.076   .     S
C957   C959    1.385   .     A
C958   H967    1.085   .     S
C959   H975    1.084   .     S
C959   C396    1.389   1_556 S
C960   H982    1.083   .     S
C961   H968    1.083   .     S
C961   C560    1.383   1_565 S
C962   H969    1.083   .     S
C962   C995    1.401   .     S
C962   C588    1.383   1_565 S
Cl963  C1009   1.764   .     S
Cl964  C1070   1.764   1_455 S
Cu965  N983    2.011   .     S
Cu965  O988    1.965   .     S
Cu965  O992    1.937   .     S
Cu965  O985    1.965   .     S
Cu965  O989    1.955   .     S
Cu965  Cu1090  2.676   1_455 S
Cu966  O986    1.965   .     S
Cu966  O990    1.955   .     S
Cu966  O991    1.937   .     S
Cu966  N984    2.011   .     S
Cu966  O987    1.965   .     S
Cu966  Cu1027  2.676   .     S
O985   C1055   1.291   1_455 S
O986   C1004   1.291   .     S
O989   C1063   1.294   1_455 S
O990   C1002   1.295   .     S
C993   O1049   1.291   .     A
C993   C996    1.450   .     S
C993   O1109   1.291   .     S
C994   H1032   1.083   .     S
C995   C1023   1.401   .     A
C995   C1004   1.450   .     S
C996   C1022   1.401   .     A
C996   C1056   1.401   .     S
C997   H1033   1.082   .     S
C997   C999    1.416   .     A
C997   N1046   1.367   .     A
C998   C1000   1.416   .     A
C998   N1045   1.367   .     A
C998   H1034   1.082   .     S
C999   N1045   1.366   .     A
C999   H1035   1.082   .     S
C1000  N1046   1.366   .     A
C1000  H1036   1.082   .     S
C1001  C1003   1.475   .     S
C1001  O1053   1.298   .     A
C1001  O1113   1.294   .     S
C1002  O1054   1.299   .     A
C1002  C1005   1.478   .     S
C1003  C1010   1.401   .     A
C1003  C1008   1.412   .     A
C1004  O1050   1.291   .     A
C1005  C1009   1.413   .     A
C1005  C1011   1.402   .     A
C1006  C1014   1.401   .     A
C1006  C1008   1.393   .     A
C1006  H1040   1.084   .     S
C1007  C1016   1.401   .     A
C1007  H1041   1.084   .     S
C1007  C1009   1.393   .     A
C1008  Cl1088  1.764   .     S
C1010  H1039   1.075   .     S
C1010  C1012   1.407   .     A
C1011  H1038   1.073   .     S
C1011  C1013   1.407   .     A
C1012  C1014   1.416   .     A
C1012  C1017   1.428   .     A
C1013  C1018   1.429   .     A
C1013  C1016   1.416   .     A
C1014  C462    1.389   1_556 S
C1015  C1020   1.385   .     A
C1015  C1018   1.417   .     A
C1015  H1042   1.075   .     S
C1017  C1019   1.416   .     A
C1017  C460    1.427   1_556 S
C1019  H1043   1.076   .     S
C1019  C1021   1.385   .     A
C1020  H1029   1.085   .     S
C1021  H1037   1.084   .     S
C1021  C458    1.389   1_556 S
C1022  H1044   1.083   .     S
C1023  H1030   1.083   .     S
C1023  C622    1.383   1_565 S
C1024  H1031   1.083   .     S
C1024  C1057   1.401   .     S
C1024  C650    1.383   1_565 S
Cl1025 C1071   1.764   .     S
Cu1027 N1045   2.011   .     S
Cu1027 O1050   1.965   .     S
Cu1027 O1054   1.937   .     S
Cu1027 O1047   1.965   .     S
Cu1027 O1051   1.955   .     S
Cu1028 O1048   1.965   .     S
Cu1028 O1052   1.955   .     S
Cu1028 O1053   1.937   .     S
Cu1028 N1046   2.011   .     S
Cu1028 O1049   1.965   .     S
Cu1028 Cu1089  2.676   .     S
O1048  C1066   1.291   .     S
O1052  C1064   1.295   .     S
C1055  O1111   1.291   .     A
C1055  C1058   1.450   .     S
C1055  O985    1.291   1_655 S
C1056  H1094   1.083   .     S
C1057  C1085   1.401   .     A
C1057  C1066   1.450   .     S
C1058  C1084   1.401   .     A
C1058  C932    1.401   1_655 S
C1059  H1095   1.082   .     S
C1059  C1061   1.416   .     A
C1059  N1108   1.367   .     A
C1060  C1062   1.416   .     A
C1060  N1107   1.367   .     A
C1060  H1096   1.082   .     S
C1061  N1107   1.366   .     A
C1061  H1097   1.082   .     S
C1062  N1108   1.366   .     A
C1062  H1098   1.082   .     S
C1063  C1065   1.475   .     S
C1063  O1115   1.298   .     A
C1063  O989    1.294   1_655 S
C1064  O1116   1.299   .     A
C1064  C1067   1.478   .     S
C1065  C1072   1.401   .     A
C1065  C1070   1.412   .     A
C1066  O1112   1.291   .     A
C1067  C1071   1.413   .     A
C1067  C1073   1.402   .     A
C1068  C1076   1.401   .     A
C1068  C1070   1.393   .     A
C1068  H1102   1.084   .     S
C1069  C1078   1.401   .     A
C1069  H1103   1.084   .     S
C1069  C1071   1.393   .     A
C1070  Cl964   1.764   1_655 S
C1072  H1101   1.075   .     S
C1072  C1074   1.407   .     A
C1073  H1100   1.073   .     S
C1073  C1075   1.407   .     A
C1074  C1076   1.416   .     A
C1074  C1079   1.428   .     A
C1075  C1080   1.429   .     A
C1075  C1078   1.416   .     A
C1076  C524    1.389   1_556 S
C1077  C1082   1.385   .     A
C1077  C1080   1.417   .     A
C1077  H1104   1.075   .     S
C1079  C1081   1.416   .     A
C1079  C522    1.427   1_556 S
C1081  H1105   1.076   .     S
C1081  C1083   1.385   .     A
C1082  H1091   1.085   .     S
C1083  H1099   1.084   .     S
C1083  C520    1.389   1_556 S
C1084  H1106   1.083   .     S
C1085  H1092   1.083   .     S
C1085  C684    1.383   1_565 S
C1086  H1093   1.083   .     S
C1086  C933    1.401   1_655 S
C1086  C712    1.383   1_565 S
Cl1087 C947    1.764   1_655 S
Cu1089 N1107   2.011   .     S
Cu1089 O1112   1.965   .     S
Cu1089 O1116   1.937   .     S
Cu1089 O1109   1.965   .     S
Cu1089 O1113   1.955   .     S
Cu1090 O1110   1.965   .     S
Cu1090 O1114   1.955   .     S
Cu1090 O1115   1.937   .     S
Cu1090 N1108   2.011   .     S
Cu1090 O1111   1.965   .     S
Cu1090 Cu965   2.676   1_655 S
O1110  C942    1.291   1_655 S
O1114  C940    1.295   1_655 S
