data_str_m1_o2_o5_pcu_sym.1
_audit_creation_date              2020-01-03
_audit_creation_method            'Materials Studio'
_symmetry_space_group_name_H-M    'P1'
_symmetry_Int_Tables_number       1
_symmetry_cell_setting            triclinic
loop_
_symmetry_equiv_pos_as_xyz
  x,y,z
_cell_length_a                    24.4502
_cell_length_b                    24.4232
_cell_length_c                    22.3738
_cell_angle_alpha                 90.0051
_cell_angle_beta                  89.9138
_cell_angle_gamma                 90.0068
loop_
_atom_site_label
_atom_site_type_symbol
_atom_site_fract_x
_atom_site_fract_y
_atom_site_fract_z
_atom_site_U_iso_or_equiv
_atom_site_adp_type
_atom_site_occupancy
C1     C     0.23491   0.27811   0.24368   0.00000  Uiso   1.00
C2     C     0.23514   0.72227   0.23931   0.00000  Uiso   1.00
C3     C     0.20506   0.62836   0.25450   0.00000  Uiso   1.00
C4     C     0.33942   0.17531   0.69663   0.00000  Uiso   1.00
C5     C     0.62969   0.79549   0.25552   0.00000  Uiso   1.00
C6     C     0.16665   0.66654   0.69247   0.00000  Uiso   1.00
C7     C     0.79615   0.36874   0.26796   0.00000  Uiso   1.00
C8     C     0.34358   0.81815   0.29859   0.00000  Uiso   1.00
C9     C     0.63938   0.19880   0.72577   0.00000  Uiso   1.00
C10    C     0.17386   0.33616   0.30147   0.00000  Uiso   1.00
C11    C     0.80351   0.64163   0.71930   0.00000  Uiso   1.00
C12    C     0.66363   0.17252   0.30354   0.00000  Uiso   1.00
C13    C     0.73396   0.77703   0.74536   0.00000  Uiso   1.00
C14    C     0.35641   0.80471   0.71617   0.00000  Uiso   1.00
C15    C     0.81947   0.65690   0.30064   0.00000  Uiso   1.00
C16    C     0.20082   0.36340   0.73344   0.00000  Uiso   1.00
C17    C     0.14853   0.35336   0.24792   0.00000  Uiso   1.00
C18    C     0.85553   0.65112   0.74456   0.00000  Uiso   1.00
C19    C     0.35451   0.85014   0.24722   0.00000  Uiso   1.00
C20    C     0.65059   0.14469   0.74400   0.00000  Uiso   1.00
C21    C     0.85108   0.64653   0.24877   0.00000  Uiso   1.00
C22    C     0.14603   0.35068   0.74742   0.00000  Uiso   1.00
C23    C     0.64644   0.14826   0.24941   0.00000  Uiso   1.00
C24    C     0.27799   0.23610   0.24109   0.00000  Uiso   1.00
C25    C     0.34814   0.85617   0.74354   0.00000  Uiso   1.00
C26    C     0.85484   0.34986   0.74669   0.00000  Uiso   1.00
C27    C     0.15040   0.64481   0.24448   0.00000  Uiso   1.00
C28    C     0.64797   0.85279   0.74886   0.00000  Uiso   1.00
C29    C     0.35563   0.15133   0.24431   0.00000  Uiso   1.00
C30    C     0.14566   0.64927   0.74808   0.00000  Uiso   1.00
C31    C     0.84879   0.35528   0.24566   0.00000  Uiso   1.00
C32    C     0.35206   0.14739   0.75013   0.00000  Uiso   1.00
C33    C     0.64562   0.85046   0.24609   0.00000  Uiso   1.00
C34    C     0.25669   0.31645   0.10360   0.00000  Uiso   1.00
C35    C     0.22019   0.73646   0.74305   0.00000  Uiso   1.00
C36    C     0.30169   0.29003   0.06651   0.00000  Uiso   1.00
C37    C     0.84794   0.83692   0.74003   0.00000  Uiso   1.00
C38    C     0.88904   0.88075   0.75761   0.00000  Uiso   1.00
C39    C     0.28162   0.75239   0.10006   0.00000  Uiso   1.00
C40    C     0.23860   0.71211   0.07801   0.00000  Uiso   1.00
C41    C     0.83422   0.14960   0.71468   0.00000  Uiso   1.00
C42    C     0.87924   0.10741   0.72332   0.00000  Uiso   1.00
C43    C     0.75512   0.72461   0.10384   0.00000  Uiso   1.00
C44    C     0.71534   0.76848   0.08273   0.00000  Uiso   1.00
C45    C     0.15436   0.16679   0.72648   0.00000  Uiso   1.00
C46    C     0.76526   0.27626   0.24638   0.00000  Uiso   1.00
C47    C     0.11448   0.12023   0.73819   0.00000  Uiso   1.00
C48    C     0.70956   0.27579   0.12008   0.00000  Uiso   1.00
C49    C     0.71002   0.27847   0.05223   0.00000  Uiso   1.00
C50    C     0.16242   0.85232   0.74215   0.00000  Uiso   1.00
C51    C     0.11828   0.89149   0.76374   0.00000  Uiso   1.00
C52    C     0.75514   0.24921   0.87651   0.00000  Uiso   1.00
C53    C     0.74207   0.19904   0.91420   0.00000  Uiso   1.00
C54    C     0.15398   0.82029   0.26786   0.00000  Uiso   1.00
C55    C     0.12539   0.87345   0.25142   0.00000  Uiso   1.00
C56    C     0.73203   0.74157   0.87931   0.00000  Uiso   1.00
C57    C     0.26806   0.22554   0.74878   0.00000  Uiso   1.00
C58    C     0.77141   0.72872   0.92990   0.00000  Uiso   1.00
C59    C     0.18210   0.14120   0.24049   0.00000  Uiso   1.00
C60    C     0.12324   0.16128   0.24294   0.00000  Uiso   1.00
C61    C     0.25699   0.73376   0.87704   0.00000  Uiso   1.00
C62    C     0.27151   0.77422   0.92615   0.00000  Uiso   1.00
C63    C     0.86321   0.18296   0.24181   0.00000  Uiso   1.00
C64    C     0.84824   0.12252   0.24308   0.00000  Uiso   1.00
C65    C     0.27088   0.24614   0.88941   0.00000  Uiso   1.00
C66    C     0.22558   0.28325   0.91265   0.00000  Uiso   1.00
C67    C     0.81965   0.84865   0.27824   0.00000  Uiso   1.00
C68    C     0.72438   0.76704   0.24383   0.00000  Uiso   1.00
C69    C     0.87588   0.87249   0.26540   0.00000  Uiso   1.00
C70    C     0.75580   0.81037   0.60573   0.00000  Uiso   1.00
C71    C     0.80324   0.78178   0.57458   0.00000  Uiso   1.00
C72    C     0.34885   0.33748   0.23875   0.00000  Uiso   1.00
C73    C     0.39103   0.38049   0.25569   0.00000  Uiso   1.00
C74    C     0.78478   0.25206   0.59817   0.00000  Uiso   1.00
C75    C     0.74223   0.21271   0.57329   0.00000  Uiso   1.00
C76    C     0.33376   0.65017   0.21435   0.00000  Uiso   1.00
C77    C     0.37895   0.60805   0.22228   0.00000  Uiso   1.00
C78    C     0.24053   0.22915   0.61617   0.00000  Uiso   1.00
C79    C     0.99995   0.49996   0.47330   0.00000  Uiso   1.00
C80    C     0.24598   0.23790   0.54925   0.00000  Uiso   1.00
C81    C     0.65353   0.66737   0.21684   0.00000  Uiso   1.00
C82    C     0.61218   0.62141   0.22458   0.00000  Uiso   1.00
C83    C     0.20647   0.77522   0.61539   0.00000  Uiso   1.00
C84    C     0.20662   0.77691   0.54753   0.00000  Uiso   1.00
C85    C     0.66353   0.34833   0.25005   0.00000  Uiso   1.00
C86    C     0.61945   0.38684   0.27313   0.00000  Uiso   1.00
C87    C     0.25702   0.74756   0.37800   0.00000  Uiso   1.00
C88    C     0.24454   0.69627   0.41411   0.00000  Uiso   1.00
C89    C     0.65423   0.32051   0.76321   0.00000  Uiso   1.00
C90    C     0.00001   0.49996   0.52671   0.00000  Uiso   1.00
C91    C     0.62625   0.37359   0.74528   0.00000  Uiso   1.00
C92    C     0.21883   0.23985   0.37922   0.00000  Uiso   1.00
C93    C     0.26163   0.19747   0.39647   0.00000  Uiso   1.00
C94    C     0.67817   0.65184   0.74363   0.00000  Uiso   1.00
C95    C     0.62511   0.63169   0.71596   0.00000  Uiso   1.00
C96    C     0.75924   0.21572   0.38302   0.00000  Uiso   1.00
C97    C     0.79762   0.25839   0.40936   0.00000  Uiso   1.00
C98    C     0.34536   0.67922   0.74079   0.00000  Uiso   1.00
C99    C     0.36620   0.62652   0.71268   0.00000  Uiso   1.00
C100   C     0.75243   0.74421   0.38221   0.00000  Uiso   1.00
C101   C     0.49993  -0.00001   0.47330   0.00000  Uiso   1.00
C102   C     0.71507   0.74380   0.43660   0.00000  Uiso   1.00
C103   C     0.31659   0.36551   0.77586   0.00000  Uiso   1.00
C104   C     0.37603   0.34961   0.78578   0.00000  Uiso   1.00
C105   C     0.10835   0.30922   0.11567   0.00000  Uiso   1.00
C106   C     0.08855   0.32767   0.05447   0.00000  Uiso   1.00
C107   C     0.95650   0.72862   0.73743   0.00000  Uiso   1.00
C108   C     0.01188   0.74649   0.76155   0.00000  Uiso   1.00
C109   C     0.38538   0.84876   0.11320   0.00000  Uiso   1.00
C110   C     0.39013   0.87467   0.05159   0.00000  Uiso   1.00
C111   C     0.72460   0.04251   0.72072   0.00000  Uiso   1.00
C112   C     0.77723   0.73525   0.74257   0.00000  Uiso   1.00
C113   C     0.49992   0.99998   0.52671   0.00000  Uiso   1.00
C114   C     0.74488   0.98615   0.73947   0.00000  Uiso   1.00
C115   C     0.84986   0.61962   0.11372   0.00000  Uiso   1.00
C116   C     0.87615   0.61622   0.05218   0.00000  Uiso   1.00
C117   C     0.04663   0.27547   0.72088   0.00000  Uiso   1.00
C118   C     0.98939   0.25571   0.73682   0.00000  Uiso   1.00
C119   C     0.60378   0.16625   0.11991   0.00000  Uiso   1.00
C120   C     0.58992   0.14209   0.05914   0.00000  Uiso   1.00
C121   C     0.27194   0.95880   0.74240   0.00000  Uiso   1.00
C122   C     0.25438   0.01315   0.76964   0.00000  Uiso   1.00
C123   C     0.84494   0.37026   0.88264   0.00000  Uiso   1.00
C124   C     0.49995  -0.00001   0.97330   0.00000  Uiso   1.00
C125   C     0.86280   0.36866   0.94774   0.00000  Uiso   1.00
C126   C     0.07823   0.72106   0.15435   0.00000  Uiso   1.00
C127   C     0.01776   0.72962   0.14143   0.00000  Uiso   1.00
C128   C     0.61365   0.83783   0.87972   0.00000  Uiso   1.00
C129   C     0.61091   0.84855   0.94663   0.00000  Uiso   1.00
C130   C     0.29261   0.09075   0.13538   0.00000  Uiso   1.00
C131   C     0.28675   0.03240   0.11244   0.00000  Uiso   1.00
C132   C     0.16377   0.61460   0.87811   0.00000  Uiso   1.00
C133   C     0.15577   0.61211   0.94550   0.00000  Uiso   1.00
C134   C     0.89820   0.29597   0.12861   0.00000  Uiso   1.00
C135   C     0.50001   0.99999   0.02671   0.00000  Uiso   1.00
C136   C     0.95330   0.29553   0.09724   0.00000  Uiso   1.00
C137   C     0.37990   0.15503   0.88380   0.00000  Uiso   1.00
C138   C     0.38481   0.13259   0.94700   0.00000  Uiso   1.00
C139   C     0.72485   0.92533   0.16112   0.00000  Uiso   1.00
C140   C     0.73485   0.98597   0.15003   0.00000  Uiso   1.00
C141   C     0.60348   0.80380   0.62070   0.00000  Uiso   1.00
C142   C     0.58212   0.81952   0.55923   0.00000  Uiso   1.00
C143   C     0.45699   0.22853   0.23624   0.00000  Uiso   1.00
C144   C     0.51240   0.24651   0.26017   0.00000  Uiso   1.00
C145   C     0.88835   0.34786   0.61369   0.00000  Uiso   1.00
C146   C     0.99993   0.50000   0.97330   0.00000  Uiso   1.00
C147   C     0.89420   0.37303   0.55182   0.00000  Uiso   1.00
C148   C     0.22407   0.54312   0.21860   0.00000  Uiso   1.00
C149   C     0.24444   0.48641   0.23594   0.00000  Uiso   1.00
C150   C     0.34729   0.12182   0.61353   0.00000  Uiso   1.00
C151   C     0.37745   0.11543   0.55444   0.00000  Uiso   1.00
C152   C     0.54592   0.77647   0.21599   0.00000  Uiso   1.00
C153   C     0.48847   0.75663   0.23085   0.00000  Uiso   1.00
C154   C     0.10400   0.66254   0.61728   0.00000  Uiso   1.00
C155   C     0.09227   0.63759   0.55636   0.00000  Uiso   1.00
C156   C     0.77091   0.45636   0.24630   0.00000  Uiso   1.00
C157   C     0.99992   0.49999   0.02671   0.00000  Uiso   1.00
C158   C     0.75397   0.51086   0.27359   0.00000  Uiso   1.00
C159   C     0.34482   0.87057   0.38296   0.00000  Uiso   1.00
C160   C     0.36436   0.87075   0.44748   0.00000  Uiso   1.00
C161   C     0.57909   0.21940   0.65162   0.00000  Uiso   1.00
C162   C     0.51868   0.22761   0.63814   0.00000  Uiso   1.00
C163   C     0.11053   0.33259   0.37656   0.00000  Uiso   1.00
C164   C     0.10046   0.34876   0.44130   0.00000  Uiso   1.00
C165   C     0.79452   0.59170   0.63410   0.00000  Uiso   1.00
C166   C     0.78876   0.53375   0.60999   0.00000  Uiso   1.00
C167   C     0.66650   0.10741   0.37691   0.00000  Uiso   1.00
C168   C     0.99995   0.50000   0.09002   0.00000  Uiso   1.00
C169   C     0.65210   0.09735   0.44217   0.00000  Uiso   1.00
C170   C     0.40359   0.78216   0.63000   0.00000  Uiso   1.00
C171   C     0.43231   0.82820   0.59654   0.00000  Uiso   1.00
C172   C     0.87223   0.65139   0.38486   0.00000  Uiso   1.00
C173   C     0.86643   0.63747   0.45086   0.00000  Uiso   1.00
C174   C     0.22470   0.42296   0.65962   0.00000  Uiso   1.00
C175   C     0.23378   0.48322   0.64552   0.00000  Uiso   1.00
C176   C     0.99998   0.50000   0.90999   0.00000  Uiso   1.00
C177   C     0.50002   0.99998   0.09003   0.00000  Uiso   1.00
C178   C     0.49997   0.00000   0.90997   0.00000  Uiso   1.00
C179   C     0.49994  -0.00001   0.59002   0.00000  Uiso   1.00
C180   C     0.27791   0.76466   0.24174   0.00000  Uiso   1.00
C181   C     0.49998   0.00000   0.40999   0.00000  Uiso   1.00
C182   C     0.00002   0.49997   0.59003   0.00000  Uiso   1.00
C183   C     0.99997   0.49998   0.40997   0.00000  Uiso   1.00
C184   C     0.10560   0.60489   0.24928   0.00000  Uiso   1.00
C185   C     0.89503   0.39451   0.74972   0.00000  Uiso   1.00
C186   C     0.60501   0.89457   0.24957   0.00000  Uiso   1.00
C187   C     0.39483   0.10526   0.75014   0.00000  Uiso   1.00
C188   C     0.89397   0.39532   0.24904   0.00000  Uiso   1.00
C189   C     0.10510   0.60522   0.75002   0.00000  Uiso   1.00
C190   C     0.39529   0.10595   0.24903   0.00000  Uiso   1.00
C191   C     0.73559   0.22189   0.73753   0.00000  Uiso   1.00
C192   C     0.60530   0.89493   0.74970   0.00000  Uiso   1.00
C193   C     0.89531   0.60592   0.74904   0.00000  Uiso   1.00
C194   C     0.10547   0.39512   0.24940   0.00000  Uiso   1.00
C195   C     0.39393   0.89537   0.74882   0.00000  Uiso   1.00
C196   C     0.60507   0.10513   0.25007   0.00000  Uiso   1.00
C197   C     0.10503   0.39457   0.74969   0.00000  Uiso   1.00
C198   C     0.89472   0.60522   0.25006   0.00000  Uiso   1.00
C199   C     0.60563   0.10489   0.74921   0.00000  Uiso   1.00
C200   C     0.39498   0.89455   0.24979   0.00000  Uiso   1.00
C201   C     0.21051   0.29583   0.19033   0.00000  Uiso   1.00
C202   C     0.76703   0.72468   0.24575   0.00000  Uiso   1.00
C203   C     0.83081   0.74658   0.76252   0.00000  Uiso   1.00
C204   C     0.28841   0.79672   0.19064   0.00000  Uiso   1.00
C205   C     0.74771   0.16658   0.75059   0.00000  Uiso   1.00
C206   C     0.79895   0.71510   0.19433   0.00000  Uiso   1.00
C207   C     0.17025   0.25451   0.75944   0.00000  Uiso   1.00
C208   C     0.70550   0.20939   0.19301   0.00000  Uiso   1.00
C209   C     0.25254   0.83246   0.76221   0.00000  Uiso   1.00
C210   C     0.80617   0.27451   0.79449   0.00000  Uiso   1.00
C211   C     0.18073   0.73838   0.22830   0.00000  Uiso   1.00
C212   C     0.71782   0.79980   0.80059   0.00000  Uiso   1.00
C213   C     0.22553   0.26802   0.74859   0.00000  Uiso   1.00
C214   C     0.26400   0.18360   0.22048   0.00000  Uiso   1.00
C215   C     0.19819   0.72009   0.79867   0.00000  Uiso   1.00
C216   C     0.81712   0.26300   0.22365   0.00000  Uiso   1.00
C217   C     0.28009   0.19746   0.80204   0.00000  Uiso   1.00
C218   C     0.74009   0.82182   0.23412   0.00000  Uiso   1.00
C219   C     0.70801   0.79287   0.69213   0.00000  Uiso   1.00
C220   C     0.33153   0.24718   0.26116   0.00000  Uiso   1.00
C221   C     0.78969   0.29604   0.68915   0.00000  Uiso   1.00
C222   C     0.24749   0.66678   0.25112   0.00000  Uiso   1.00
C223   C     0.29790   0.21461   0.69603   0.00000  Uiso   1.00
C224   C     0.72282   0.23364   0.24718   0.00000  Uiso   1.00
C225   C     0.66889   0.75374   0.25394   0.00000  Uiso   1.00
C226   C     0.20363   0.71009   0.68976   0.00000  Uiso   1.00
C227   C     0.75431   0.32956   0.26768   0.00000  Uiso   1.00
C228   C     0.30658   0.77451   0.29545   0.00000  Uiso   1.00
C229   C     0.68129   0.23788   0.72571   0.00000  Uiso   1.00
C230   C     0.21717   0.29861   0.29912   0.00000  Uiso   1.00
C231   C     0.76376   0.68274   0.72109   0.00000  Uiso   1.00
C232   C     0.70139   0.21562   0.30221   0.00000  Uiso   1.00
C233   C     0.31488   0.76509   0.71861   0.00000  Uiso   1.00
C234   C     0.77670   0.69495   0.29877   0.00000  Uiso   1.00
C235   C     0.26282   0.77900   0.74090   0.00000  Uiso   1.00
C236   C     0.24095   0.32245   0.73722   0.00000  Uiso   1.00
C237   C     0.16547   0.33159   0.19248   0.00000  Uiso   1.00
C238   C     0.86975   0.70454   0.76371   0.00000  Uiso   1.00
C239   C     0.32780   0.83820   0.19275   0.00000  Uiso   1.00
C240   C     0.70518   0.12833   0.75463   0.00000  Uiso   1.00
C241   C     0.83978   0.67502   0.19519   0.00000  Uiso   1.00
C242   C     0.13063   0.29588   0.75918   0.00000  Uiso   1.00
C243   C     0.66735   0.16684   0.19430   0.00000  Uiso   1.00
C244   C     0.29521   0.87067   0.76408   0.00000  Uiso   1.00
C245   C     0.84334   0.31800   0.79799   0.00000  Uiso   1.00
C246   C     0.77833   0.26434   0.74032   0.00000  Uiso   1.00
C247   C     0.13893   0.69921   0.22765   0.00000  Uiso   1.00
C248   C     0.67487   0.83771   0.80231   0.00000  Uiso   1.00
C249   C     0.30339   0.14187   0.21950   0.00000  Uiso   1.00
C250   C     0.16124   0.67636   0.80118   0.00000  Uiso   1.00
C251   C     0.85756   0.30348   0.21939   0.00000  Uiso   1.00
C252   C     0.32276   0.15920   0.80321   0.00000  Uiso   1.00
C253   C     0.70040   0.86305   0.23204   0.00000  Uiso   1.00
C254   C     0.66324   0.82870   0.69403   0.00000  Uiso   1.00
C255   C     0.37022   0.20487   0.26277   0.00000  Uiso   1.00
C256   C     0.82903   0.33758   0.69176   0.00000  Uiso   1.00
H1     H     0.27585   0.34849   0.13229   0.00000  Uiso   1.00
H2     H     0.87661   0.90006   0.80048   0.00000  Uiso   1.00
H3     H     0.40335   0.61775   0.26277   0.00000  Uiso   1.00
H4     H     0.20651   0.25535   0.63236   0.00000  Uiso   1.00
H5     H     0.22961   0.18537   0.62366   0.00000  Uiso   1.00
H6     H     0.25440   0.28170   0.53951   0.00000  Uiso   1.00
H7     H     0.20739   0.22575   0.52678   0.00000  Uiso   1.00
H8     H     0.28000   0.21251   0.53159   0.00000  Uiso   1.00
H9     H     0.69456   0.64843   0.21187   0.00000  Uiso   1.00
H10    H     0.64313   0.68989   0.17500   0.00000  Uiso   1.00
H11    H     0.57041   0.63874   0.22955   0.00000  Uiso   1.00
H12    H     0.61306   0.59419   0.18484   0.00000  Uiso   1.00
H13    H     0.31615   0.72863   0.11957   0.00000  Uiso   1.00
H14    H     0.62225   0.59690   0.26491   0.00000  Uiso   1.00
H15    H     0.23423   0.80801   0.63143   0.00000  Uiso   1.00
H16    H     0.16400   0.78417   0.63078   0.00000  Uiso   1.00
H17    H     0.24836   0.76827   0.53028   0.00000  Uiso   1.00
H18    H     0.19370   0.81806   0.53186   0.00000  Uiso   1.00
H19    H     0.17763   0.74591   0.52992   0.00000  Uiso   1.00
H20    H     0.64409   0.30801   0.24157   0.00000  Uiso   1.00
H21    H     0.67915   0.36518   0.20699   0.00000  Uiso   1.00
H22    H     0.63719   0.42796   0.28171   0.00000  Uiso   1.00
H23    H     0.58638   0.39071   0.23942   0.00000  Uiso   1.00
H24    H     0.29776   0.77520   0.06094   0.00000  Uiso   1.00
H25    H     0.60172   0.37055   0.31527   0.00000  Uiso   1.00
H26    H     0.22012   0.75713   0.35112   0.00000  Uiso   1.00
H27    H     0.26471   0.78177   0.40953   0.00000  Uiso   1.00
H28    H     0.27830   0.68797   0.44600   0.00000  Uiso   1.00
H29    H     0.20587   0.70179   0.43935   0.00000  Uiso   1.00
H30    H     0.23975   0.66057   0.38384   0.00000  Uiso   1.00
H31    H     0.69143   0.33110   0.78924   0.00000  Uiso   1.00
H32    H     0.62535   0.29691   0.79203   0.00000  Uiso   1.00
H33    H     0.58867   0.36449   0.71928   0.00000  Uiso   1.00
H34    H     0.61485   0.39716   0.78588   0.00000  Uiso   1.00
H35    H     0.22376   0.68638   0.11556   0.00000  Uiso   1.00
H36    H     0.65432   0.39878   0.71751   0.00000  Uiso   1.00
H37    H     0.18691   0.21908   0.35173   0.00000  Uiso   1.00
H38    H     0.19885   0.25492   0.42064   0.00000  Uiso   1.00
H39    H     0.29515   0.21715   0.42209   0.00000  Uiso   1.00
H40    H     0.24255   0.16508   0.42440   0.00000  Uiso   1.00
H41    H     0.27909   0.17816   0.35584   0.00000  Uiso   1.00
H42    H     0.66785   0.68497   0.77578   0.00000  Uiso   1.00
H43    H     0.69743   0.61696   0.76790   0.00000  Uiso   1.00
H44    H     0.63375   0.59821   0.68369   0.00000  Uiso   1.00
H45    H     0.59750   0.61596   0.75148   0.00000  Uiso   1.00
H46    H     0.25660   0.68503   0.04330   0.00000  Uiso   1.00
H47    H     0.60440   0.66584   0.69224   0.00000  Uiso   1.00
H48    H     0.78360   0.18867   0.35285   0.00000  Uiso   1.00
H49    H     0.74308   0.19049   0.42032   0.00000  Uiso   1.00
H50    H     0.77486   0.28558   0.44048   0.00000  Uiso   1.00
H51    H     0.83098   0.23778   0.43437   0.00000  Uiso   1.00
H52    H     0.81591   0.28347   0.37309   0.00000  Uiso   1.00
H53    H     0.31233   0.66831   0.77281   0.00000  Uiso   1.00
H54    H     0.37995   0.69877   0.76526   0.00000  Uiso   1.00
H55    H     0.39952   0.63579   0.68044   0.00000  Uiso   1.00
H56    H     0.38228   0.59892   0.74796   0.00000  Uiso   1.00
H57    H     0.20341   0.73453   0.05843   0.00000  Uiso   1.00
H58    H     0.33238   0.60543   0.68886   0.00000  Uiso   1.00
H59    H     0.74435   0.78269   0.35745   0.00000  Uiso   1.00
H60    H     0.79547   0.74418   0.39799   0.00000  Uiso   1.00
H61    H     0.72304   0.70679   0.46408   0.00000  Uiso   1.00
H62    H     0.72257   0.78088   0.46410   0.00000  Uiso   1.00
H63    H     0.67161   0.74374   0.42218   0.00000  Uiso   1.00
H64    H     0.29411   0.35901   0.81875   0.00000  Uiso   1.00
H65    H     0.31494   0.40977   0.76454   0.00000  Uiso   1.00
H66    H     0.40032   0.35795   0.74478   0.00000  Uiso   1.00
H67    H     0.39328   0.37370   0.82338   0.00000  Uiso   1.00
H68    H     0.85400   0.19025   0.70964   0.00000  Uiso   1.00
H69    H     0.37889   0.30532   0.79667   0.00000  Uiso   1.00
H70    H     0.07228   0.30215   0.14504   0.00000  Uiso   1.00
H71    H     0.13037   0.26972   0.10968   0.00000  Uiso   1.00
H72    H     0.12407   0.33449   0.02435   0.00000  Uiso   1.00
H73    H     0.06189   0.29571   0.03460   0.00000  Uiso   1.00
H74    H     0.06502   0.36638   0.05857   0.00000  Uiso   1.00
H75    H     0.93993   0.76261   0.70972   0.00000  Uiso   1.00
H76    H     0.96285   0.69213   0.70843   0.00000  Uiso   1.00
H77    H     0.02927   0.71404   0.79056   0.00000  Uiso   1.00
H78    H     0.04054   0.75423   0.72391   0.00000  Uiso   1.00
H79    H     0.81196   0.13922   0.67266   0.00000  Uiso   1.00
H80    H     0.00735   0.78467   0.78806   0.00000  Uiso   1.00
H81    H     0.38451   0.80347   0.10756   0.00000  Uiso   1.00
H82    H     0.42255   0.85973   0.13912   0.00000  Uiso   1.00
H83    H     0.39150   0.91996   0.05564   0.00000  Uiso   1.00
H84    H     0.42816   0.86040   0.02929   0.00000  Uiso   1.00
H85    H     0.35444   0.86290   0.02375   0.00000  Uiso   1.00
H86    H     0.75533   0.06042   0.68959   0.00000  Uiso   1.00
H87    H     0.68520   0.03736   0.69653   0.00000  Uiso   1.00
H88    H     0.71564   0.96718   0.77131   0.00000  Uiso   1.00
H89    H     0.74881   0.95928   0.69964   0.00000  Uiso   1.00
H90    H     0.86112   0.06596   0.72836   0.00000  Uiso   1.00
H91    H     0.78547   0.98972   0.76136   0.00000  Uiso   1.00
H92    H     0.80470   0.62134   0.10781   0.00000  Uiso   1.00
H93    H     0.86002   0.58151   0.13847   0.00000  Uiso   1.00
H94    H     0.92133   0.61374   0.05654   0.00000  Uiso   1.00
H95    H     0.86128   0.57918   0.02843   0.00000  Uiso   1.00
H96    H     0.86540   0.65304   0.02553   0.00000  Uiso   1.00
H97    H     0.06562   0.24451   0.69089   0.00000  Uiso   1.00
H98    H     0.04278   0.31481   0.69616   0.00000  Uiso   1.00
H99    H     0.96937   0.28525   0.76754   0.00000  Uiso   1.00
H100   H     0.96429   0.25196   0.69569   0.00000  Uiso   1.00
H101   H     0.90693   0.10750   0.68393   0.00000  Uiso   1.00
H102   H     0.99162   0.21510   0.75901   0.00000  Uiso   1.00
H103   H     0.60836   0.21128   0.11454   0.00000  Uiso   1.00
H104   H     0.56897   0.15801   0.15072   0.00000  Uiso   1.00
H105   H     0.58477   0.09706   0.06287   0.00000  Uiso   1.00
H106   H     0.55124   0.16023   0.04232   0.00000  Uiso   1.00
H107   H     0.62325   0.15106   0.02680   0.00000  Uiso   1.00
H108   H     0.23775   0.94354   0.71422   0.00000  Uiso   1.00
H109   H     0.30816   0.96630   0.71334   0.00000  Uiso   1.00
H110   H     0.28694   0.02910   0.79942   0.00000  Uiso   1.00
H111   H     0.24661   0.04351   0.73368   0.00000  Uiso   1.00
H112   H     0.22736   0.33654   0.07272   0.00000  Uiso   1.00
H113   H     0.90341   0.11735   0.76389   0.00000  Uiso   1.00
H114   H     0.21632   0.00753   0.79609   0.00000  Uiso   1.00
H115   H     0.79945   0.36770   0.88130   0.00000  Uiso   1.00
H116   H     0.85749   0.41032   0.86350   0.00000  Uiso   1.00
H117   H     0.84345   0.40287   0.97270   0.00000  Uiso   1.00
H118   H     0.85022   0.32929   0.96847   0.00000  Uiso   1.00
H119   H     0.90796   0.37283   0.95077   0.00000  Uiso   1.00
H120   H     0.09191   0.68369   0.12985   0.00000  Uiso   1.00
H121   H     0.10108   0.75710   0.13697   0.00000  Uiso   1.00
H122   H     0.00286   0.76701   0.16456   0.00000  Uiso   1.00
H123   H     0.01141   0.73444   0.09258   0.00000  Uiso   1.00
H124   H     0.73098   0.68979   0.12229   0.00000  Uiso   1.00
H125   H     0.99384   0.69377   0.15722   0.00000  Uiso   1.00
H126   H     0.61205   0.79268   0.87252   0.00000  Uiso   1.00
H127   H     0.57692   0.85642   0.85876   0.00000  Uiso   1.00
H128   H     0.57309   0.83015   0.96547   0.00000  Uiso   1.00
H129   H     0.64696   0.83007   0.96908   0.00000  Uiso   1.00
H130   H     0.61045   0.89333   0.95533   0.00000  Uiso   1.00
H131   H     0.33281   0.10690   0.11958   0.00000  Uiso   1.00
H132   H     0.25919   0.11591   0.11582   0.00000  Uiso   1.00
H133   H     0.24670   0.01519   0.12653   0.00000  Uiso   1.00
H134   H     0.28911   0.03208   0.06287   0.00000  Uiso   1.00
H135   H     0.77802   0.70924   0.06441   0.00000  Uiso   1.00
H136   H     0.32012   0.00638   0.13054   0.00000  Uiso   1.00
H137   H     0.20855   0.61310   0.86865   0.00000  Uiso   1.00
H138   H     0.14449   0.57767   0.85826   0.00000  Uiso   1.00
H139   H     0.17523   0.57452   0.96356   0.00000  Uiso   1.00
H140   H     0.17476   0.64847   0.96690   0.00000  Uiso   1.00
H141   H     0.11144   0.61129   0.95639   0.00000  Uiso   1.00
H142   H     0.87712   0.33495   0.11641   0.00000  Uiso   1.00
H143   H     0.87373   0.26076   0.11187   0.00000  Uiso   1.00
H144   H     0.97575   0.25726   0.10804   0.00000  Uiso   1.00
H145   H     0.94734   0.29799   0.04811   0.00000  Uiso   1.00
H146   H     0.73813   0.80398   0.06419   0.00000  Uiso   1.00
H147   H     0.97776   0.33133   0.11200   0.00000  Uiso   1.00
H148   H     0.37714   0.20048   0.88649   0.00000  Uiso   1.00
H149   H     0.41787   0.14422   0.85914   0.00000  Uiso   1.00
H150   H     0.42141   0.15025   0.96914   0.00000  Uiso   1.00
H151   H     0.34789   0.14350   0.97342   0.00000  Uiso   1.00
H152   H     0.38903   0.08732   0.94573   0.00000  Uiso   1.00
H153   H     0.68849   0.91262   0.13444   0.00000  Uiso   1.00
H154   H     0.76127   0.90230   0.14509   0.00000  Uiso   1.00
H155   H     0.77133   0.99985   0.17539   0.00000  Uiso   1.00
H156   H     0.74195   0.99321   0.10164   0.00000  Uiso   1.00
H157   H     0.68950   0.78262   0.12051   0.00000  Uiso   1.00
H158   H     0.69873   0.01015   0.16453   0.00000  Uiso   1.00
H159   H     0.56811   0.79902   0.65164   0.00000  Uiso   1.00
H160   H     0.62457   0.76358   0.61640   0.00000  Uiso   1.00
H161   H     0.61663   0.82225   0.52702   0.00000  Uiso   1.00
H162   H     0.55273   0.78810   0.54328   0.00000  Uiso   1.00
H163   H     0.56110   0.85979   0.56139   0.00000  Uiso   1.00
H164   H     0.44040   0.26238   0.20832   0.00000  Uiso   1.00
H165   H     0.46327   0.19186   0.20749   0.00000  Uiso   1.00
H166   H     0.50790   0.28474   0.28660   0.00000  Uiso   1.00
H167   H     0.52991   0.21414   0.28921   0.00000  Uiso   1.00
H168   H     0.68836   0.75147   0.04743   0.00000  Uiso   1.00
H169   H     0.54097   0.25421   0.22243   0.00000  Uiso   1.00
H170   H     0.88806   0.30249   0.60875   0.00000  Uiso   1.00
H171   H     0.92485   0.35954   0.64036   0.00000  Uiso   1.00
H172   H     0.89497   0.41839   0.55520   0.00000  Uiso   1.00
H173   H     0.93287   0.35891   0.53076   0.00000  Uiso   1.00
H174   H     0.85928   0.36053   0.52321   0.00000  Uiso   1.00
H175   H     0.25449   0.56151   0.18746   0.00000  Uiso   1.00
H176   H     0.18441   0.53843   0.19481   0.00000  Uiso   1.00
H177   H     0.21548   0.46694   0.26772   0.00000  Uiso   1.00
H178   H     0.24793   0.46023   0.19552   0.00000  Uiso   1.00
H179   H     0.19556   0.14860   0.72008   0.00000  Uiso   1.00
H180   H     0.28525   0.48955   0.25742   0.00000  Uiso   1.00
H181   H     0.30320   0.12801   0.60358   0.00000  Uiso   1.00
H182   H     0.35204   0.08318   0.63936   0.00000  Uiso   1.00
H183   H     0.42181   0.10937   0.56262   0.00000  Uiso   1.00
H184   H     0.36128   0.07942   0.52983   0.00000  Uiso   1.00
H185   H     0.37169   0.15264   0.52662   0.00000  Uiso   1.00
H186   H     0.56505   0.74607   0.18539   0.00000  Uiso   1.00
H187   H     0.54248   0.81639   0.19231   0.00000  Uiso   1.00
H188   H     0.49034   0.71558   0.25209   0.00000  Uiso   1.00
H189   H     0.46829   0.78563   0.26206   0.00000  Uiso   1.00
H190   H     0.14169   0.18757   0.68437   0.00000  Uiso   1.00
H191   H     0.46373   0.75380   0.18937   0.00000  Uiso   1.00
H192   H     0.10741   0.70766   0.61161   0.00000  Uiso   1.00
H193   H     0.06875   0.65354   0.64723   0.00000  Uiso   1.00
H194   H     0.08854   0.59244   0.56027   0.00000  Uiso   1.00
H195   H     0.05340   0.65435   0.53839   0.00000  Uiso   1.00
H196   H     0.12600   0.64746   0.52483   0.00000  Uiso   1.00
H197   H     0.73595   0.44070   0.21956   0.00000  Uiso   1.00
H198   H     0.80616   0.46377   0.21582   0.00000  Uiso   1.00
H199   H     0.78743   0.52718   0.30192   0.00000  Uiso   1.00
H200   H     0.74492   0.54088   0.23764   0.00000  Uiso   1.00
H201   H     0.07256   0.13679   0.74450   0.00000  Uiso   1.00
H202   H     0.71682   0.50532   0.30156   0.00000  Uiso   1.00
H203   H     0.29942   0.86650   0.38311   0.00000  Uiso   1.00
H204   H     0.35560   0.91066   0.36261   0.00000  Uiso   1.00
H205   H     0.34466   0.90486   0.47228   0.00000  Uiso   1.00
H206   H     0.35341   0.83144   0.46942   0.00000  Uiso   1.00
H207   H     0.40943   0.87626   0.44899   0.00000  Uiso   1.00
H208   H     0.59294   0.18159   0.62804   0.00000  Uiso   1.00
H209   H     0.60199   0.25513   0.63358   0.00000  Uiso   1.00
H210   H     0.50361   0.26540   0.66035   0.00000  Uiso   1.00
H211   H     0.51257   0.23152   0.58915   0.00000  Uiso   1.00
H212   H     0.11440   0.09162   0.69961   0.00000  Uiso   1.00
H213   H     0.49473   0.19202   0.65457   0.00000  Uiso   1.00
H214   H     0.11325   0.28712   0.37426   0.00000  Uiso   1.00
H215   H     0.07469   0.34606   0.34986   0.00000  Uiso   1.00
H216   H     0.09612   0.39392   0.44490   0.00000  Uiso   1.00
H217   H     0.06231   0.32918   0.45779   0.00000  Uiso   1.00
H218   H     0.13520   0.33516   0.46959   0.00000  Uiso   1.00
H219   H     0.83517   0.60779   0.61969   0.00000  Uiso   1.00
H220   H     0.76177   0.61740   0.61402   0.00000  Uiso   1.00
H221   H     0.74826   0.51667   0.62260   0.00000  Uiso   1.00
H222   H     0.79233   0.53415   0.56050   0.00000  Uiso   1.00
H223   H     0.33226   0.27052   0.09638   0.00000  Uiso   1.00
H224   H     0.12679   0.09742   0.77896   0.00000  Uiso   1.00
H225   H     0.82148   0.50720   0.62858   0.00000  Uiso   1.00
H226   H     0.71190   0.10884   0.37277   0.00000  Uiso   1.00
H227   H     0.65120   0.07209   0.35051   0.00000  Uiso   1.00
H228   H     0.67132   0.05868   0.45763   0.00000  Uiso   1.00
H229   H     0.66722   0.13167   0.47022   0.00000  Uiso   1.00
H230   H     0.60703   0.09393   0.44742   0.00000  Uiso   1.00
H231   H     0.36115   0.77842   0.61209   0.00000  Uiso   1.00
H232   H     0.42491   0.74314   0.61962   0.00000  Uiso   1.00
H233   H     0.47386   0.83460   0.61509   0.00000  Uiso   1.00
H234   H     0.43591   0.81755   0.54846   0.00000  Uiso   1.00
H235   H     0.73757   0.30805   0.13689   0.00000  Uiso   1.00
H236   H     0.40846   0.86670   0.60078   0.00000  Uiso   1.00
H237   H     0.87445   0.69682   0.38058   0.00000  Uiso   1.00
H238   H     0.91149   0.63403   0.36857   0.00000  Uiso   1.00
H239   H     0.90136   0.65487   0.47621   0.00000  Uiso   1.00
H240   H     0.82776   0.65491   0.46874   0.00000  Uiso   1.00
H241   H     0.86601   0.59233   0.45700   0.00000  Uiso   1.00
H242   H     0.18867   0.40857   0.63343   0.00000  Uiso   1.00
H243   H     0.26159   0.39982   0.64508   0.00000  Uiso   1.00
H244   H     0.26987   0.49876   0.67041   0.00000  Uiso   1.00
H245   H     0.24109   0.48850   0.59687   0.00000  Uiso   1.00
H246   H     0.66715   0.28497   0.13546   0.00000  Uiso   1.00
H247   H     0.19718   0.50739   0.65852   0.00000  Uiso   1.00
H248   H     0.75179   0.26993   0.03500   0.00000  Uiso   1.00
H249   H     0.69728   0.31988   0.03722   0.00000  Uiso   1.00
H250   H     0.68104   0.24780   0.03392   0.00000  Uiso   1.00
H251   H     0.14276   0.81210   0.73374   0.00000  Uiso   1.00
H252   H     0.17909   0.86864   0.69930   0.00000  Uiso   1.00
H253   H     0.13625   0.93252   0.77226   0.00000  Uiso   1.00
H254   H     0.08593   0.89535   0.72921   0.00000  Uiso   1.00
H255   H     0.28400   0.25827   0.03675   0.00000  Uiso   1.00
H256   H     0.09957   0.87579   0.80564   0.00000  Uiso   1.00
H257   H     0.71859   0.25807   0.84880   0.00000  Uiso   1.00
H258   H     0.76256   0.28424   0.90699   0.00000  Uiso   1.00
H259   H     0.77572   0.19121   0.94637   0.00000  Uiso   1.00
H260   H     0.70347   0.20573   0.93926   0.00000  Uiso   1.00
H261   H     0.73688   0.16263   0.88502   0.00000  Uiso   1.00
H262   H     0.19147   0.83073   0.29347   0.00000  Uiso   1.00
H263   H     0.12566   0.79604   0.29671   0.00000  Uiso   1.00
H264   H     0.08751   0.86450   0.22587   0.00000  Uiso   1.00
H265   H     0.11440   0.89629   0.29265   0.00000  Uiso   1.00
H266   H     0.32241   0.32152   0.03875   0.00000  Uiso   1.00
H267   H     0.15290   0.89928   0.22367   0.00000  Uiso   1.00
H268   H     0.73311   0.70643   0.84784   0.00000  Uiso   1.00
H269   H     0.69027   0.74550   0.89836   0.00000  Uiso   1.00
H270   H     0.77211   0.76309   0.96236   0.00000  Uiso   1.00
H271   H     0.75825   0.69080   0.95323   0.00000  Uiso   1.00
H272   H     0.81328   0.72254   0.91178   0.00000  Uiso   1.00
H273   H     0.19876   0.14201   0.28691   0.00000  Uiso   1.00
H274   H     0.18227   0.09809   0.22461   0.00000  Uiso   1.00
H275   H     0.10447   0.15888   0.19784   0.00000  Uiso   1.00
H276   H     0.09923   0.13551   0.27432   0.00000  Uiso   1.00
H277   H     0.80753   0.85707   0.73490   0.00000  Uiso   1.00
H278   H     0.12210   0.20445   0.25859   0.00000  Uiso   1.00
H279   H     0.29169   0.73310   0.84499   0.00000  Uiso   1.00
H280   H     0.25233   0.69263   0.89745   0.00000  Uiso   1.00
H281   H     0.23791   0.77633   0.95949   0.00000  Uiso   1.00
H282   H     0.30965   0.76098   0.94882   0.00000  Uiso   1.00
H283   H     0.27802   0.81556   0.90668   0.00000  Uiso   1.00
H284   H     0.86189   0.19846   0.28875   0.00000  Uiso   1.00
H285   H     0.90572   0.18714   0.22478   0.00000  Uiso   1.00
H286   H     0.85092   0.10498   0.19737   0.00000  Uiso   1.00
H287   H     0.87678   0.10005   0.27284   0.00000  Uiso   1.00
H288   H     0.86088   0.81969   0.69606   0.00000  Uiso   1.00
H289   H     0.80584   0.11740   0.26015   0.00000  Uiso   1.00
H290   H     0.30215   0.27228   0.86692   0.00000  Uiso   1.00
H291   H     0.29052   0.22606   0.92835   0.00000  Uiso   1.00
H292   H     0.19463   0.25876   0.93733   0.00000  Uiso   1.00
H293   H     0.24304   0.31439   0.94333   0.00000  Uiso   1.00
H294   H     0.20541   0.30464   0.87488   0.00000  Uiso   1.00
H295   H     0.82520   0.81135   0.30602   0.00000  Uiso   1.00
H296   H     0.79568   0.87969   0.30378   0.00000  Uiso   1.00
H297   H     0.87187   0.91016   0.23793   0.00000  Uiso   1.00
H298   H     0.89655   0.88299   0.30806   0.00000  Uiso   1.00
H299   H     0.93027   0.86229   0.76283   0.00000  Uiso   1.00
H300   H     0.90123   0.84214   0.24085   0.00000  Uiso   1.00
H301   H     0.77304   0.84399   0.63376   0.00000  Uiso   1.00
H302   H     0.72892   0.82901   0.57130   0.00000  Uiso   1.00
H303   H     0.83124   0.76376   0.60831   0.00000  Uiso   1.00
H304   H     0.78778   0.74846   0.54541   0.00000  Uiso   1.00
H305   H     0.82629   0.81164   0.54687   0.00000  Uiso   1.00
H306   H     0.30875   0.35839   0.23442   0.00000  Uiso   1.00
H307   H     0.36078   0.32011   0.19447   0.00000  Uiso   1.00
H308   H     0.43198   0.36127   0.26016   0.00000  Uiso   1.00
H309   H     0.39294   0.41255   0.22055   0.00000  Uiso   1.00
H310   H     0.89086   0.91278   0.72244   0.00000  Uiso   1.00
H311   H     0.37960   0.39996   0.29881   0.00000  Uiso   1.00
H312   H     0.81820   0.22749   0.61877   0.00000  Uiso   1.00
H313   H     0.80254   0.27538   0.56022   0.00000  Uiso   1.00
H314   H     0.72435   0.18783   0.60996   0.00000  Uiso   1.00
H315   H     0.76167   0.18480   0.54034   0.00000  Uiso   1.00
H316   H     0.70908   0.23590   0.55074   0.00000  Uiso   1.00
H317   H     0.35339   0.69091   0.20951   0.00000  Uiso   1.00
H318   H     0.31127   0.64001   0.17244   0.00000  Uiso   1.00
H319   H     0.36098   0.56651   0.22708   0.00000  Uiso   1.00
H320   H     0.40640   0.60852   0.18270   0.00000  Uiso   1.00
O1     O    -0.00000   0.50000   0.25000   0.00000  Uiso   1.00
O2     O     0.00000   0.45454   0.88202   0.00000  Uiso   1.00
O3     O     0.71627   0.91683   0.22292   0.00000  Uiso   1.00
O4     O     0.63892   0.84543   0.64126   0.00000  Uiso   1.00
O5     O     0.42191   0.21626   0.28474   0.00000  Uiso   1.00
O6     O     0.83977   0.36763   0.64058   0.00000  Uiso   1.00
O7     O     0.21755   0.57510   0.27078   0.00000  Uiso   1.00
O8     O     0.36951   0.16679   0.64497   0.00000  Uiso   1.00
O9     O     0.57612   0.78211   0.26948   0.00000  Uiso   1.00
O10    O     0.15279   0.63969   0.64012   0.00000  Uiso   1.00
O11    O     0.78530   0.41965   0.29256   0.00000  Uiso   1.00
O12    O     0.37077   0.82728   0.35191   0.00000  Uiso   1.00
O13    O     0.54546   0.00000   0.11798   0.00000  Uiso   1.00
O14    O     0.58619   0.21506   0.71414   0.00000  Uiso   1.00
O15    O     0.15906   0.35810   0.35625   0.00000  Uiso   1.00
O16    O     0.78964   0.59060   0.69708   0.00000  Uiso   1.00
O17    O     0.64164   0.15676   0.35799   0.00000  Uiso   1.00
O18    O     0.40714   0.79110   0.69259   0.00000  Uiso   1.00
O19    O     0.82787   0.62810   0.35316   0.00000  Uiso   1.00
O20    O     0.21590   0.41697   0.72171   0.00000  Uiso   1.00
O21    O     0.45454   0.00000   0.88202   0.00000  Uiso   1.00
O22    O     0.50000   0.95454   0.61798   0.00000  Uiso   1.00
O23    O     0.50000   0.04546   0.38202   0.00000  Uiso   1.00
O24    O     0.95454   0.50000   0.61798   0.00000  Uiso   1.00
O25    O     0.04546   0.50000   0.38202   0.00000  Uiso   1.00
O26    O     0.50000   0.04546   0.61798   0.00000  Uiso   1.00
O27    O     0.50000   0.95454   0.38202   0.00000  Uiso   1.00
O28    O     0.04546   0.50000   0.61798   0.00000  Uiso   1.00
O29    O     0.00000   0.50000   0.75000   0.00000  Uiso   1.00
O30    O     0.95454   0.50000   0.38202   0.00000  Uiso   1.00
O31    O     0.06399   0.60947   0.21539   0.00000  Uiso   1.00
O32    O     0.93601   0.39053   0.78461   0.00000  Uiso   1.00
O33    O     0.60947   0.93601   0.21539   0.00000  Uiso   1.00
O34    O     0.39053   0.06399   0.78461   0.00000  Uiso   1.00
O35    O     0.93601   0.39053   0.21539   0.00000  Uiso   1.00
O36    O     0.06399   0.60947   0.78461   0.00000  Uiso   1.00
O37    O     0.39053   0.06399   0.21539   0.00000  Uiso   1.00
O38    O     0.60947   0.93601   0.78461   0.00000  Uiso   1.00
O39    O     0.93601   0.60947   0.78461   0.00000  Uiso   1.00
O40    O     0.50000   0.00000   0.25000   0.00000  Uiso   1.00
O41    O     0.06399   0.39053   0.21539   0.00000  Uiso   1.00
O42    O     0.39053   0.93601   0.78461   0.00000  Uiso   1.00
O43    O     0.60947   0.06399   0.21539   0.00000  Uiso   1.00
O44    O     0.06399   0.39053   0.78461   0.00000  Uiso   1.00
O45    O     0.93601   0.60947   0.21539   0.00000  Uiso   1.00
O46    O     0.60947   0.06399   0.78461   0.00000  Uiso   1.00
O47    O     0.39053   0.93601   0.21539   0.00000  Uiso   1.00
O48    O     0.56399   0.10947   0.71539   0.00000  Uiso   1.00
O49    O     0.43601   0.89053   0.28461   0.00000  Uiso   1.00
O50    O     0.10947   0.43601   0.71539   0.00000  Uiso   1.00
O51    O     0.50000   0.00000   0.75000   0.00000  Uiso   1.00
O52    O     0.89053   0.56399   0.28461   0.00000  Uiso   1.00
O53    O     0.43601   0.89053   0.71539   0.00000  Uiso   1.00
O54    O     0.56399   0.10947   0.28461   0.00000  Uiso   1.00
O55    O     0.89053   0.56399   0.71539   0.00000  Uiso   1.00
O56    O     0.10947   0.43601   0.28461   0.00000  Uiso   1.00
O57    O     0.43601   0.10947   0.28461   0.00000  Uiso   1.00
O58    O     0.56399   0.89053   0.71539   0.00000  Uiso   1.00
O59    O     0.89053   0.43601   0.28461   0.00000  Uiso   1.00
O60    O     0.10947   0.56399   0.71539   0.00000  Uiso   1.00
O61    O     0.56399   0.89053   0.28461   0.00000  Uiso   1.00
O62    O     0.00000   0.45454   0.11798   0.00000  Uiso   1.00
O63    O     0.43601   0.10947   0.71539   0.00000  Uiso   1.00
O64    O     0.10947   0.56399   0.28461   0.00000  Uiso   1.00
O65    O     0.89053   0.43601   0.71539   0.00000  Uiso   1.00
O66    O     0.22946   0.27517   0.13643   0.00000  Uiso   1.00
O67    O     0.84522   0.79716   0.78589   0.00000  Uiso   1.00
O68    O     0.25701   0.79031   0.13959   0.00000  Uiso   1.00
O69    O     0.80003   0.14965   0.76568   0.00000  Uiso   1.00
O70    O     0.79295   0.74797   0.14425   0.00000  Uiso   1.00
O71    O     0.15464   0.20220   0.77647   0.00000  Uiso   1.00
O72    O     0.72833   0.22363   0.13836   0.00000  Uiso   1.00
O73    O     0.00000   0.54546   0.88202   0.00000  Uiso   1.00
O74    O     0.20264   0.84706   0.78711   0.00000  Uiso   1.00
O75    O     0.80244   0.23841   0.84215   0.00000  Uiso   1.00
O76    O     0.16828   0.79231   0.21492   0.00000  Uiso   1.00
O77    O     0.74831   0.79097   0.85182   0.00000  Uiso   1.00
O78    O     0.21158   0.17399   0.19950   0.00000  Uiso   1.00
O79    O     0.20763   0.75046   0.84996   0.00000  Uiso   1.00
O80    O     0.82699   0.21050   0.20284   0.00000  Uiso   1.00
O81    O     0.24791   0.20524   0.85235   0.00000  Uiso   1.00
O82    O     0.79431   0.83511   0.22359   0.00000  Uiso   1.00
O83    O     0.72557   0.77102   0.63827   0.00000  Uiso   1.00
O84    O     0.45454   0.00000   0.11798   0.00000  Uiso   1.00
O85    O     0.34597   0.29772   0.28460   0.00000  Uiso   1.00
O86    O     0.75903   0.28934   0.63758   0.00000  Uiso   1.00
O87    O     0.29991   0.64974   0.26561   0.00000  Uiso   1.00
O88    O     0.28998   0.24470   0.64417   0.00000  Uiso   1.00
O89    O     0.65248   0.70100   0.26823   0.00000  Uiso   1.00
O90    O     0.22581   0.72353   0.63454   0.00000  Uiso   1.00
O91    O     0.70469   0.34299   0.29401   0.00000  Uiso   1.00
O92    O     0.30401   0.73791   0.34274   0.00000  Uiso   1.00
O93    O     0.66906   0.29158   0.71104   0.00000  Uiso   1.00
O94    O     0.24481   0.28463   0.35085   0.00000  Uiso   1.00
O95    O     0.54546   0.00000   0.88202   0.00000  Uiso   1.00
O96    O     0.71236   0.67211   0.69788   0.00000  Uiso   1.00
O97    O     0.71506   0.24250   0.35463   0.00000  Uiso   1.00
O98    O     0.32464   0.71344   0.69536   0.00000  Uiso   1.00
O99    O     0.74092   0.69774   0.34684   0.00000  Uiso   1.00
O100   O     0.29563   0.33461   0.72759   0.00000  Uiso   1.00
O101   O     0.14223   0.35044   0.13998   0.00000  Uiso   1.00
O102   O     0.92137   0.71608   0.78581   0.00000  Uiso   1.00
O103   O     0.33759   0.86864   0.14162   0.00000  Uiso   1.00
O104   O     0.71747   0.07536   0.77216   0.00000  Uiso   1.00
O105   O     0.87024   0.66632   0.14382   0.00000  Uiso   1.00
O106   O     0.00000   0.54546   0.11798   0.00000  Uiso   1.00
O107   O     0.07724   0.28239   0.77391   0.00000  Uiso   1.00
O108   O     0.65250   0.14196   0.14112   0.00000  Uiso   1.00
O109   O     0.28482   0.92163   0.78876   0.00000  Uiso   1.00
O110   O     0.87044   0.32677   0.85145   0.00000  Uiso   1.00
O111   O     0.08564   0.71552   0.21672   0.00000  Uiso   1.00
O112   O     0.66184   0.86192   0.85647   0.00000  Uiso   1.00
O113   O     0.28921   0.09051   0.19846   0.00000  Uiso   1.00
O114   O     0.13854   0.66262   0.85594   0.00000  Uiso   1.00
O115   O     0.90640   0.29159   0.19099   0.00000  Uiso   1.00
O116   O     0.33339   0.13173   0.85610   0.00000  Uiso   1.00
Zn1    Zn    0.06497   0.50000   0.29947   0.00000  Uiso   1.00
Zn2    Zn    0.43503   0.00000   0.20053   0.00000  Uiso   1.00
Zn3    Zn   -0.00000   0.43503   0.79947   0.00000  Uiso   1.00
Zn4    Zn    0.00000   0.56497   0.20053   0.00000  Uiso   1.00
Zn5    Zn    0.43503   0.00000   0.79947   0.00000  Uiso   1.00
Zn6    Zn    0.56497   0.00000   0.20053   0.00000  Uiso   1.00
Zn7    Zn   -0.00000   0.56497   0.79947   0.00000  Uiso   1.00
Zn8    Zn    0.00000   0.43503   0.20053   0.00000  Uiso   1.00
Zn9    Zn    0.93503   0.50000   0.70053   0.00000  Uiso   1.00
Zn10   Zn    0.50000   0.93503   0.29947   0.00000  Uiso   1.00
Zn11   Zn    0.50000   0.06497   0.70053   0.00000  Uiso   1.00
Zn12   Zn    0.93503   0.50000   0.29947   0.00000  Uiso   1.00
Zn13   Zn    0.06497   0.50000   0.70053   0.00000  Uiso   1.00
Zn14   Zn    0.50000   0.06497   0.29947   0.00000  Uiso   1.00
Zn15   Zn    0.50000   0.93503   0.70053   0.00000  Uiso   1.00
Zn16   Zn    0.56497   0.00000   0.79947   0.00000  Uiso   1.00
loop_
_geom_bond_atom_site_label_1
_geom_bond_atom_site_label_2
_geom_bond_distance
_geom_bond_site_symmetry_2
_ccdc_geom_bond_type
C1     C24     1.471   .     S
C1     C201    1.404   .     A
C1     C230    1.406   .     A
C2     C222    1.414   .     A
C2     C211    1.410   .     A
C2     C180    1.473   .     S
C3     C222    1.400   .     A
C3     C27     1.414   .     A
C3     O7      1.385   .     S
C4     C32     1.412   .     A
C4     C223    1.397   .     A
C4     O8      1.385   .     S
C5     O9      1.385   .     S
C5     C225    1.400   .     A
C5     C33     1.413   .     A
C6     C30     1.410   .     A
C6     C226    1.397   .     A
C6     O10     1.385   .     S
C7     C227    1.401   .     A
C7     O11     1.385   .     S
C7     C31     1.418   .     A
C8     C228    1.400   .     A
C8     C19     1.415   .     A
C8     O12     1.385   .     S
C9     C20     1.410   .     A
C9     C229    1.400   .     A
C9     O14     1.385   .     S
C10    C230    1.402   .     A
C10    C17     1.414   .     A
C10    O15     1.385   .     S
C11    C231    1.398   .     A
C11    C18     1.412   .     A
C11    O16     1.384   .     S
C12    C23     1.413   .     A
C12    O17     1.386   .     S
C12    C232    1.400   .     A
C13    C112    1.471   .     S
C13    C212    1.411   .     A
C13    C219    1.405   .     A
C14    O18     1.387   .     S
C14    C233    1.403   .     A
C14    C25     1.413   .     A
C15    C234    1.400   .     A
C15    O19     1.385   .     S
C15    C21     1.416   .     A
C16    C22     1.410   .     A
C16    C236    1.404   .     A
C16    O20     1.384   .     S
C17    C194    1.466   .     S
C17    C237    1.411   .     A
C18    C193    1.475   .     S
C18    C238    1.417   .     A
C19    C200    1.469   .     S
C19    C239    1.414   .     A
C20    C240    1.414   .     A
C20    C199    1.472   .     S
C21    C241    1.414   .     A
C21    C198    1.469   .     S
C22    C242    1.415   .     A
C22    C197    1.468   .     S
C23    C196    1.460   .     S
C23    C243    1.409   .     A
C24    C220    1.411   .     A
C24    C214    1.405   .     A
C25    C244    1.418   .     A
C25    C195    1.478   .     S
C26    C185    1.469   .     S
C26    C256    1.414   .     A
C26    C245    1.415   .     A
C27    C247    1.409   .     A
C27    C184    1.470   .     S
C28    C248    1.414   .     A
C28    C254    1.410   .     A
C28    C192    1.466   .     S
C29    C255    1.417   .     A
C29    C249    1.412   .     A
C29    C190    1.477   .     S
C30    C189    1.464   .     S
C30    C250    1.413   .     A
C31    C251    1.411   .     A
C31    C188    1.477   .     S
C32    C187    1.467   .     S
C32    C252    1.416   .     A
C33    C186    1.467   .     S
C33    C253    1.409   .     A
C34    H1      1.116   .     S
C34    H112    1.111   .     S
C34    O66     1.413   .     S
C34    C36     1.521   .     S
C35    C235    1.472   .     S
C35    C215    1.413   .     A
C35    C226    1.415   .     A
C36    H266    1.110   .     S
C36    H255    1.110   .     S
C36    H223    1.111   .     S
C37    O67     1.414   .     S
C37    C38     1.520   .     S
C37    H277    1.110   .     S
C37    H288    1.115   .     S
C38    H2      1.111   .     S
C38    H299    1.111   .     S
C38    H310    1.111   .     S
C39    O68     1.414   .     S
C39    H24     1.110   .     S
C39    C40     1.523   .     S
C39    H13     1.114   .     S
C40    H35     1.110   .     S
C40    H57     1.111   .     S
C40    H46     1.110   .     S
C41    O69     1.413   .     S
C41    H68     1.110   .     S
C41    H79     1.116   .     S
C41    C42     1.520   .     S
C42    H113    1.111   .     S
C42    H90     1.111   .     S
C42    H101    1.111   .     S
C43    C44     1.523   .     S
C43    H135    1.109   .     S
C43    H124    1.114   .     S
C43    O70     1.415   .     S
C44    H146    1.111   .     S
C44    H168    1.110   .     S
C44    H157    1.110   .     S
C45    O71     1.414   .     S
C45    H179    1.110   .     S
C45    C47     1.520   .     S
C45    H190    1.115   .     S
C46    C224    1.470   .     S
C46    C216    1.403   .     A
C46    C227    1.412   .     A
C47    H224    1.111   .     S
C47    H201    1.111   .     S
C47    H212    1.111   .     S
C48    H246    1.115   .     S
C48    H235    1.110   .     S
C48    O72     1.415   .     S
C48    C49     1.519   .     S
C49    H249    1.110   .     S
C49    H250    1.110   .     S
C49    H248    1.111   .     S
C50    H251    1.110   .     S
C50    H252    1.115   .     S
C50    C51     1.520   .     S
C50    O74     1.414   .     S
C51    H253    1.111   .     S
C51    H256    1.111   .     S
C51    H254    1.111   .     S
C52    O75     1.412   .     S
C52    H258    1.109   .     S
C52    H257    1.110   .     S
C52    C53     1.521   .     S
C53    H261    1.110   .     S
C53    H260    1.109   .     S
C53    H259    1.111   .     S
C54    O76     1.411   .     S
C54    C55     1.520   .     S
C54    H262    1.111   .     S
C54    H263    1.116   .     S
C55    H264    1.111   .     S
C55    H265    1.110   .     S
C55    H267    1.111   .     S
C56    H268    1.110   .     S
C56    H269    1.110   .     S
C56    O77     1.411   .     S
C56    C58     1.520   .     S
C57    C223    1.412   .     A
C57    C217    1.407   .     A
C57    C213    1.469   .     S
C58    H270    1.110   .     S
C58    H271    1.110   .     S
C58    H272    1.111   .     S
C59    H273    1.116   .     S
C59    C60     1.521   .     S
C59    O78     1.414   .     S
C59    H274    1.111   .     S
C60    H276    1.110   .     S
C60    H278    1.111   .     S
C60    H275    1.111   .     S
C61    O79     1.412   .     S
C61    C62     1.520   .     S
C61    H280    1.109   .     S
C61    H279    1.110   .     S
C62    H281    1.110   .     S
C62    H283    1.111   .     S
C62    H282    1.110   .     S
C63    C64     1.521   .     S
C63    O80     1.414   .     S
C63    H285    1.111   .     S
C63    H284    1.117   .     S
C64    H286    1.111   .     S
C64    H287    1.110   .     S
C64    H289    1.111   .     S
C65    O81     1.415   .     S
C65    H291    1.110   .     S
C65    H290    1.115   .     S
C65    C66     1.522   .     S
C66    H294    1.110   .     S
C66    H292    1.111   .     S
C66    H293    1.110   .     S
C67    O82     1.411   .     S
C67    H296    1.115   .     S
C67    H295    1.111   .     S
C67    C69     1.520   .     S
C68    C202    1.470   .     S
C68    C225    1.413   .     A
C68    C218    1.409   .     A
C69    H298    1.110   .     S
C69    H300    1.111   .     S
C69    H297    1.111   .     S
C70    O83     1.414   .     S
C70    C71     1.522   .     S
C70    H301    1.116   .     S
C70    H302    1.111   .     S
C71    H305    1.110   .     S
C71    H304    1.110   .     S
C71    H303    1.111   .     S
C72    C73     1.520   .     S
C72    O85     1.414   .     S
C72    H307    1.116   .     S
C72    H306    1.110   .     S
C73    H308    1.111   .     S
C73    H309    1.111   .     S
C73    H311    1.111   .     S
C74    O86     1.415   .     S
C74    H312    1.114   .     S
C74    H313    1.110   .     S
C74    C75     1.522   .     S
C75    H314    1.110   .     S
C75    H316    1.111   .     S
C75    H315    1.110   .     S
C76    C77     1.520   .     S
C76    H317    1.110   .     S
C76    O87     1.413   .     S
C76    H318    1.116   .     S
C77    H319    1.111   .     S
C77    H3      1.111   .     S
C77    H320    1.111   .     S
C78    O88     1.414   .     S
C78    C80     1.518   .     S
C78    H4      1.110   .     S
C78    H5      1.115   .     S
C79    C183    1.417   .     S
C79    C90     1.195   1_655 S
C80    H7      1.110   .     S
C80    H6      1.111   .     S
C80    H8      1.110   .     S
C81    H9      1.110   .     S
C81    H10     1.116   .     S
C81    O89     1.413   .     S
C81    C82     1.520   .     S
C82    H11     1.111   .     S
C82    H12     1.110   .     S
C82    H14     1.111   .     S
C83    H16     1.115   .     S
C83    O90     1.415   .     S
C83    C84     1.519   .     S
C83    H15     1.110   .     S
C84    H18     1.110   .     S
C84    H17     1.111   .     S
C84    H19     1.110   .     S
C85    H21     1.115   .     S
C85    H20     1.110   .     S
C85    C86     1.520   .     S
C85    O91     1.414   .     S
C86    H22     1.111   .     S
C86    H23     1.111   .     S
C86    H25     1.111   .     S
C87    O92     1.412   .     S
C87    H26     1.110   .     S
C87    C88     1.521   .     S
C87    H27     1.110   .     S
C88    H28     1.111   .     S
C88    H29     1.109   .     S
C88    H30     1.110   .     S
C89    H31     1.111   .     S
C89    C91     1.520   .     S
C89    H32     1.116   .     S
C89    O93     1.411   .     S
C90    C182    1.417   .     S
C90    C79     1.195   1_455 S
C91    H33     1.111   .     S
C91    H36     1.111   .     S
C91    H34     1.110   .     S
C92    H37     1.116   .     S
C92    O94     1.415   .     S
C92    H38     1.110   .     S
C92    C93     1.522   .     S
C93    H41     1.109   .     S
C93    H39     1.110   .     S
C93    H40     1.110   .     S
C94    H42     1.111   .     S
C94    C95     1.520   .     S
C94    O96     1.410   .     S
C94    H43     1.115   .     S
C95    H47     1.111   .     S
C95    H45     1.110   .     S
C95    H44     1.111   .     S
C96    H49     1.110   .     S
C96    H48     1.116   .     S
C96    O97     1.414   .     S
C96    C97     1.522   .     S
C97    H50     1.111   .     S
C97    H52     1.110   .     S
C97    H51     1.110   .     S
C98    H54     1.115   .     S
C98    C99     1.520   .     S
C98    H53     1.111   .     S
C98    O98     1.411   .     S
C99    H58     1.111   .     S
C99    H56     1.110   .     S
C99    H55     1.111   .     S
C100   H59     1.109   .     S
C100   H60     1.110   .     S
C100   C102    1.521   .     S
C100   O99     1.412   .     S
C101   C113    1.195   1_545 T
C101   C181    1.417   .     S
C102   H63     1.111   .     S
C102   H61     1.111   .     S
C102   H62     1.110   .     S
C103   H64     1.117   .     S
C103   C104    1.521   .     S
C103   O100    1.414   .     S
C103   H65     1.111   .     S
C104   H67     1.110   .     S
C104   H66     1.111   .     S
C104   H69     1.111   .     S
C105   H71     1.113   .     S
C105   H70     1.113   .     S
C105   C106    1.521   .     S
C105   O101    1.413   .     S
C106   H72     1.111   .     S
C106   H73     1.110   .     S
C106   H74     1.111   .     S
C107   H76     1.113   .     S
C107   O102    1.414   .     S
C107   H75     1.113   .     S
C107   C108    1.522   1_655 S
C108   H77     1.110   .     S
C108   H78     1.111   .     S
C108   H80     1.111   .     S
C108   C107    1.522   1_455 S
C109   H82     1.112   .     S
C109   O103    1.415   .     S
C109   H81     1.113   .     S
C109   C110    1.521   .     S
C110   H85     1.111   .     S
C110   H83     1.111   .     S
C110   H84     1.111   .     S
C111   H87     1.113   .     S
C111   O104    1.414   .     S
C111   H86     1.113   .     S
C111   C114    1.522   1_545 S
C112   C231    1.409   .     A
C112   C203    1.412   .     A
C113   C101    1.195   1_565 T
C113   C179    1.417   1_565 S
C114   H91     1.111   .     S
C114   H89     1.111   .     S
C114   H88     1.110   .     S
C114   C111    1.522   1_565 S
C115   O105    1.415   .     S
C115   C116    1.521   .     S
C115   H93     1.111   .     S
C115   H92     1.113   .     S
C116   H96     1.111   .     S
C116   H95     1.111   .     S
C116   H94     1.111   .     S
C117   H97     1.112   .     S
C117   O107    1.414   .     S
C117   H98     1.113   .     S
C117   C118    1.522   1_455 S
C118   H102    1.111   .     S
C118   H99     1.110   .     S
C118   H100    1.111   .     S
C118   C117    1.522   1_655 S
C119   O108    1.413   .     S
C119   H103    1.112   .     S
C119   C120    1.521   .     S
C119   H104    1.113   .     S
C120   H105    1.110   .     S
C120   H107    1.111   .     S
C120   H106    1.111   .     S
C121   H108    1.112   .     S
C121   H109    1.113   .     S
C121   O109    1.414   .     S
C121   C122    1.522   1_565 S
C122   H110    1.110   .     S
C122   H114    1.111   .     S
C122   H111    1.111   .     S
C122   C121    1.522   1_545 S
C123   H115    1.115   .     S
C123   H116    1.111   .     S
C123   C125    1.522   .     S
C123   O110    1.415   .     S
C124   C135    1.195   1_546 S
C124   C178    1.417   .     S
C125   H119    1.111   .     S
C125   H117    1.110   .     S
C125   H118    1.111   .     S
C126   C127    1.521   .     S
C126   H121    1.112   .     S
C126   H120    1.116   .     S
C126   O111    1.414   .     S
C127   H123    1.110   .     S
C127   H122    1.111   .     S
C127   H125    1.110   1_455 S
C128   H127    1.111   .     S
C128   C129    1.521   .     S
C128   H126    1.115   .     S
C128   O112    1.415   .     S
C129   H130    1.111   .     S
C129   H129    1.111   .     S
C129   H128    1.111   .     S
C130   H132    1.113   .     S
C130   C131    1.521   .     S
C130   O113    1.414   .     S
C130   H131    1.116   .     S
C131   H133    1.111   .     S
C131   H136    1.111   .     S
C131   H134    1.111   .     S
C132   H137    1.115   .     S
C132   O114    1.415   .     S
C132   C133    1.521   .     S
C132   H138    1.111   .     S
C133   H141    1.111   .     S
C133   H140    1.111   .     S
C133   H139    1.110   .     S
C134   H142    1.117   .     S
C134   H143    1.113   .     S
C134   C136    1.518   .     S
C134   O115    1.414   .     S
C135   C177    1.417   .     S
C135   C124    1.195   1_564 S
C136   H144    1.111   .     S
C136   H145    1.111   .     S
C136   H147    1.110   .     S
C137   H149    1.111   .     S
C137   H148    1.114   .     S
C137   C138    1.522   .     S
C137   O116    1.415   .     S
C138   H151    1.111   .     S
C138   H150    1.111   .     S
C138   H152    1.111   .     S
C139   C140    1.521   .     S
C139   H154    1.112   .     S
C139   O3      1.414   .     S
C139   H153    1.115   .     S
C140   H155    1.111   .     S
C140   H156    1.110   .     S
C140   H158    1.110   1_565 S
C141   O4      1.413   .     S
C141   H160    1.113   .     S
C141   H159    1.113   .     S
C141   C142    1.521   .     S
C142   H162    1.111   .     S
C142   H163    1.111   .     S
C142   H161    1.111   .     S
C143   O5      1.414   .     S
C143   C144    1.522   .     S
C143   H165    1.113   .     S
C143   H164    1.113   .     S
C144   H166    1.111   .     S
C144   H169    1.111   .     S
C144   H167    1.110   .     S
C145   O6      1.416   .     S
C145   C147    1.521   .     S
C145   H171    1.111   .     S
C145   H170    1.114   .     S
C146   C176    1.417   .     S
C146   C157    1.195   1_556 S
C147   H173    1.111   .     S
C147   H174    1.111   .     S
C147   H172    1.110   .     S
C148   H175    1.113   .     S
C148   O7      1.414   .     S
C148   H176    1.113   .     S
C148   C149    1.522   .     S
C149   H177    1.110   .     S
C149   H178    1.111   .     S
C149   H180    1.111   .     S
C150   H182    1.113   .     S
C150   C151    1.521   .     S
C150   O8      1.413   .     S
C150   H181    1.111   .     S
C151   H183    1.110   .     S
C151   H185    1.111   .     S
C151   H184    1.111   .     S
C152   C153    1.522   .     S
C152   H187    1.113   .     S
C152   O9      1.414   .     S
C152   H186    1.113   .     S
C153   H188    1.111   .     S
C153   H191    1.111   .     S
C153   H189    1.110   .     S
C154   H192    1.112   .     S
C154   C155    1.521   .     S
C154   H193    1.113   .     S
C154   O10     1.413   .     S
C155   H195    1.111   .     S
C155   H196    1.111   .     S
C155   H194    1.110   .     S
C156   H198    1.113   .     S
C156   C158    1.522   .     S
C156   O11     1.414   .     S
C156   H197    1.112   .     S
C157   C168    1.417   .     S
C157   C146    1.195   1_554 S
C158   H199    1.110   .     S
C158   H202    1.111   .     S
C158   H200    1.111   .     S
C159   H204    1.111   .     S
C159   O12     1.415   .     S
C159   H203    1.115   .     S
C159   C160    1.521   .     S
C160   H206    1.111   .     S
C160   H205    1.110   .     S
C160   H207    1.111   .     S
C161   O14     1.414   .     S
C161   H209    1.112   .     S
C161   H208    1.116   .     S
C161   C162    1.521   .     S
C162   H211    1.110   .     S
C162   H210    1.111   .     S
C162   H213    1.110   .     S
C163   H215    1.111   .     S
C163   O15     1.415   .     S
C163   H214    1.114   .     S
C163   C164    1.521   .     S
C164   H218    1.111   .     S
C164   H216    1.111   .     S
C164   H217    1.111   .     S
C165   H220    1.113   .     S
C165   O16     1.414   .     S
C165   H219    1.116   .     S
C165   C166    1.521   .     S
C166   H221    1.111   .     S
C166   H225    1.111   .     S
C166   H222    1.111   .     S
C167   H227    1.111   .     S
C167   C169    1.521   .     S
C167   O17     1.415   .     S
C167   H226    1.114   .     S
C168   O62     1.274   1_655 S
C168   O106    1.274   1_655 S
C169   H228    1.110   .     S
C169   H230    1.111   .     S
C169   H229    1.111   .     S
C170   C171    1.522   .     S
C170   H231    1.117   .     S
C170   H232    1.111   .     S
C170   O18     1.420   .     S
C171   H233    1.109   .     S
C171   H236    1.110   .     S
C171   H234    1.110   .     S
C172   H237    1.115   .     S
C172   O19     1.416   .     S
C172   H238    1.111   .     S
C172   C173    1.522   .     S
C173   H241    1.111   .     S
C173   H240    1.111   .     S
C173   H239    1.111   .     S
C174   H242    1.115   .     S
C174   H243    1.113   .     S
C174   C175    1.521   .     S
C174   O20     1.413   .     S
C175   H247    1.111   .     S
C175   H245    1.110   .     S
C175   H244    1.111   .     S
C176   O2      1.274   1_655 S
C176   O73     1.274   1_655 S
C177   O13     1.276   1_565 S
C177   O84     1.275   1_565 S
C178   O21     1.276   .     A
C178   O95     1.275   .     A
C179   O22     1.274   1_545 A
C179   C113    1.417   1_545 S
C179   O26     1.274   .     S
C180   C228    1.412   .     A
C180   C204    1.409   .     A
C181   O27     1.274   1_545 A
C181   O23     1.274   .     S
C182   O28     1.276   .     A
C182   O24     1.275   1_455 S
C183   O30     1.276   .     A
C183   O25     1.275   1_655 S
C184   O64     1.278   .     A
C184   O31     1.275   .     A
C185   O65     1.277   .     A
C185   O32     1.275   .     A
C186   O33     1.273   .     A
C186   O61     1.276   .     A
C187   O34     1.273   .     A
C187   O63     1.275   .     A
C188   O59     1.276   .     A
C188   O35     1.278   .     A
C189   O60     1.275   .     A
C189   O36     1.272   .     A
C190   O57     1.279   .     A
C190   O37     1.277   .     A
C191   C205    1.414   .     A
C191   C229    1.409   .     A
C191   C246    1.473   .     S
C192   O58     1.274   .     A
C192   O38     1.276   .     A
C193   O39     1.278   .     A
C193   O55     1.276   .     A
C194   O56     1.276   .     A
C194   O41     1.274   .     A
C195   O53     1.277   .     A
C195   O42     1.278   .     A
C196   O43     1.274   .     A
C196   O54     1.271   .     A
C197   O50     1.275   .     A
C197   O44     1.275   .     A
C198   O52     1.273   .     A
C198   O45     1.276   .     A
C199   O48     1.275   .     A
C199   O46     1.278   .     A
C200   O47     1.277   .     A
C200   O49     1.275   .     A
C201   O66     1.386   .     S
C201   C237    1.406   .     A
C202   C234    1.411   .     A
C202   C206    1.409   .     A
C203   C238    1.401   .     A
C203   O67     1.387   .     S
C204   O68     1.386   .     S
C204   C239    1.399   .     A
C205   O69     1.387   .     S
C205   C240    1.401   .     A
C206   C241    1.398   .     A
C206   O70     1.386   .     S
C207   C242    1.400   .     A
C207   O71     1.387   .     S
C207   C213    1.412   .     A
C208   O72     1.388   .     S
C208   C243    1.397   .     A
C208   C224    1.414   .     A
C209   C244    1.400   .     A
C209   C235    1.412   .     A
C209   O74     1.387   .     S
C210   C246    1.413   .     A
C210   C245    1.400   .     A
C210   O75     1.387   .     S
C211   C247    1.400   .     A
C211   O76     1.385   .     S
C212   C248    1.401   .     A
C212   O77     1.385   .     S
C213   C236    1.405   .     A
C214   C249    1.403   .     A
C214   O78     1.386   .     S
C215   O79     1.386   .     S
C215   C250    1.400   .     A
C216   O80     1.385   .     S
C216   C251    1.401   .     A
C217   C252    1.401   .     A
C217   O81     1.386   .     S
C218   C253    1.399   .     A
C218   O82     1.385   .     S
C219   C254    1.402   .     A
C219   O83     1.386   .     S
C220   C255    1.401   .     A
C220   O85     1.387   .     S
C221   O86     1.386   .     S
C221   C256    1.399   .     A
C221   C246    1.409   .     A
C222   O87     1.387   .     S
C223   O88     1.387   .     S
C224   C232    1.408   .     A
C225   O89     1.386   .     S
C226   O90     1.388   .     S
C227   O91     1.387   .     S
C228   O92     1.387   .     S
C229   O93     1.385   .     S
C230   O94     1.384   .     S
C231   O96     1.385   .     S
C232   O97     1.385   .     S
C233   O98     1.385   .     S
C233   C235    1.408   .     A
C234   O99     1.387   .     S
C236   O100    1.386   .     S
C237   O101    1.384   .     S
C238   O102    1.385   .     S
C239   O103    1.385   .     S
C240   O104    1.385   .     S
C241   O105    1.385   .     S
C242   O107    1.386   .     S
C243   O108    1.385   .     S
C244   O109    1.385   .     S
C245   O110    1.385   .     S
C247   O111    1.385   .     S
C248   O112    1.385   .     S
C249   O113    1.384   .     S
C250   O114    1.385   .     S
C251   O115    1.383   .     S
C252   O116    1.385   .     S
C253   O3      1.385   .     S
C254   O4      1.385   .     S
C255   O5      1.385   .     S
C256   O6      1.385   .     S
H125   C127    1.110   1_655 S
H158   C140    1.110   1_545 S
O1     Zn12    1.935   1_455 S
O1     Zn1     1.937   .     S
O1     Zn4     1.935   .     S
O1     Zn8     1.935   .     S
O2     C176    1.274   1_455 S
O2     Zn3     1.907   .     S
O13    Zn6     1.908   .     S
O13    C177    1.276   1_545 S
O21    Zn5     1.908   .     S
O22    Zn15    1.907   .     S
O22    C179    1.274   1_565 A
O23    Zn14    1.907   .     S
O24    Zn9     1.907   .     S
O24    C182    1.275   1_655 S
O25    Zn1     1.907   .     S
O25    C183    1.275   1_455 S
O26    Zn11    1.907   .     S
O27    Zn10    1.907   .     S
O27    C181    1.274   1_565 A
O28    Zn13    1.908   .     S
O29    Zn13    1.935   .     S
O29    Zn3     1.935   .     S
O29    Zn7     1.935   .     S
O29    Zn9     1.937   1_455 S
O30    Zn12    1.908   .     S
O31    Zn4     1.934   .     S
O32    Zn3     1.934   1_655 S
O33    Zn6     1.933   1_565 S
O34    Zn5     1.933   .     S
O35    Zn8     1.933   1_655 S
O36    Zn7     1.933   .     S
O37    Zn2     1.933   .     S
O38    Zn16    1.933   1_565 S
O39    Zn7     1.934   1_655 S
O40    Zn2     1.937   .     S
O40    Zn6     1.935   .     S
O40    Zn14    1.935   .     S
O40    Zn10    1.935   1_545 S
O41    Zn8     1.934   .     S
O42    Zn5     1.933   1_565 S
O43    Zn6     1.933   .     S
O44    Zn3     1.933   .     S
O45    Zn4     1.933   1_655 S
O46    Zn16    1.933   .     S
O47    Zn2     1.933   1_565 S
O48    Zn11    1.934   .     S
O49    Zn10    1.934   .     S
O50    Zn13    1.933   .     S
O51    Zn16    1.937   .     S
O51    Zn11    1.935   .     S
O51    Zn5     1.935   .     S
O51    Zn15    1.935   1_545 S
O52    Zn12    1.933   .     S
O53    Zn15    1.933   .     S
O54    Zn14    1.933   .     S
O55    Zn9     1.933   .     S
O56    Zn1     1.933   .     S
O57    Zn14    1.934   .     S
O58    Zn15    1.934   .     S
O59    Zn12    1.933   .     S
O60    Zn13    1.933   .     S
O61    Zn10    1.933   .     S
O62    Zn8     1.907   .     S
O62    C168    1.274   1_455 S
O63    Zn11    1.933   .     S
O64    Zn1     1.933   .     S
O65    Zn9     1.933   .     S
O73    C176    1.274   1_455 S
O73    Zn7     1.907   .     S
O84    Zn2     1.907   .     S
O84    C177    1.275   1_545 S
O95    Zn16    1.907   .     S
O106   Zn4     1.907   .     S
O106   C168    1.274   1_455 S
Zn2    O47     1.933   1_545 S
Zn3    O32     1.934   1_455 S
Zn4    O45     1.933   1_455 S
Zn5    O42     1.933   1_545 S
Zn6    O33     1.933   1_545 S
Zn7    O39     1.934   1_455 S
Zn8    O35     1.933   1_455 S
Zn9    O29     1.937   1_655 S
Zn10   O40     1.935   1_565 S
Zn12   O1      1.935   1_655 S
Zn15   O51     1.935   1_565 S
Zn16   O38     1.933   1_545 S
