data_str_m2_o2_o10_pcu_sym.193
_audit_creation_date              2020-01-03
_audit_creation_method            'Materials Studio'
_symmetry_space_group_name_H-M    'P1'
_symmetry_Int_Tables_number       1
_symmetry_cell_setting            triclinic
loop_
_symmetry_equiv_pos_as_xyz
  x,y,z
_cell_length_a                    26.5773
_cell_length_b                    30.2658
_cell_length_c                    27.8973
_cell_angle_alpha                 88.1397
_cell_angle_beta                  97.7743
_cell_angle_gamma                 92.7234
loop_
_atom_site_label
_atom_site_type_symbol
_atom_site_fract_x
_atom_site_fract_y
_atom_site_fract_z
_atom_site_U_iso_or_equiv
_atom_site_adp_type
_atom_site_occupancy
C1     C     0.16669   0.16458   0.25087   0.00000  Uiso   1.00
C2     C     0.16735   0.33502   0.24927   0.00000  Uiso   1.00
C3     C     0.21163   0.26451   0.05965   0.00000  Uiso   1.00
C4     C     0.14625   0.21216   0.44457   0.00000  Uiso   1.00
C5     C     0.20786   0.26716   0.10978   0.00000  Uiso   1.00
C6     C     0.14470   0.21491   0.39328   0.00000  Uiso   1.00
C7     C     0.12568   0.23286   0.09833   0.00000  Uiso   1.00
C8     C     0.18987   0.28418   0.39871   0.00000  Uiso   1.00
C9     C     0.12364   0.23986   0.04799   0.00000  Uiso   1.00
C10    C     0.18298   0.28632   0.44766   0.00000  Uiso   1.00
C11    C     0.16744   0.25150   0.02727   0.00000  Uiso   1.00
C12    C     0.16528   0.24951   0.47266   0.00000  Uiso   1.00
C13    C     0.06842   0.25071   0.23794   0.00000  Uiso   1.00
C14    C     0.26523   0.24893   0.26212   0.00000  Uiso   1.00
C15    C     0.01489   0.25887   0.23294   0.00000  Uiso   1.00
C16    C     0.31956   0.24139   0.26723   0.00000  Uiso   1.00
C17    C     0.17995   0.04135   0.28677   0.00000  Uiso   1.00
C18    C     0.19823   0.45612   0.22161   0.00000  Uiso   1.00
C19    C     0.18179   0.08770   0.29229   0.00000  Uiso   1.00
C20    C     0.20351   0.40994   0.22606   0.00000  Uiso   1.00
C21    C     0.16370   0.11539   0.25151   0.00000  Uiso   1.00
C22    C     0.16595   0.38335   0.24650   0.00000  Uiso   1.00
C23    C     0.14144   0.09538   0.20840   0.00000  Uiso   1.00
C24    C     0.12479   0.40287   0.26252   0.00000  Uiso   1.00
C25    C     0.13726   0.04972   0.20468   0.00000  Uiso   1.00
C26    C     0.11995   0.44831   0.25806   0.00000  Uiso   1.00
C27    C     0.15669   0.02282   0.24349   0.00000  Uiso   1.00
C28    C     0.15655   0.47493   0.23799   0.00000  Uiso   1.00
Cu29   Cu    0.16667   0.25000   0.29822   0.00000  Uiso   1.00
Cu30   Cu    0.16667   0.25001   0.20179   0.00000  Uiso   1.00
H31    H     0.12660   0.11519   0.17711   0.00000  Uiso   1.00
H32    H     0.09632   0.38281   0.27864   0.00000  Uiso   1.00
H33    H     0.12003   0.03530   0.17101   0.00000  Uiso   1.00
H34    H     0.08869   0.46304   0.27199   0.00000  Uiso   1.00
H35    H     0.23876   0.28163   0.13351   0.00000  Uiso   1.00
H36    H     0.12747   0.18802   0.37145   0.00000  Uiso   1.00
H37    H     0.08836   0.23336   0.02471   0.00000  Uiso   1.00
H38    H     0.19437   0.31630   0.46705   0.00000  Uiso   1.00
N39    N     0.16667   0.25001   0.12935   0.00000  Uiso   1.00
N40    N     0.16667   0.24999   0.37066   0.00000  Uiso   1.00
O41    O     0.16667   0.18573   0.29072   0.00000  Uiso   1.00
O42    O     0.16666   0.31428   0.20929   0.00000  Uiso   1.00
O43    O     0.16667   0.18573   0.20928   0.00000  Uiso   1.00
O44    O     0.16666   0.31427   0.29072   0.00000  Uiso   1.00
O45    O     0.09161   0.25000   0.28132   0.00000  Uiso   1.00
O46    O     0.24172   0.25001   0.21868   0.00000  Uiso   1.00
O47    O     0.09161   0.25000   0.19989   0.00000  Uiso   1.00
O48    O     0.24172   0.25000   0.30012   0.00000  Uiso   1.00
C49    C     0.32859   0.28946   0.19048   0.00000  Uiso   1.00
C50    C     0.03259   0.32689   0.17766   0.00000  Uiso   1.00
H51    H     0.05427   0.34093   0.21080   0.00000  Uiso   1.00
H52    H     0.05933   0.31507   0.15411   0.00000  Uiso   1.00
H53    H     0.01128   0.35373   0.15713   0.00000  Uiso   1.00
H54    H     0.31838   0.26873   0.15832   0.00000  Uiso   1.00
H55    H     0.29541   0.30659   0.19864   0.00000  Uiso   1.00
C56    C     0.00831   0.20895   0.30760   0.00000  Uiso   1.00
C57    C     0.30377   0.17590   0.32705   0.00000  Uiso   1.00
H58    H     0.28164   0.19212   0.35197   0.00000  Uiso   1.00
H59    H     0.27836   0.16065   0.29657   0.00000  Uiso   1.00
H60    H     0.32462   0.14917   0.34826   0.00000  Uiso   1.00
H61    H     0.03565   0.18776   0.29336   0.00000  Uiso   1.00
H62    H     0.02862   0.22795   0.33836   0.00000  Uiso   1.00
Cl63   Cl    0.20915   0.00555   0.33315   0.00000  Uiso   1.00
Cl64   Cl    0.24547   0.49158   0.19949   0.00000  Uiso   1.00
C65    C     0.20237   0.10484   0.34198   0.00000  Uiso   1.00
C66    C     0.16404   0.09493   0.37734   0.00000  Uiso   1.00
H67    H     0.18049   0.10694   0.41331   0.00000  Uiso   1.00
H68    H     0.12813   0.11151   0.36465   0.00000  Uiso   1.00
H69    H     0.15504   0.05899   0.38129   0.00000  Uiso   1.00
H70    H     0.23876   0.08934   0.35568   0.00000  Uiso   1.00
H71    H     0.21216   0.14035   0.34263   0.00000  Uiso   1.00
C72    C     0.25134   0.38996   0.21406   0.00000  Uiso   1.00
C73    C     0.28767   0.38098   0.26032   0.00000  Uiso   1.00
H74    H     0.29440   0.41128   0.28212   0.00000  Uiso   1.00
H75    H     0.27189   0.35391   0.28233   0.00000  Uiso   1.00
H76    H     0.32476   0.37114   0.25126   0.00000  Uiso   1.00
H77    H     0.24147   0.35941   0.19367   0.00000  Uiso   1.00
H78    H     0.27160   0.41168   0.18955   0.00000  Uiso   1.00
C79    C     0.26351   0.27389   0.04362   0.00000  Uiso   1.00
C80    C     0.28454   0.23252   0.02516   0.00000  Uiso   1.00
H81    H     0.28514   0.20534   0.05294   0.00000  Uiso   1.00
H82    H     0.26146   0.22144   0.49123   0.00000  Uiso   1.00
H83    H     0.32399   0.24003   0.01744   0.00000  Uiso   1.00
H84    H     0.26271   0.30081   0.01603   0.00000  Uiso   1.00
H85    H     0.29128   0.28587   0.07433   0.00000  Uiso   1.00
C86    C     0.12876   0.16883   0.46720   0.00000  Uiso   1.00
C87    C     0.17174   0.14721   0.00058   0.00000  Uiso   1.00
H88    H     0.20681   0.14734   0.48301   0.00000  Uiso   1.00
H89    H     0.18048   0.16463   0.03523   0.00000  Uiso   1.00
H90    H     0.16004   0.11244   0.00904   0.00000  Uiso   1.00
H91    H     0.09612   0.17325   0.48680   0.00000  Uiso   1.00
H92    H     0.11392   0.14511   0.43871   0.00000  Uiso   1.00
C93    C     0.08251   0.20475   0.11584   0.00000  Uiso   1.00
C94    C     0.06709   0.16342   0.08608   0.00000  Uiso   1.00
H95    H     0.04514   0.17217   0.05067   0.00000  Uiso   1.00
H96    H     0.10117   0.14536   0.08055   0.00000  Uiso   1.00
H97    H     0.04214   0.14094   0.10572   0.00000  Uiso   1.00
H98    H     0.09396   0.19133   0.15244   0.00000  Uiso   1.00
H99    H     0.04874   0.22510   0.11550   0.00000  Uiso   1.00
C100   C     0.22541   0.31960   0.38012   0.00000  Uiso   1.00
C101   C     0.27600   0.32581   0.41324   0.00000  Uiso   1.00
H102   H     0.27104   0.34447   0.44571   0.00000  Uiso   1.00
H103   H     0.29216   0.29325   0.42435   0.00000  Uiso   1.00
H104   H     0.30363   0.34536   0.39364   0.00000  Uiso   1.00
H105   H     0.23671   0.31090   0.34560   0.00000  Uiso   1.00
H106   H     0.20628   0.35162   0.37548   0.00000  Uiso   1.00
C107   C     0.50002   0.16458   0.25087   0.00000  Uiso   1.00
C108   C     0.50068   0.33502   0.24927   0.00000  Uiso   1.00
C109   C     0.54496   0.26451   0.05965   0.00000  Uiso   1.00
C110   C     0.47959   0.21216   0.44457   0.00000  Uiso   1.00
C111   C     0.54120   0.26716   0.10978   0.00000  Uiso   1.00
C112   C     0.47804   0.21491   0.39328   0.00000  Uiso   1.00
C113   C     0.45901   0.23286   0.09833   0.00000  Uiso   1.00
C114   C     0.52320   0.28418   0.39871   0.00000  Uiso   1.00
C115   C     0.45698   0.23986   0.04799   0.00000  Uiso   1.00
C116   C     0.51631   0.28632   0.44766   0.00000  Uiso   1.00
C117   C     0.50077   0.25150   0.02727   0.00000  Uiso   1.00
C118   C     0.49861   0.24951   0.47266   0.00000  Uiso   1.00
C119   C     0.40176   0.25071   0.23794   0.00000  Uiso   1.00
C120   C     0.59856   0.24893   0.26212   0.00000  Uiso   1.00
C121   C     0.34822   0.25887   0.23294   0.00000  Uiso   1.00
C122   C     0.65290   0.24139   0.26723   0.00000  Uiso   1.00
C123   C     0.51329   0.04135   0.28677   0.00000  Uiso   1.00
C124   C     0.53156   0.45612   0.22161   0.00000  Uiso   1.00
C125   C     0.51513   0.08770   0.29229   0.00000  Uiso   1.00
C126   C     0.53685   0.40994   0.22606   0.00000  Uiso   1.00
C127   C     0.49704   0.11539   0.25151   0.00000  Uiso   1.00
C128   C     0.49928   0.38335   0.24650   0.00000  Uiso   1.00
C129   C     0.47478   0.09538   0.20840   0.00000  Uiso   1.00
C130   C     0.45813   0.40287   0.26252   0.00000  Uiso   1.00
C131   C     0.47059   0.04972   0.20468   0.00000  Uiso   1.00
C132   C     0.45329   0.44831   0.25806   0.00000  Uiso   1.00
C133   C     0.49003   0.02282   0.24349   0.00000  Uiso   1.00
C134   C     0.48988   0.47493   0.23799   0.00000  Uiso   1.00
Cu135  Cu    0.50000   0.25000   0.29822   0.00000  Uiso   1.00
Cu136  Cu    0.50000   0.25001   0.20179   0.00000  Uiso   1.00
H137   H     0.45994   0.11519   0.17711   0.00000  Uiso   1.00
H138   H     0.42965   0.38281   0.27864   0.00000  Uiso   1.00
H139   H     0.45337   0.03530   0.17101   0.00000  Uiso   1.00
H140   H     0.42202   0.46304   0.27199   0.00000  Uiso   1.00
H141   H     0.57209   0.28163   0.13351   0.00000  Uiso   1.00
H142   H     0.46080   0.18802   0.37145   0.00000  Uiso   1.00
H143   H     0.42170   0.23336   0.02471   0.00000  Uiso   1.00
H144   H     0.52771   0.31630   0.46705   0.00000  Uiso   1.00
N145   N     0.50000   0.25001   0.12935   0.00000  Uiso   1.00
N146   N     0.50000   0.24999   0.37066   0.00000  Uiso   1.00
O147   O     0.50000   0.18573   0.29072   0.00000  Uiso   1.00
O148   O     0.50000   0.31428   0.20929   0.00000  Uiso   1.00
O149   O     0.50000   0.18573   0.20928   0.00000  Uiso   1.00
O150   O     0.50000   0.31427   0.29072   0.00000  Uiso   1.00
O151   O     0.42495   0.25000   0.28132   0.00000  Uiso   1.00
O152   O     0.57505   0.25001   0.21868   0.00000  Uiso   1.00
O153   O     0.42495   0.25000   0.19989   0.00000  Uiso   1.00
O154   O     0.57505   0.25000   0.30012   0.00000  Uiso   1.00
C155   C     0.66192   0.28946   0.19048   0.00000  Uiso   1.00
C156   C     0.36592   0.32689   0.17766   0.00000  Uiso   1.00
H157   H     0.38760   0.34093   0.21080   0.00000  Uiso   1.00
H158   H     0.39267   0.31507   0.15411   0.00000  Uiso   1.00
H159   H     0.34461   0.35373   0.15713   0.00000  Uiso   1.00
H160   H     0.65171   0.26873   0.15832   0.00000  Uiso   1.00
H161   H     0.62875   0.30659   0.19864   0.00000  Uiso   1.00
C162   C     0.34164   0.20895   0.30760   0.00000  Uiso   1.00
C163   C     0.63710   0.17590   0.32705   0.00000  Uiso   1.00
H164   H     0.61498   0.19212   0.35197   0.00000  Uiso   1.00
H165   H     0.61170   0.16065   0.29657   0.00000  Uiso   1.00
H166   H     0.65795   0.14917   0.34826   0.00000  Uiso   1.00
H167   H     0.36898   0.18776   0.29336   0.00000  Uiso   1.00
H168   H     0.36195   0.22795   0.33836   0.00000  Uiso   1.00
Cl169  Cl    0.54249   0.00555   0.33315   0.00000  Uiso   1.00
Cl170  Cl    0.57880   0.49158   0.19949   0.00000  Uiso   1.00
C171   C     0.53570   0.10484   0.34198   0.00000  Uiso   1.00
C172   C     0.49737   0.09493   0.37734   0.00000  Uiso   1.00
H173   H     0.51382   0.10694   0.41331   0.00000  Uiso   1.00
H174   H     0.46147   0.11151   0.36465   0.00000  Uiso   1.00
H175   H     0.48837   0.05899   0.38129   0.00000  Uiso   1.00
H176   H     0.57209   0.08934   0.35568   0.00000  Uiso   1.00
H177   H     0.54549   0.14035   0.34263   0.00000  Uiso   1.00
C178   C     0.58467   0.38996   0.21406   0.00000  Uiso   1.00
C179   C     0.62100   0.38098   0.26032   0.00000  Uiso   1.00
H180   H     0.62773   0.41128   0.28212   0.00000  Uiso   1.00
H181   H     0.60522   0.35391   0.28233   0.00000  Uiso   1.00
H182   H     0.65809   0.37114   0.25126   0.00000  Uiso   1.00
H183   H     0.57481   0.35941   0.19367   0.00000  Uiso   1.00
H184   H     0.60493   0.41168   0.18955   0.00000  Uiso   1.00
C185   C     0.59685   0.27389   0.04362   0.00000  Uiso   1.00
C186   C     0.61788   0.23252   0.02516   0.00000  Uiso   1.00
H187   H     0.61848   0.20534   0.05294   0.00000  Uiso   1.00
H188   H     0.59480   0.22144   0.49123   0.00000  Uiso   1.00
H189   H     0.65732   0.24003   0.01744   0.00000  Uiso   1.00
H190   H     0.59604   0.30081   0.01603   0.00000  Uiso   1.00
H191   H     0.62461   0.28587   0.07433   0.00000  Uiso   1.00
C192   C     0.46209   0.16883   0.46720   0.00000  Uiso   1.00
C193   C     0.50507   0.14721   0.00058   0.00000  Uiso   1.00
H194   H     0.54015   0.14734   0.48301   0.00000  Uiso   1.00
H195   H     0.51381   0.16463   0.03523   0.00000  Uiso   1.00
H196   H     0.49337   0.11244   0.00904   0.00000  Uiso   1.00
H197   H     0.42945   0.17325   0.48680   0.00000  Uiso   1.00
H198   H     0.44725   0.14511   0.43871   0.00000  Uiso   1.00
C199   C     0.41585   0.20475   0.11584   0.00000  Uiso   1.00
C200   C     0.40043   0.16342   0.08608   0.00000  Uiso   1.00
H201   H     0.37848   0.17217   0.05067   0.00000  Uiso   1.00
H202   H     0.43451   0.14536   0.08055   0.00000  Uiso   1.00
H203   H     0.37548   0.14094   0.10572   0.00000  Uiso   1.00
H204   H     0.42730   0.19133   0.15244   0.00000  Uiso   1.00
H205   H     0.38207   0.22510   0.11550   0.00000  Uiso   1.00
C206   C     0.55874   0.31960   0.38012   0.00000  Uiso   1.00
C207   C     0.60934   0.32581   0.41324   0.00000  Uiso   1.00
H208   H     0.60437   0.34447   0.44571   0.00000  Uiso   1.00
H209   H     0.62550   0.29325   0.42435   0.00000  Uiso   1.00
H210   H     0.63696   0.34536   0.39364   0.00000  Uiso   1.00
H211   H     0.57004   0.31090   0.34560   0.00000  Uiso   1.00
H212   H     0.53962   0.35162   0.37548   0.00000  Uiso   1.00
C213   C     0.83335   0.16458   0.25087   0.00000  Uiso   1.00
C214   C     0.83402   0.33502   0.24927   0.00000  Uiso   1.00
C215   C     0.87830   0.26451   0.05965   0.00000  Uiso   1.00
C216   C     0.81292   0.21216   0.44457   0.00000  Uiso   1.00
C217   C     0.87453   0.26716   0.10978   0.00000  Uiso   1.00
C218   C     0.81137   0.21491   0.39328   0.00000  Uiso   1.00
C219   C     0.79235   0.23286   0.09833   0.00000  Uiso   1.00
C220   C     0.85654   0.28418   0.39871   0.00000  Uiso   1.00
C221   C     0.79031   0.23986   0.04799   0.00000  Uiso   1.00
C222   C     0.84965   0.28632   0.44766   0.00000  Uiso   1.00
C223   C     0.83410   0.25150   0.02727   0.00000  Uiso   1.00
C224   C     0.83194   0.24951   0.47266   0.00000  Uiso   1.00
C225   C     0.73509   0.25071   0.23794   0.00000  Uiso   1.00
C226   C     0.93190   0.24893   0.26212   0.00000  Uiso   1.00
C227   C     0.68156   0.25887   0.23294   0.00000  Uiso   1.00
C228   C     0.98623   0.24139   0.26723   0.00000  Uiso   1.00
C229   C     0.84662   0.04135   0.28677   0.00000  Uiso   1.00
C230   C     0.86489   0.45612   0.22161   0.00000  Uiso   1.00
C231   C     0.84846   0.08770   0.29229   0.00000  Uiso   1.00
C232   C     0.87018   0.40994   0.22606   0.00000  Uiso   1.00
C233   C     0.83037   0.11539   0.25151   0.00000  Uiso   1.00
C234   C     0.83261   0.38335   0.24650   0.00000  Uiso   1.00
C235   C     0.80811   0.09538   0.20840   0.00000  Uiso   1.00
C236   C     0.79146   0.40287   0.26252   0.00000  Uiso   1.00
C237   C     0.80393   0.04972   0.20468   0.00000  Uiso   1.00
C238   C     0.78662   0.44831   0.25806   0.00000  Uiso   1.00
C239   C     0.82336   0.02282   0.24349   0.00000  Uiso   1.00
C240   C     0.82321   0.47493   0.23799   0.00000  Uiso   1.00
Cu241  Cu    0.83333   0.25000   0.29822   0.00000  Uiso   1.00
Cu242  Cu    0.83333   0.25001   0.20179   0.00000  Uiso   1.00
H243   H     0.79327   0.11519   0.17711   0.00000  Uiso   1.00
H244   H     0.76299   0.38281   0.27864   0.00000  Uiso   1.00
H245   H     0.78670   0.03530   0.17101   0.00000  Uiso   1.00
H246   H     0.75535   0.46304   0.27199   0.00000  Uiso   1.00
H247   H     0.90543   0.28163   0.13351   0.00000  Uiso   1.00
H248   H     0.79413   0.18802   0.37145   0.00000  Uiso   1.00
H249   H     0.75503   0.23336   0.02471   0.00000  Uiso   1.00
H250   H     0.86104   0.31630   0.46705   0.00000  Uiso   1.00
N251   N     0.83333   0.25001   0.12935   0.00000  Uiso   1.00
N252   N     0.83333   0.24999   0.37066   0.00000  Uiso   1.00
O253   O     0.83334   0.18573   0.29072   0.00000  Uiso   1.00
O254   O     0.83333   0.31428   0.20929   0.00000  Uiso   1.00
O255   O     0.83334   0.18573   0.20928   0.00000  Uiso   1.00
O256   O     0.83333   0.31427   0.29072   0.00000  Uiso   1.00
O257   O     0.75828   0.25000   0.28132   0.00000  Uiso   1.00
O258   O     0.90839   0.25001   0.21868   0.00000  Uiso   1.00
O259   O     0.75828   0.25000   0.19989   0.00000  Uiso   1.00
O260   O     0.90839   0.25000   0.30012   0.00000  Uiso   1.00
C261   C     0.99525   0.28946   0.19048   0.00000  Uiso   1.00
C262   C     0.69925   0.32689   0.17766   0.00000  Uiso   1.00
H263   H     0.72093   0.34093   0.21080   0.00000  Uiso   1.00
H264   H     0.72600   0.31507   0.15411   0.00000  Uiso   1.00
H265   H     0.67794   0.35373   0.15713   0.00000  Uiso   1.00
H266   H     0.98504   0.26873   0.15832   0.00000  Uiso   1.00
H267   H     0.96208   0.30659   0.19864   0.00000  Uiso   1.00
C268   C     0.67497   0.20895   0.30760   0.00000  Uiso   1.00
C269   C     0.97044   0.17590   0.32705   0.00000  Uiso   1.00
H270   H     0.94831   0.19212   0.35197   0.00000  Uiso   1.00
H271   H     0.94503   0.16065   0.29657   0.00000  Uiso   1.00
H272   H     0.99129   0.14917   0.34826   0.00000  Uiso   1.00
H273   H     0.70232   0.18776   0.29336   0.00000  Uiso   1.00
H274   H     0.69528   0.22795   0.33836   0.00000  Uiso   1.00
Cl275  Cl    0.87582   0.00555   0.33315   0.00000  Uiso   1.00
Cl276  Cl    0.91214   0.49158   0.19949   0.00000  Uiso   1.00
C277   C     0.86903   0.10484   0.34198   0.00000  Uiso   1.00
C278   C     0.83071   0.09493   0.37734   0.00000  Uiso   1.00
H279   H     0.84716   0.10694   0.41331   0.00000  Uiso   1.00
H280   H     0.79480   0.11151   0.36465   0.00000  Uiso   1.00
H281   H     0.82170   0.05899   0.38129   0.00000  Uiso   1.00
H282   H     0.90543   0.08934   0.35568   0.00000  Uiso   1.00
H283   H     0.87882   0.14035   0.34263   0.00000  Uiso   1.00
C284   C     0.91801   0.38996   0.21406   0.00000  Uiso   1.00
C285   C     0.95434   0.38098   0.26032   0.00000  Uiso   1.00
H286   H     0.96107   0.41128   0.28212   0.00000  Uiso   1.00
H287   H     0.93855   0.35391   0.28233   0.00000  Uiso   1.00
H288   H     0.99143   0.37114   0.25126   0.00000  Uiso   1.00
H289   H     0.90814   0.35941   0.19367   0.00000  Uiso   1.00
H290   H     0.93826   0.41168   0.18955   0.00000  Uiso   1.00
C291   C     0.93018   0.27389   0.04362   0.00000  Uiso   1.00
C292   C     0.95121   0.23252   0.02516   0.00000  Uiso   1.00
H293   H     0.95181   0.20534   0.05294   0.00000  Uiso   1.00
H294   H     0.92813   0.22144   0.49123   0.00000  Uiso   1.00
H295   H     0.99065   0.24003   0.01744   0.00000  Uiso   1.00
H296   H     0.92937   0.30081   0.01603   0.00000  Uiso   1.00
H297   H     0.95795   0.28587   0.07433   0.00000  Uiso   1.00
C298   C     0.79543   0.16883   0.46720   0.00000  Uiso   1.00
C299   C     0.83840   0.14721   0.00058   0.00000  Uiso   1.00
H300   H     0.87348   0.14734   0.48301   0.00000  Uiso   1.00
H301   H     0.84715   0.16463   0.03523   0.00000  Uiso   1.00
H302   H     0.82671   0.11244   0.00904   0.00000  Uiso   1.00
H303   H     0.76278   0.17325   0.48680   0.00000  Uiso   1.00
H304   H     0.78058   0.14511   0.43871   0.00000  Uiso   1.00
C305   C     0.74918   0.20475   0.11584   0.00000  Uiso   1.00
C306   C     0.73376   0.16342   0.08608   0.00000  Uiso   1.00
H307   H     0.71181   0.17217   0.05067   0.00000  Uiso   1.00
H308   H     0.76784   0.14536   0.08055   0.00000  Uiso   1.00
H309   H     0.70881   0.14094   0.10572   0.00000  Uiso   1.00
H310   H     0.76063   0.19133   0.15244   0.00000  Uiso   1.00
H311   H     0.71541   0.22510   0.11550   0.00000  Uiso   1.00
C312   C     0.89207   0.31960   0.38012   0.00000  Uiso   1.00
C313   C     0.94267   0.32581   0.41324   0.00000  Uiso   1.00
H314   H     0.93771   0.34447   0.44571   0.00000  Uiso   1.00
H315   H     0.95883   0.29325   0.42435   0.00000  Uiso   1.00
H316   H     0.97030   0.34536   0.39364   0.00000  Uiso   1.00
H317   H     0.90338   0.31090   0.34560   0.00000  Uiso   1.00
H318   H     0.87295   0.35162   0.37548   0.00000  Uiso   1.00
C319   C     0.16669   0.66458   0.25087   0.00000  Uiso   1.00
C320   C     0.16735   0.83502   0.24927   0.00000  Uiso   1.00
C321   C     0.21163   0.76451   0.05965   0.00000  Uiso   1.00
C322   C     0.14625   0.71216   0.44457   0.00000  Uiso   1.00
C323   C     0.20786   0.76716   0.10978   0.00000  Uiso   1.00
C324   C     0.14470   0.71491   0.39328   0.00000  Uiso   1.00
C325   C     0.12568   0.73286   0.09833   0.00000  Uiso   1.00
C326   C     0.18987   0.78418   0.39871   0.00000  Uiso   1.00
C327   C     0.12364   0.73986   0.04799   0.00000  Uiso   1.00
C328   C     0.18298   0.78632   0.44766   0.00000  Uiso   1.00
C329   C     0.16744   0.75150   0.02727   0.00000  Uiso   1.00
C330   C     0.16528   0.74951   0.47266   0.00000  Uiso   1.00
C331   C     0.06842   0.75071   0.23794   0.00000  Uiso   1.00
C332   C     0.26523   0.74893   0.26212   0.00000  Uiso   1.00
C333   C     0.01489   0.75887   0.23294   0.00000  Uiso   1.00
C334   C     0.31956   0.74139   0.26723   0.00000  Uiso   1.00
C335   C     0.17995   0.54135   0.28677   0.00000  Uiso   1.00
C336   C     0.19823   0.95612   0.22161   0.00000  Uiso   1.00
C337   C     0.18179   0.58770   0.29229   0.00000  Uiso   1.00
C338   C     0.20351   0.90994   0.22606   0.00000  Uiso   1.00
C339   C     0.16370   0.61539   0.25151   0.00000  Uiso   1.00
C340   C     0.16595   0.88335   0.24650   0.00000  Uiso   1.00
C341   C     0.14144   0.59538   0.20840   0.00000  Uiso   1.00
C342   C     0.12479   0.90287   0.26252   0.00000  Uiso   1.00
C343   C     0.13726   0.54972   0.20468   0.00000  Uiso   1.00
C344   C     0.11995   0.94831   0.25806   0.00000  Uiso   1.00
C345   C     0.15669   0.52282   0.24349   0.00000  Uiso   1.00
C346   C     0.15655   0.97493   0.23799   0.00000  Uiso   1.00
Cu347  Cu    0.16667   0.75000   0.29822   0.00000  Uiso   1.00
Cu348  Cu    0.16667   0.75001   0.20179   0.00000  Uiso   1.00
H349   H     0.12660   0.61519   0.17711   0.00000  Uiso   1.00
H350   H     0.09632   0.88281   0.27864   0.00000  Uiso   1.00
H351   H     0.12003   0.53530   0.17101   0.00000  Uiso   1.00
H352   H     0.08869   0.96304   0.27199   0.00000  Uiso   1.00
H353   H     0.23876   0.78163   0.13351   0.00000  Uiso   1.00
H354   H     0.12747   0.68802   0.37145   0.00000  Uiso   1.00
H355   H     0.08836   0.73336   0.02471   0.00000  Uiso   1.00
H356   H     0.19437   0.81630   0.46705   0.00000  Uiso   1.00
N357   N     0.16667   0.75001   0.12935   0.00000  Uiso   1.00
N358   N     0.16667   0.74999   0.37066   0.00000  Uiso   1.00
O359   O     0.16667   0.68573   0.29072   0.00000  Uiso   1.00
O360   O     0.16666   0.81428   0.20929   0.00000  Uiso   1.00
O361   O     0.16667   0.68573   0.20928   0.00000  Uiso   1.00
O362   O     0.16666   0.81427   0.29072   0.00000  Uiso   1.00
O363   O     0.09161   0.75000   0.28132   0.00000  Uiso   1.00
O364   O     0.24172   0.75001   0.21868   0.00000  Uiso   1.00
O365   O     0.09161   0.75000   0.19989   0.00000  Uiso   1.00
O366   O     0.24172   0.75000   0.30012   0.00000  Uiso   1.00
C367   C     0.32859   0.78946   0.19048   0.00000  Uiso   1.00
C368   C     0.03259   0.82689   0.17766   0.00000  Uiso   1.00
H369   H     0.05427   0.84093   0.21080   0.00000  Uiso   1.00
H370   H     0.05933   0.81507   0.15411   0.00000  Uiso   1.00
H371   H     0.01128   0.85373   0.15713   0.00000  Uiso   1.00
H372   H     0.31838   0.76873   0.15832   0.00000  Uiso   1.00
H373   H     0.29541   0.80659   0.19864   0.00000  Uiso   1.00
C374   C     0.00831   0.70895   0.30760   0.00000  Uiso   1.00
C375   C     0.30377   0.67590   0.32705   0.00000  Uiso   1.00
H376   H     0.28164   0.69212   0.35197   0.00000  Uiso   1.00
H377   H     0.27836   0.66065   0.29657   0.00000  Uiso   1.00
H378   H     0.32462   0.64917   0.34826   0.00000  Uiso   1.00
H379   H     0.03565   0.68776   0.29336   0.00000  Uiso   1.00
H380   H     0.02862   0.72795   0.33836   0.00000  Uiso   1.00
Cl381  Cl    0.20915   0.50555   0.33315   0.00000  Uiso   1.00
Cl382  Cl    0.24547   0.99158   0.19949   0.00000  Uiso   1.00
C383   C     0.20237   0.60484   0.34198   0.00000  Uiso   1.00
C384   C     0.16404   0.59493   0.37734   0.00000  Uiso   1.00
H385   H     0.18049   0.60694   0.41331   0.00000  Uiso   1.00
H386   H     0.12813   0.61151   0.36465   0.00000  Uiso   1.00
H387   H     0.15504   0.55899   0.38129   0.00000  Uiso   1.00
H388   H     0.23876   0.58934   0.35568   0.00000  Uiso   1.00
H389   H     0.21216   0.64035   0.34263   0.00000  Uiso   1.00
C390   C     0.25134   0.88996   0.21406   0.00000  Uiso   1.00
C391   C     0.28767   0.88098   0.26032   0.00000  Uiso   1.00
H392   H     0.29440   0.91128   0.28212   0.00000  Uiso   1.00
H393   H     0.27189   0.85391   0.28233   0.00000  Uiso   1.00
H394   H     0.32476   0.87114   0.25126   0.00000  Uiso   1.00
H395   H     0.24147   0.85941   0.19367   0.00000  Uiso   1.00
H396   H     0.27160   0.91168   0.18955   0.00000  Uiso   1.00
C397   C     0.26351   0.77389   0.04362   0.00000  Uiso   1.00
C398   C     0.28454   0.73252   0.02516   0.00000  Uiso   1.00
H399   H     0.28514   0.70534   0.05294   0.00000  Uiso   1.00
H400   H     0.26146   0.72144   0.49123   0.00000  Uiso   1.00
H401   H     0.32399   0.74003   0.01744   0.00000  Uiso   1.00
H402   H     0.26271   0.80081   0.01603   0.00000  Uiso   1.00
H403   H     0.29128   0.78587   0.07433   0.00000  Uiso   1.00
C404   C     0.12876   0.66883   0.46720   0.00000  Uiso   1.00
C405   C     0.17174   0.64721   0.00058   0.00000  Uiso   1.00
H406   H     0.20681   0.64734   0.48301   0.00000  Uiso   1.00
H407   H     0.18048   0.66463   0.03523   0.00000  Uiso   1.00
H408   H     0.16004   0.61244   0.00904   0.00000  Uiso   1.00
H409   H     0.09612   0.67325   0.48680   0.00000  Uiso   1.00
H410   H     0.11392   0.64511   0.43871   0.00000  Uiso   1.00
C411   C     0.08251   0.70475   0.11584   0.00000  Uiso   1.00
C412   C     0.06709   0.66342   0.08608   0.00000  Uiso   1.00
H413   H     0.04514   0.67217   0.05067   0.00000  Uiso   1.00
H414   H     0.10117   0.64536   0.08055   0.00000  Uiso   1.00
H415   H     0.04214   0.64094   0.10572   0.00000  Uiso   1.00
H416   H     0.09396   0.69133   0.15244   0.00000  Uiso   1.00
H417   H     0.04874   0.72510   0.11550   0.00000  Uiso   1.00
C418   C     0.22541   0.81960   0.38012   0.00000  Uiso   1.00
C419   C     0.27600   0.82581   0.41324   0.00000  Uiso   1.00
H420   H     0.27104   0.84447   0.44571   0.00000  Uiso   1.00
H421   H     0.29216   0.79325   0.42435   0.00000  Uiso   1.00
H422   H     0.30363   0.84536   0.39364   0.00000  Uiso   1.00
H423   H     0.23671   0.81090   0.34560   0.00000  Uiso   1.00
H424   H     0.20628   0.85162   0.37548   0.00000  Uiso   1.00
C425   C     0.50002   0.66458   0.25087   0.00000  Uiso   1.00
C426   C     0.50068   0.83502   0.24927   0.00000  Uiso   1.00
C427   C     0.54496   0.76451   0.05965   0.00000  Uiso   1.00
C428   C     0.47959   0.71216   0.44457   0.00000  Uiso   1.00
C429   C     0.54120   0.76716   0.10978   0.00000  Uiso   1.00
C430   C     0.47804   0.71491   0.39328   0.00000  Uiso   1.00
C431   C     0.45901   0.73286   0.09833   0.00000  Uiso   1.00
C432   C     0.52320   0.78418   0.39871   0.00000  Uiso   1.00
C433   C     0.45698   0.73986   0.04799   0.00000  Uiso   1.00
C434   C     0.51631   0.78632   0.44766   0.00000  Uiso   1.00
C435   C     0.50077   0.75150   0.02727   0.00000  Uiso   1.00
C436   C     0.49861   0.74951   0.47266   0.00000  Uiso   1.00
C437   C     0.40176   0.75071   0.23794   0.00000  Uiso   1.00
C438   C     0.59856   0.74893   0.26212   0.00000  Uiso   1.00
C439   C     0.34822   0.75887   0.23294   0.00000  Uiso   1.00
C440   C     0.65290   0.74139   0.26723   0.00000  Uiso   1.00
C441   C     0.51329   0.54135   0.28677   0.00000  Uiso   1.00
C442   C     0.53156   0.95612   0.22161   0.00000  Uiso   1.00
C443   C     0.51513   0.58770   0.29229   0.00000  Uiso   1.00
C444   C     0.53685   0.90994   0.22606   0.00000  Uiso   1.00
C445   C     0.49704   0.61539   0.25151   0.00000  Uiso   1.00
C446   C     0.49928   0.88335   0.24650   0.00000  Uiso   1.00
C447   C     0.47478   0.59538   0.20840   0.00000  Uiso   1.00
C448   C     0.45813   0.90287   0.26252   0.00000  Uiso   1.00
C449   C     0.47059   0.54972   0.20468   0.00000  Uiso   1.00
C450   C     0.45329   0.94831   0.25806   0.00000  Uiso   1.00
C451   C     0.49003   0.52282   0.24349   0.00000  Uiso   1.00
C452   C     0.48988   0.97493   0.23799   0.00000  Uiso   1.00
Cu453  Cu    0.50000   0.75000   0.29822   0.00000  Uiso   1.00
Cu454  Cu    0.50000   0.75001   0.20179   0.00000  Uiso   1.00
H455   H     0.45994   0.61519   0.17711   0.00000  Uiso   1.00
H456   H     0.42965   0.88281   0.27864   0.00000  Uiso   1.00
H457   H     0.45337   0.53530   0.17101   0.00000  Uiso   1.00
H458   H     0.42202   0.96304   0.27199   0.00000  Uiso   1.00
H459   H     0.57209   0.78163   0.13351   0.00000  Uiso   1.00
H460   H     0.46080   0.68802   0.37145   0.00000  Uiso   1.00
H461   H     0.42170   0.73336   0.02471   0.00000  Uiso   1.00
H462   H     0.52771   0.81630   0.46705   0.00000  Uiso   1.00
N463   N     0.50000   0.75001   0.12935   0.00000  Uiso   1.00
N464   N     0.50000   0.74999   0.37066   0.00000  Uiso   1.00
O465   O     0.50000   0.68573   0.29072   0.00000  Uiso   1.00
O466   O     0.50000   0.81428   0.20929   0.00000  Uiso   1.00
O467   O     0.50000   0.68573   0.20928   0.00000  Uiso   1.00
O468   O     0.50000   0.81427   0.29072   0.00000  Uiso   1.00
O469   O     0.42495   0.75000   0.28132   0.00000  Uiso   1.00
O470   O     0.57505   0.75001   0.21868   0.00000  Uiso   1.00
O471   O     0.42495   0.75000   0.19989   0.00000  Uiso   1.00
O472   O     0.57505   0.75000   0.30012   0.00000  Uiso   1.00
C473   C     0.66192   0.78946   0.19048   0.00000  Uiso   1.00
C474   C     0.36592   0.82689   0.17766   0.00000  Uiso   1.00
H475   H     0.38760   0.84093   0.21080   0.00000  Uiso   1.00
H476   H     0.39267   0.81507   0.15411   0.00000  Uiso   1.00
H477   H     0.34461   0.85373   0.15713   0.00000  Uiso   1.00
H478   H     0.65171   0.76873   0.15832   0.00000  Uiso   1.00
H479   H     0.62875   0.80659   0.19864   0.00000  Uiso   1.00
C480   C     0.34164   0.70895   0.30760   0.00000  Uiso   1.00
C481   C     0.63710   0.67590   0.32705   0.00000  Uiso   1.00
H482   H     0.61498   0.69212   0.35197   0.00000  Uiso   1.00
H483   H     0.61170   0.66065   0.29657   0.00000  Uiso   1.00
H484   H     0.65795   0.64917   0.34826   0.00000  Uiso   1.00
H485   H     0.36898   0.68776   0.29336   0.00000  Uiso   1.00
H486   H     0.36195   0.72795   0.33836   0.00000  Uiso   1.00
Cl487  Cl    0.54249   0.50555   0.33315   0.00000  Uiso   1.00
Cl488  Cl    0.57880   0.99158   0.19949   0.00000  Uiso   1.00
C489   C     0.53570   0.60484   0.34198   0.00000  Uiso   1.00
C490   C     0.49737   0.59493   0.37734   0.00000  Uiso   1.00
H491   H     0.51382   0.60694   0.41331   0.00000  Uiso   1.00
H492   H     0.46147   0.61151   0.36465   0.00000  Uiso   1.00
H493   H     0.48837   0.55899   0.38129   0.00000  Uiso   1.00
H494   H     0.57209   0.58934   0.35568   0.00000  Uiso   1.00
H495   H     0.54549   0.64035   0.34263   0.00000  Uiso   1.00
C496   C     0.58467   0.88996   0.21406   0.00000  Uiso   1.00
C497   C     0.62100   0.88098   0.26032   0.00000  Uiso   1.00
H498   H     0.62773   0.91128   0.28212   0.00000  Uiso   1.00
H499   H     0.60522   0.85391   0.28233   0.00000  Uiso   1.00
H500   H     0.65809   0.87114   0.25126   0.00000  Uiso   1.00
H501   H     0.57481   0.85941   0.19367   0.00000  Uiso   1.00
H502   H     0.60493   0.91168   0.18955   0.00000  Uiso   1.00
C503   C     0.59685   0.77389   0.04362   0.00000  Uiso   1.00
C504   C     0.61788   0.73252   0.02516   0.00000  Uiso   1.00
H505   H     0.61848   0.70534   0.05294   0.00000  Uiso   1.00
H506   H     0.59480   0.72144   0.49123   0.00000  Uiso   1.00
H507   H     0.65732   0.74003   0.01744   0.00000  Uiso   1.00
H508   H     0.59604   0.80081   0.01603   0.00000  Uiso   1.00
H509   H     0.62461   0.78587   0.07433   0.00000  Uiso   1.00
C510   C     0.46209   0.66883   0.46720   0.00000  Uiso   1.00
C511   C     0.50507   0.64721   0.00058   0.00000  Uiso   1.00
H512   H     0.54015   0.64734   0.48301   0.00000  Uiso   1.00
H513   H     0.51381   0.66463   0.03523   0.00000  Uiso   1.00
H514   H     0.49337   0.61244   0.00904   0.00000  Uiso   1.00
H515   H     0.42945   0.67325   0.48680   0.00000  Uiso   1.00
H516   H     0.44725   0.64511   0.43871   0.00000  Uiso   1.00
C517   C     0.41585   0.70475   0.11584   0.00000  Uiso   1.00
C518   C     0.40043   0.66342   0.08608   0.00000  Uiso   1.00
H519   H     0.37848   0.67217   0.05067   0.00000  Uiso   1.00
H520   H     0.43451   0.64536   0.08055   0.00000  Uiso   1.00
H521   H     0.37548   0.64094   0.10572   0.00000  Uiso   1.00
H522   H     0.42730   0.69133   0.15244   0.00000  Uiso   1.00
H523   H     0.38207   0.72510   0.11550   0.00000  Uiso   1.00
C524   C     0.55874   0.81960   0.38012   0.00000  Uiso   1.00
C525   C     0.60934   0.82581   0.41324   0.00000  Uiso   1.00
H526   H     0.60437   0.84447   0.44571   0.00000  Uiso   1.00
H527   H     0.62550   0.79325   0.42435   0.00000  Uiso   1.00
H528   H     0.63696   0.84536   0.39364   0.00000  Uiso   1.00
H529   H     0.57004   0.81090   0.34560   0.00000  Uiso   1.00
H530   H     0.53962   0.85162   0.37548   0.00000  Uiso   1.00
C531   C     0.83335   0.66458   0.25087   0.00000  Uiso   1.00
C532   C     0.83402   0.83502   0.24927   0.00000  Uiso   1.00
C533   C     0.87830   0.76451   0.05965   0.00000  Uiso   1.00
C534   C     0.81292   0.71216   0.44457   0.00000  Uiso   1.00
C535   C     0.87453   0.76716   0.10978   0.00000  Uiso   1.00
C536   C     0.81137   0.71491   0.39328   0.00000  Uiso   1.00
C537   C     0.79235   0.73286   0.09833   0.00000  Uiso   1.00
C538   C     0.85654   0.78418   0.39871   0.00000  Uiso   1.00
C539   C     0.79031   0.73986   0.04799   0.00000  Uiso   1.00
C540   C     0.84965   0.78632   0.44766   0.00000  Uiso   1.00
C541   C     0.83410   0.75150   0.02727   0.00000  Uiso   1.00
C542   C     0.83194   0.74951   0.47266   0.00000  Uiso   1.00
C543   C     0.73509   0.75071   0.23794   0.00000  Uiso   1.00
C544   C     0.93190   0.74893   0.26212   0.00000  Uiso   1.00
C545   C     0.68156   0.75887   0.23294   0.00000  Uiso   1.00
C546   C     0.98623   0.74139   0.26723   0.00000  Uiso   1.00
C547   C     0.84662   0.54135   0.28677   0.00000  Uiso   1.00
C548   C     0.86489   0.95612   0.22161   0.00000  Uiso   1.00
C549   C     0.84846   0.58770   0.29229   0.00000  Uiso   1.00
C550   C     0.87018   0.90994   0.22606   0.00000  Uiso   1.00
C551   C     0.83037   0.61539   0.25151   0.00000  Uiso   1.00
C552   C     0.83261   0.88335   0.24650   0.00000  Uiso   1.00
C553   C     0.80811   0.59538   0.20840   0.00000  Uiso   1.00
C554   C     0.79146   0.90287   0.26252   0.00000  Uiso   1.00
C555   C     0.80393   0.54972   0.20468   0.00000  Uiso   1.00
C556   C     0.78662   0.94831   0.25806   0.00000  Uiso   1.00
C557   C     0.82336   0.52282   0.24349   0.00000  Uiso   1.00
C558   C     0.82321   0.97493   0.23799   0.00000  Uiso   1.00
Cu559  Cu    0.83333   0.75000   0.29822   0.00000  Uiso   1.00
Cu560  Cu    0.83333   0.75001   0.20179   0.00000  Uiso   1.00
H561   H     0.79327   0.61519   0.17711   0.00000  Uiso   1.00
H562   H     0.76299   0.88281   0.27864   0.00000  Uiso   1.00
H563   H     0.78670   0.53530   0.17101   0.00000  Uiso   1.00
H564   H     0.75535   0.96304   0.27199   0.00000  Uiso   1.00
H565   H     0.90543   0.78163   0.13351   0.00000  Uiso   1.00
H566   H     0.79413   0.68802   0.37145   0.00000  Uiso   1.00
H567   H     0.75503   0.73336   0.02471   0.00000  Uiso   1.00
H568   H     0.86104   0.81630   0.46705   0.00000  Uiso   1.00
N569   N     0.83333   0.75001   0.12935   0.00000  Uiso   1.00
N570   N     0.83333   0.74999   0.37066   0.00000  Uiso   1.00
O571   O     0.83334   0.68573   0.29072   0.00000  Uiso   1.00
O572   O     0.83333   0.81428   0.20929   0.00000  Uiso   1.00
O573   O     0.83334   0.68573   0.20928   0.00000  Uiso   1.00
O574   O     0.83333   0.81427   0.29072   0.00000  Uiso   1.00
O575   O     0.75828   0.75000   0.28132   0.00000  Uiso   1.00
O576   O     0.90839   0.75001   0.21868   0.00000  Uiso   1.00
O577   O     0.75828   0.75000   0.19989   0.00000  Uiso   1.00
O578   O     0.90839   0.75000   0.30012   0.00000  Uiso   1.00
C579   C     0.99525   0.78946   0.19048   0.00000  Uiso   1.00
C580   C     0.69925   0.82689   0.17766   0.00000  Uiso   1.00
H581   H     0.72093   0.84093   0.21080   0.00000  Uiso   1.00
H582   H     0.72600   0.81507   0.15411   0.00000  Uiso   1.00
H583   H     0.67794   0.85373   0.15713   0.00000  Uiso   1.00
H584   H     0.98504   0.76873   0.15832   0.00000  Uiso   1.00
H585   H     0.96208   0.80659   0.19864   0.00000  Uiso   1.00
C586   C     0.67497   0.70895   0.30760   0.00000  Uiso   1.00
C587   C     0.97044   0.67590   0.32705   0.00000  Uiso   1.00
H588   H     0.94831   0.69212   0.35197   0.00000  Uiso   1.00
H589   H     0.94503   0.66065   0.29657   0.00000  Uiso   1.00
H590   H     0.99129   0.64917   0.34826   0.00000  Uiso   1.00
H591   H     0.70232   0.68776   0.29336   0.00000  Uiso   1.00
H592   H     0.69528   0.72795   0.33836   0.00000  Uiso   1.00
Cl593  Cl    0.87582   0.50555   0.33315   0.00000  Uiso   1.00
Cl594  Cl    0.91214   0.99158   0.19949   0.00000  Uiso   1.00
C595   C     0.86903   0.60484   0.34198   0.00000  Uiso   1.00
C596   C     0.83071   0.59493   0.37734   0.00000  Uiso   1.00
H597   H     0.84716   0.60694   0.41331   0.00000  Uiso   1.00
H598   H     0.79480   0.61151   0.36465   0.00000  Uiso   1.00
H599   H     0.82170   0.55899   0.38129   0.00000  Uiso   1.00
H600   H     0.90543   0.58934   0.35568   0.00000  Uiso   1.00
H601   H     0.87882   0.64035   0.34263   0.00000  Uiso   1.00
C602   C     0.91801   0.88996   0.21406   0.00000  Uiso   1.00
C603   C     0.95434   0.88098   0.26032   0.00000  Uiso   1.00
H604   H     0.96107   0.91128   0.28212   0.00000  Uiso   1.00
H605   H     0.93855   0.85391   0.28233   0.00000  Uiso   1.00
H606   H     0.99143   0.87114   0.25126   0.00000  Uiso   1.00
H607   H     0.90814   0.85941   0.19367   0.00000  Uiso   1.00
H608   H     0.93826   0.91168   0.18955   0.00000  Uiso   1.00
C609   C     0.93018   0.77389   0.04362   0.00000  Uiso   1.00
C610   C     0.95121   0.73252   0.02516   0.00000  Uiso   1.00
H611   H     0.95181   0.70534   0.05294   0.00000  Uiso   1.00
H612   H     0.92813   0.72144   0.49123   0.00000  Uiso   1.00
H613   H     0.99065   0.74003   0.01744   0.00000  Uiso   1.00
H614   H     0.92937   0.80081   0.01603   0.00000  Uiso   1.00
H615   H     0.95795   0.78587   0.07433   0.00000  Uiso   1.00
C616   C     0.79543   0.66883   0.46720   0.00000  Uiso   1.00
C617   C     0.83840   0.64721   0.00058   0.00000  Uiso   1.00
H618   H     0.87348   0.64734   0.48301   0.00000  Uiso   1.00
H619   H     0.84715   0.66463   0.03523   0.00000  Uiso   1.00
H620   H     0.82671   0.61244   0.00904   0.00000  Uiso   1.00
H621   H     0.76278   0.67325   0.48680   0.00000  Uiso   1.00
H622   H     0.78058   0.64511   0.43871   0.00000  Uiso   1.00
C623   C     0.74918   0.70475   0.11584   0.00000  Uiso   1.00
C624   C     0.73376   0.66342   0.08608   0.00000  Uiso   1.00
H625   H     0.71181   0.67217   0.05067   0.00000  Uiso   1.00
H626   H     0.76784   0.64536   0.08055   0.00000  Uiso   1.00
H627   H     0.70881   0.64094   0.10572   0.00000  Uiso   1.00
H628   H     0.76063   0.69133   0.15244   0.00000  Uiso   1.00
H629   H     0.71541   0.72510   0.11550   0.00000  Uiso   1.00
C630   C     0.89207   0.81960   0.38012   0.00000  Uiso   1.00
C631   C     0.94267   0.82581   0.41324   0.00000  Uiso   1.00
H632   H     0.93771   0.84447   0.44571   0.00000  Uiso   1.00
H633   H     0.95883   0.79325   0.42435   0.00000  Uiso   1.00
H634   H     0.97030   0.84536   0.39364   0.00000  Uiso   1.00
H635   H     0.90338   0.81090   0.34560   0.00000  Uiso   1.00
H636   H     0.87295   0.85162   0.37548   0.00000  Uiso   1.00
C637   C     0.16669   0.16458   0.75087   0.00000  Uiso   1.00
C638   C     0.16735   0.33502   0.74927   0.00000  Uiso   1.00
C639   C     0.21163   0.26451   0.55965   0.00000  Uiso   1.00
C640   C     0.14625   0.21216   0.94457   0.00000  Uiso   1.00
C641   C     0.20786   0.26716   0.60978   0.00000  Uiso   1.00
C642   C     0.14470   0.21491   0.89328   0.00000  Uiso   1.00
C643   C     0.12568   0.23286   0.59833   0.00000  Uiso   1.00
C644   C     0.18987   0.28418   0.89871   0.00000  Uiso   1.00
C645   C     0.12364   0.23986   0.54799   0.00000  Uiso   1.00
C646   C     0.18298   0.28632   0.94766   0.00000  Uiso   1.00
C647   C     0.16744   0.25150   0.52727   0.00000  Uiso   1.00
C648   C     0.16528   0.24951   0.97266   0.00000  Uiso   1.00
C649   C     0.06842   0.25071   0.73794   0.00000  Uiso   1.00
C650   C     0.26523   0.24893   0.76212   0.00000  Uiso   1.00
C651   C     0.01489   0.25887   0.73294   0.00000  Uiso   1.00
C652   C     0.31956   0.24139   0.76723   0.00000  Uiso   1.00
C653   C     0.17995   0.04135   0.78677   0.00000  Uiso   1.00
C654   C     0.19823   0.45612   0.72161   0.00000  Uiso   1.00
C655   C     0.18179   0.08770   0.79229   0.00000  Uiso   1.00
C656   C     0.20351   0.40994   0.72606   0.00000  Uiso   1.00
C657   C     0.16370   0.11539   0.75151   0.00000  Uiso   1.00
C658   C     0.16595   0.38335   0.74650   0.00000  Uiso   1.00
C659   C     0.14144   0.09538   0.70840   0.00000  Uiso   1.00
C660   C     0.12479   0.40287   0.76252   0.00000  Uiso   1.00
C661   C     0.13726   0.04972   0.70468   0.00000  Uiso   1.00
C662   C     0.11995   0.44831   0.75806   0.00000  Uiso   1.00
C663   C     0.15669   0.02282   0.74349   0.00000  Uiso   1.00
C664   C     0.15655   0.47493   0.73799   0.00000  Uiso   1.00
Cu665  Cu    0.16667   0.25000   0.79822   0.00000  Uiso   1.00
Cu666  Cu    0.16667   0.25001   0.70179   0.00000  Uiso   1.00
H667   H     0.12660   0.11519   0.67711   0.00000  Uiso   1.00
H668   H     0.09632   0.38281   0.77864   0.00000  Uiso   1.00
H669   H     0.12003   0.03530   0.67101   0.00000  Uiso   1.00
H670   H     0.08869   0.46304   0.77199   0.00000  Uiso   1.00
H671   H     0.23876   0.28163   0.63351   0.00000  Uiso   1.00
H672   H     0.12747   0.18802   0.87145   0.00000  Uiso   1.00
H673   H     0.08836   0.23336   0.52471   0.00000  Uiso   1.00
H674   H     0.19437   0.31630   0.96705   0.00000  Uiso   1.00
N675   N     0.16667   0.25001   0.62935   0.00000  Uiso   1.00
N676   N     0.16667   0.24999   0.87066   0.00000  Uiso   1.00
O677   O     0.16667   0.18573   0.79072   0.00000  Uiso   1.00
O678   O     0.16666   0.31428   0.70929   0.00000  Uiso   1.00
O679   O     0.16667   0.18573   0.70928   0.00000  Uiso   1.00
O680   O     0.16666   0.31427   0.79072   0.00000  Uiso   1.00
O681   O     0.09161   0.25000   0.78132   0.00000  Uiso   1.00
O682   O     0.24172   0.25001   0.71868   0.00000  Uiso   1.00
O683   O     0.09161   0.25000   0.69989   0.00000  Uiso   1.00
O684   O     0.24172   0.25000   0.80012   0.00000  Uiso   1.00
C685   C     0.32859   0.28946   0.69048   0.00000  Uiso   1.00
C686   C     0.03259   0.32689   0.67766   0.00000  Uiso   1.00
H687   H     0.05427   0.34093   0.71080   0.00000  Uiso   1.00
H688   H     0.05933   0.31507   0.65411   0.00000  Uiso   1.00
H689   H     0.01128   0.35373   0.65713   0.00000  Uiso   1.00
H690   H     0.31838   0.26873   0.65832   0.00000  Uiso   1.00
H691   H     0.29541   0.30659   0.69864   0.00000  Uiso   1.00
C692   C     0.00831   0.20895   0.80760   0.00000  Uiso   1.00
C693   C     0.30377   0.17590   0.82705   0.00000  Uiso   1.00
H694   H     0.28164   0.19212   0.85197   0.00000  Uiso   1.00
H695   H     0.27836   0.16065   0.79657   0.00000  Uiso   1.00
H696   H     0.32462   0.14917   0.84826   0.00000  Uiso   1.00
H697   H     0.03565   0.18776   0.79336   0.00000  Uiso   1.00
H698   H     0.02862   0.22795   0.83836   0.00000  Uiso   1.00
Cl699  Cl    0.20915   0.00555   0.83315   0.00000  Uiso   1.00
Cl700  Cl    0.24547   0.49158   0.69949   0.00000  Uiso   1.00
C701   C     0.20237   0.10484   0.84198   0.00000  Uiso   1.00
C702   C     0.16404   0.09493   0.87734   0.00000  Uiso   1.00
H703   H     0.18049   0.10694   0.91331   0.00000  Uiso   1.00
H704   H     0.12813   0.11151   0.86465   0.00000  Uiso   1.00
H705   H     0.15504   0.05899   0.88129   0.00000  Uiso   1.00
H706   H     0.23876   0.08934   0.85568   0.00000  Uiso   1.00
H707   H     0.21216   0.14035   0.84263   0.00000  Uiso   1.00
C708   C     0.25134   0.38996   0.71406   0.00000  Uiso   1.00
C709   C     0.28767   0.38098   0.76032   0.00000  Uiso   1.00
H710   H     0.29440   0.41128   0.78212   0.00000  Uiso   1.00
H711   H     0.27189   0.35391   0.78233   0.00000  Uiso   1.00
H712   H     0.32476   0.37114   0.75126   0.00000  Uiso   1.00
H713   H     0.24147   0.35941   0.69367   0.00000  Uiso   1.00
H714   H     0.27160   0.41168   0.68955   0.00000  Uiso   1.00
C715   C     0.26351   0.27389   0.54362   0.00000  Uiso   1.00
C716   C     0.28454   0.23252   0.52516   0.00000  Uiso   1.00
H717   H     0.28514   0.20534   0.55294   0.00000  Uiso   1.00
H718   H     0.26146   0.22144   0.99123   0.00000  Uiso   1.00
H719   H     0.32399   0.24003   0.51744   0.00000  Uiso   1.00
H720   H     0.26271   0.30081   0.51603   0.00000  Uiso   1.00
H721   H     0.29128   0.28587   0.57433   0.00000  Uiso   1.00
C722   C     0.12876   0.16883   0.96720   0.00000  Uiso   1.00
C723   C     0.17174   0.14721   0.50058   0.00000  Uiso   1.00
H724   H     0.20681   0.14734   0.98301   0.00000  Uiso   1.00
H725   H     0.18048   0.16463   0.53523   0.00000  Uiso   1.00
H726   H     0.16004   0.11244   0.50904   0.00000  Uiso   1.00
H727   H     0.09612   0.17325   0.98680   0.00000  Uiso   1.00
H728   H     0.11392   0.14511   0.93871   0.00000  Uiso   1.00
C729   C     0.08251   0.20475   0.61584   0.00000  Uiso   1.00
C730   C     0.06709   0.16342   0.58608   0.00000  Uiso   1.00
H731   H     0.04514   0.17217   0.55067   0.00000  Uiso   1.00
H732   H     0.10117   0.14536   0.58055   0.00000  Uiso   1.00
H733   H     0.04214   0.14094   0.60572   0.00000  Uiso   1.00
H734   H     0.09396   0.19133   0.65244   0.00000  Uiso   1.00
H735   H     0.04874   0.22510   0.61550   0.00000  Uiso   1.00
C736   C     0.22541   0.31960   0.88012   0.00000  Uiso   1.00
C737   C     0.27600   0.32581   0.91324   0.00000  Uiso   1.00
H738   H     0.27104   0.34447   0.94571   0.00000  Uiso   1.00
H739   H     0.29216   0.29325   0.92435   0.00000  Uiso   1.00
H740   H     0.30363   0.34536   0.89364   0.00000  Uiso   1.00
H741   H     0.23671   0.31090   0.84560   0.00000  Uiso   1.00
H742   H     0.20628   0.35162   0.87548   0.00000  Uiso   1.00
C743   C     0.50002   0.16458   0.75087   0.00000  Uiso   1.00
C744   C     0.50068   0.33502   0.74927   0.00000  Uiso   1.00
C745   C     0.54496   0.26451   0.55965   0.00000  Uiso   1.00
C746   C     0.47959   0.21216   0.94457   0.00000  Uiso   1.00
C747   C     0.54120   0.26716   0.60978   0.00000  Uiso   1.00
C748   C     0.47804   0.21491   0.89328   0.00000  Uiso   1.00
C749   C     0.45901   0.23286   0.59833   0.00000  Uiso   1.00
C750   C     0.52320   0.28418   0.89871   0.00000  Uiso   1.00
C751   C     0.45698   0.23986   0.54799   0.00000  Uiso   1.00
C752   C     0.51631   0.28632   0.94766   0.00000  Uiso   1.00
C753   C     0.50077   0.25150   0.52727   0.00000  Uiso   1.00
C754   C     0.49861   0.24951   0.97266   0.00000  Uiso   1.00
C755   C     0.40176   0.25071   0.73794   0.00000  Uiso   1.00
C756   C     0.59856   0.24893   0.76212   0.00000  Uiso   1.00
C757   C     0.34822   0.25887   0.73294   0.00000  Uiso   1.00
C758   C     0.65290   0.24139   0.76723   0.00000  Uiso   1.00
C759   C     0.51329   0.04135   0.78677   0.00000  Uiso   1.00
C760   C     0.53156   0.45612   0.72161   0.00000  Uiso   1.00
C761   C     0.51513   0.08770   0.79229   0.00000  Uiso   1.00
C762   C     0.53685   0.40994   0.72606   0.00000  Uiso   1.00
C763   C     0.49704   0.11539   0.75151   0.00000  Uiso   1.00
C764   C     0.49928   0.38335   0.74650   0.00000  Uiso   1.00
C765   C     0.47478   0.09538   0.70840   0.00000  Uiso   1.00
C766   C     0.45813   0.40287   0.76252   0.00000  Uiso   1.00
C767   C     0.47059   0.04972   0.70468   0.00000  Uiso   1.00
C768   C     0.45329   0.44831   0.75806   0.00000  Uiso   1.00
C769   C     0.49003   0.02282   0.74349   0.00000  Uiso   1.00
C770   C     0.48988   0.47493   0.73799   0.00000  Uiso   1.00
Cu771  Cu    0.50000   0.25000   0.79822   0.00000  Uiso   1.00
Cu772  Cu    0.50000   0.25001   0.70179   0.00000  Uiso   1.00
H773   H     0.45994   0.11519   0.67711   0.00000  Uiso   1.00
H774   H     0.42965   0.38281   0.77864   0.00000  Uiso   1.00
H775   H     0.45337   0.03530   0.67101   0.00000  Uiso   1.00
H776   H     0.42202   0.46304   0.77199   0.00000  Uiso   1.00
H777   H     0.57209   0.28163   0.63351   0.00000  Uiso   1.00
H778   H     0.46080   0.18802   0.87145   0.00000  Uiso   1.00
H779   H     0.42170   0.23336   0.52471   0.00000  Uiso   1.00
H780   H     0.52771   0.31630   0.96705   0.00000  Uiso   1.00
N781   N     0.50000   0.25001   0.62935   0.00000  Uiso   1.00
N782   N     0.50000   0.24999   0.87066   0.00000  Uiso   1.00
O783   O     0.50000   0.18573   0.79072   0.00000  Uiso   1.00
O784   O     0.50000   0.31428   0.70929   0.00000  Uiso   1.00
O785   O     0.50000   0.18573   0.70928   0.00000  Uiso   1.00
O786   O     0.50000   0.31427   0.79072   0.00000  Uiso   1.00
O787   O     0.42495   0.25000   0.78132   0.00000  Uiso   1.00
O788   O     0.57505   0.25001   0.71868   0.00000  Uiso   1.00
O789   O     0.42495   0.25000   0.69989   0.00000  Uiso   1.00
O790   O     0.57505   0.25000   0.80012   0.00000  Uiso   1.00
C791   C     0.66192   0.28946   0.69048   0.00000  Uiso   1.00
C792   C     0.36592   0.32689   0.67766   0.00000  Uiso   1.00
H793   H     0.38760   0.34093   0.71080   0.00000  Uiso   1.00
H794   H     0.39267   0.31507   0.65411   0.00000  Uiso   1.00
H795   H     0.34461   0.35373   0.65713   0.00000  Uiso   1.00
H796   H     0.65171   0.26873   0.65832   0.00000  Uiso   1.00
H797   H     0.62875   0.30659   0.69864   0.00000  Uiso   1.00
C798   C     0.34164   0.20895   0.80760   0.00000  Uiso   1.00
C799   C     0.63710   0.17590   0.82705   0.00000  Uiso   1.00
H800   H     0.61498   0.19212   0.85197   0.00000  Uiso   1.00
H801   H     0.61170   0.16065   0.79657   0.00000  Uiso   1.00
H802   H     0.65795   0.14917   0.84826   0.00000  Uiso   1.00
H803   H     0.36898   0.18776   0.79336   0.00000  Uiso   1.00
H804   H     0.36195   0.22795   0.83836   0.00000  Uiso   1.00
Cl805  Cl    0.54249   0.00555   0.83315   0.00000  Uiso   1.00
Cl806  Cl    0.57880   0.49158   0.69949   0.00000  Uiso   1.00
C807   C     0.53570   0.10484   0.84198   0.00000  Uiso   1.00
C808   C     0.49737   0.09493   0.87734   0.00000  Uiso   1.00
H809   H     0.51382   0.10694   0.91331   0.00000  Uiso   1.00
H810   H     0.46147   0.11151   0.86465   0.00000  Uiso   1.00
H811   H     0.48837   0.05899   0.88129   0.00000  Uiso   1.00
H812   H     0.57209   0.08934   0.85568   0.00000  Uiso   1.00
H813   H     0.54549   0.14035   0.84263   0.00000  Uiso   1.00
C814   C     0.58467   0.38996   0.71406   0.00000  Uiso   1.00
C815   C     0.62100   0.38098   0.76032   0.00000  Uiso   1.00
H816   H     0.62773   0.41128   0.78212   0.00000  Uiso   1.00
H817   H     0.60522   0.35391   0.78233   0.00000  Uiso   1.00
H818   H     0.65809   0.37114   0.75126   0.00000  Uiso   1.00
H819   H     0.57481   0.35941   0.69367   0.00000  Uiso   1.00
H820   H     0.60493   0.41168   0.68955   0.00000  Uiso   1.00
C821   C     0.59685   0.27389   0.54362   0.00000  Uiso   1.00
C822   C     0.61788   0.23252   0.52516   0.00000  Uiso   1.00
H823   H     0.61848   0.20534   0.55294   0.00000  Uiso   1.00
H824   H     0.59480   0.22144   0.99123   0.00000  Uiso   1.00
H825   H     0.65732   0.24003   0.51744   0.00000  Uiso   1.00
H826   H     0.59604   0.30081   0.51603   0.00000  Uiso   1.00
H827   H     0.62461   0.28587   0.57433   0.00000  Uiso   1.00
C828   C     0.46209   0.16883   0.96720   0.00000  Uiso   1.00
C829   C     0.50507   0.14721   0.50058   0.00000  Uiso   1.00
H830   H     0.54015   0.14734   0.98301   0.00000  Uiso   1.00
H831   H     0.51381   0.16463   0.53523   0.00000  Uiso   1.00
H832   H     0.49337   0.11244   0.50904   0.00000  Uiso   1.00
H833   H     0.42945   0.17325   0.98680   0.00000  Uiso   1.00
H834   H     0.44725   0.14511   0.93871   0.00000  Uiso   1.00
C835   C     0.41585   0.20475   0.61584   0.00000  Uiso   1.00
C836   C     0.40043   0.16342   0.58608   0.00000  Uiso   1.00
H837   H     0.37848   0.17217   0.55067   0.00000  Uiso   1.00
H838   H     0.43451   0.14536   0.58055   0.00000  Uiso   1.00
H839   H     0.37548   0.14094   0.60572   0.00000  Uiso   1.00
H840   H     0.42730   0.19133   0.65244   0.00000  Uiso   1.00
H841   H     0.38207   0.22510   0.61550   0.00000  Uiso   1.00
C842   C     0.55874   0.31960   0.88012   0.00000  Uiso   1.00
C843   C     0.60934   0.32581   0.91324   0.00000  Uiso   1.00
H844   H     0.60437   0.34447   0.94571   0.00000  Uiso   1.00
H845   H     0.62550   0.29325   0.92435   0.00000  Uiso   1.00
H846   H     0.63696   0.34536   0.89364   0.00000  Uiso   1.00
H847   H     0.57004   0.31090   0.84560   0.00000  Uiso   1.00
H848   H     0.53962   0.35162   0.87548   0.00000  Uiso   1.00
C849   C     0.83335   0.16458   0.75087   0.00000  Uiso   1.00
C850   C     0.83402   0.33502   0.74927   0.00000  Uiso   1.00
C851   C     0.87830   0.26451   0.55965   0.00000  Uiso   1.00
C852   C     0.81292   0.21216   0.94457   0.00000  Uiso   1.00
C853   C     0.87453   0.26716   0.60978   0.00000  Uiso   1.00
C854   C     0.81137   0.21491   0.89328   0.00000  Uiso   1.00
C855   C     0.79235   0.23286   0.59833   0.00000  Uiso   1.00
C856   C     0.85654   0.28418   0.89871   0.00000  Uiso   1.00
C857   C     0.79031   0.23986   0.54799   0.00000  Uiso   1.00
C858   C     0.84965   0.28632   0.94766   0.00000  Uiso   1.00
C859   C     0.83410   0.25150   0.52727   0.00000  Uiso   1.00
C860   C     0.83194   0.24951   0.97266   0.00000  Uiso   1.00
C861   C     0.73509   0.25071   0.73794   0.00000  Uiso   1.00
C862   C     0.93190   0.24893   0.76212   0.00000  Uiso   1.00
C863   C     0.68156   0.25887   0.73294   0.00000  Uiso   1.00
C864   C     0.98623   0.24139   0.76723   0.00000  Uiso   1.00
C865   C     0.84662   0.04135   0.78677   0.00000  Uiso   1.00
C866   C     0.86489   0.45612   0.72161   0.00000  Uiso   1.00
C867   C     0.84846   0.08770   0.79229   0.00000  Uiso   1.00
C868   C     0.87018   0.40994   0.72606   0.00000  Uiso   1.00
C869   C     0.83037   0.11539   0.75151   0.00000  Uiso   1.00
C870   C     0.83261   0.38335   0.74650   0.00000  Uiso   1.00
C871   C     0.80811   0.09538   0.70840   0.00000  Uiso   1.00
C872   C     0.79146   0.40287   0.76252   0.00000  Uiso   1.00
C873   C     0.80393   0.04972   0.70468   0.00000  Uiso   1.00
C874   C     0.78662   0.44831   0.75806   0.00000  Uiso   1.00
C875   C     0.82336   0.02282   0.74349   0.00000  Uiso   1.00
C876   C     0.82321   0.47493   0.73799   0.00000  Uiso   1.00
Cu877  Cu    0.83333   0.25000   0.79822   0.00000  Uiso   1.00
Cu878  Cu    0.83333   0.25001   0.70179   0.00000  Uiso   1.00
H879   H     0.79327   0.11519   0.67711   0.00000  Uiso   1.00
H880   H     0.76299   0.38281   0.77864   0.00000  Uiso   1.00
H881   H     0.78670   0.03530   0.67101   0.00000  Uiso   1.00
H882   H     0.75535   0.46304   0.77199   0.00000  Uiso   1.00
H883   H     0.90543   0.28163   0.63351   0.00000  Uiso   1.00
H884   H     0.79413   0.18802   0.87145   0.00000  Uiso   1.00
H885   H     0.75503   0.23336   0.52471   0.00000  Uiso   1.00
H886   H     0.86104   0.31630   0.96705   0.00000  Uiso   1.00
N887   N     0.83333   0.25001   0.62935   0.00000  Uiso   1.00
N888   N     0.83333   0.24999   0.87066   0.00000  Uiso   1.00
O889   O     0.83334   0.18573   0.79072   0.00000  Uiso   1.00
O890   O     0.83333   0.31428   0.70929   0.00000  Uiso   1.00
O891   O     0.83334   0.18573   0.70928   0.00000  Uiso   1.00
O892   O     0.83333   0.31427   0.79072   0.00000  Uiso   1.00
O893   O     0.75828   0.25000   0.78132   0.00000  Uiso   1.00
O894   O     0.90839   0.25001   0.71868   0.00000  Uiso   1.00
O895   O     0.75828   0.25000   0.69989   0.00000  Uiso   1.00
O896   O     0.90839   0.25000   0.80012   0.00000  Uiso   1.00
C897   C     0.99525   0.28946   0.69048   0.00000  Uiso   1.00
C898   C     0.69925   0.32689   0.67766   0.00000  Uiso   1.00
H899   H     0.72093   0.34093   0.71080   0.00000  Uiso   1.00
H900   H     0.72600   0.31507   0.65411   0.00000  Uiso   1.00
H901   H     0.67794   0.35373   0.65713   0.00000  Uiso   1.00
H902   H     0.98504   0.26873   0.65832   0.00000  Uiso   1.00
H903   H     0.96208   0.30659   0.69864   0.00000  Uiso   1.00
C904   C     0.67497   0.20895   0.80760   0.00000  Uiso   1.00
C905   C     0.97044   0.17590   0.82705   0.00000  Uiso   1.00
H906   H     0.94831   0.19212   0.85197   0.00000  Uiso   1.00
H907   H     0.94503   0.16065   0.79657   0.00000  Uiso   1.00
H908   H     0.99129   0.14917   0.84826   0.00000  Uiso   1.00
H909   H     0.70232   0.18776   0.79336   0.00000  Uiso   1.00
H910   H     0.69528   0.22795   0.83836   0.00000  Uiso   1.00
Cl911  Cl    0.87582   0.00555   0.83315   0.00000  Uiso   1.00
Cl912  Cl    0.91214   0.49158   0.69949   0.00000  Uiso   1.00
C913   C     0.86903   0.10484   0.84198   0.00000  Uiso   1.00
C914   C     0.83071   0.09493   0.87734   0.00000  Uiso   1.00
H915   H     0.84716   0.10694   0.91331   0.00000  Uiso   1.00
H916   H     0.79480   0.11151   0.86465   0.00000  Uiso   1.00
H917   H     0.82170   0.05899   0.88129   0.00000  Uiso   1.00
H918   H     0.90543   0.08934   0.85568   0.00000  Uiso   1.00
H919   H     0.87882   0.14035   0.84263   0.00000  Uiso   1.00
C920   C     0.91801   0.38996   0.71406   0.00000  Uiso   1.00
C921   C     0.95434   0.38098   0.76032   0.00000  Uiso   1.00
H922   H     0.96107   0.41128   0.78212   0.00000  Uiso   1.00
H923   H     0.93855   0.35391   0.78233   0.00000  Uiso   1.00
H924   H     0.99143   0.37114   0.75126   0.00000  Uiso   1.00
H925   H     0.90814   0.35941   0.69367   0.00000  Uiso   1.00
H926   H     0.93826   0.41168   0.68955   0.00000  Uiso   1.00
C927   C     0.93018   0.27389   0.54362   0.00000  Uiso   1.00
C928   C     0.95121   0.23252   0.52516   0.00000  Uiso   1.00
H929   H     0.95181   0.20534   0.55294   0.00000  Uiso   1.00
H930   H     0.92813   0.22144   0.99123   0.00000  Uiso   1.00
H931   H     0.99065   0.24003   0.51744   0.00000  Uiso   1.00
H932   H     0.92937   0.30081   0.51603   0.00000  Uiso   1.00
H933   H     0.95795   0.28587   0.57433   0.00000  Uiso   1.00
C934   C     0.79543   0.16883   0.96720   0.00000  Uiso   1.00
C935   C     0.83840   0.14721   0.50058   0.00000  Uiso   1.00
H936   H     0.87348   0.14734   0.98301   0.00000  Uiso   1.00
H937   H     0.84715   0.16463   0.53523   0.00000  Uiso   1.00
H938   H     0.82671   0.11244   0.50904   0.00000  Uiso   1.00
H939   H     0.76278   0.17325   0.98680   0.00000  Uiso   1.00
H940   H     0.78058   0.14511   0.93871   0.00000  Uiso   1.00
C941   C     0.74918   0.20475   0.61584   0.00000  Uiso   1.00
C942   C     0.73376   0.16342   0.58608   0.00000  Uiso   1.00
H943   H     0.71181   0.17217   0.55067   0.00000  Uiso   1.00
H944   H     0.76784   0.14536   0.58055   0.00000  Uiso   1.00
H945   H     0.70881   0.14094   0.60572   0.00000  Uiso   1.00
H946   H     0.76063   0.19133   0.65244   0.00000  Uiso   1.00
H947   H     0.71541   0.22510   0.61550   0.00000  Uiso   1.00
C948   C     0.89207   0.31960   0.88012   0.00000  Uiso   1.00
C949   C     0.94267   0.32581   0.91324   0.00000  Uiso   1.00
H950   H     0.93771   0.34447   0.94571   0.00000  Uiso   1.00
H951   H     0.95883   0.29325   0.92435   0.00000  Uiso   1.00
H952   H     0.97030   0.34536   0.89364   0.00000  Uiso   1.00
H953   H     0.90338   0.31090   0.84560   0.00000  Uiso   1.00
H954   H     0.87295   0.35162   0.87548   0.00000  Uiso   1.00
C955   C     0.16669   0.66458   0.75087   0.00000  Uiso   1.00
C956   C     0.16735   0.83502   0.74927   0.00000  Uiso   1.00
C957   C     0.21163   0.76451   0.55965   0.00000  Uiso   1.00
C958   C     0.14625   0.71216   0.94457   0.00000  Uiso   1.00
C959   C     0.20786   0.76716   0.60978   0.00000  Uiso   1.00
C960   C     0.14470   0.71491   0.89328   0.00000  Uiso   1.00
C961   C     0.12568   0.73286   0.59833   0.00000  Uiso   1.00
C962   C     0.18987   0.78418   0.89871   0.00000  Uiso   1.00
C963   C     0.12364   0.73986   0.54799   0.00000  Uiso   1.00
C964   C     0.18298   0.78632   0.94766   0.00000  Uiso   1.00
C965   C     0.16744   0.75150   0.52727   0.00000  Uiso   1.00
C966   C     0.16528   0.74951   0.97266   0.00000  Uiso   1.00
C967   C     0.06842   0.75071   0.73794   0.00000  Uiso   1.00
C968   C     0.26523   0.74893   0.76212   0.00000  Uiso   1.00
C969   C     0.01489   0.75887   0.73294   0.00000  Uiso   1.00
C970   C     0.31956   0.74139   0.76723   0.00000  Uiso   1.00
C971   C     0.17995   0.54135   0.78677   0.00000  Uiso   1.00
C972   C     0.19823   0.95612   0.72161   0.00000  Uiso   1.00
C973   C     0.18179   0.58770   0.79229   0.00000  Uiso   1.00
C974   C     0.20351   0.90994   0.72606   0.00000  Uiso   1.00
C975   C     0.16370   0.61539   0.75151   0.00000  Uiso   1.00
C976   C     0.16595   0.88335   0.74650   0.00000  Uiso   1.00
C977   C     0.14144   0.59538   0.70840   0.00000  Uiso   1.00
C978   C     0.12479   0.90287   0.76252   0.00000  Uiso   1.00
C979   C     0.13726   0.54972   0.70468   0.00000  Uiso   1.00
C980   C     0.11995   0.94831   0.75806   0.00000  Uiso   1.00
C981   C     0.15669   0.52282   0.74349   0.00000  Uiso   1.00
C982   C     0.15655   0.97493   0.73799   0.00000  Uiso   1.00
Cu983  Cu    0.16667   0.75000   0.79822   0.00000  Uiso   1.00
Cu984  Cu    0.16667   0.75001   0.70179   0.00000  Uiso   1.00
H985   H     0.12660   0.61519   0.67711   0.00000  Uiso   1.00
H986   H     0.09632   0.88281   0.77864   0.00000  Uiso   1.00
H987   H     0.12003   0.53530   0.67101   0.00000  Uiso   1.00
H988   H     0.08869   0.96304   0.77199   0.00000  Uiso   1.00
H989   H     0.23876   0.78163   0.63351   0.00000  Uiso   1.00
H990   H     0.12747   0.68802   0.87145   0.00000  Uiso   1.00
H991   H     0.08836   0.73336   0.52471   0.00000  Uiso   1.00
H992   H     0.19437   0.81630   0.96705   0.00000  Uiso   1.00
N993   N     0.16667   0.75001   0.62935   0.00000  Uiso   1.00
N994   N     0.16667   0.74999   0.87066   0.00000  Uiso   1.00
O995   O     0.16667   0.68573   0.79072   0.00000  Uiso   1.00
O996   O     0.16666   0.81428   0.70929   0.00000  Uiso   1.00
O997   O     0.16667   0.68573   0.70928   0.00000  Uiso   1.00
O998   O     0.16666   0.81427   0.79072   0.00000  Uiso   1.00
O999   O     0.09161   0.75000   0.78132   0.00000  Uiso   1.00
O1000  O     0.24172   0.75001   0.71868   0.00000  Uiso   1.00
O1001  O     0.09161   0.75000   0.69989   0.00000  Uiso   1.00
O1002  O     0.24172   0.75000   0.80012   0.00000  Uiso   1.00
C1003  C     0.32859   0.78946   0.69048   0.00000  Uiso   1.00
C1004  C     0.03259   0.82689   0.67766   0.00000  Uiso   1.00
H1005  H     0.05427   0.84093   0.71080   0.00000  Uiso   1.00
H1006  H     0.05933   0.81507   0.65411   0.00000  Uiso   1.00
H1007  H     0.01128   0.85373   0.65713   0.00000  Uiso   1.00
H1008  H     0.31838   0.76873   0.65832   0.00000  Uiso   1.00
H1009  H     0.29541   0.80659   0.69864   0.00000  Uiso   1.00
C1010  C     0.00831   0.70895   0.80760   0.00000  Uiso   1.00
C1011  C     0.30377   0.67590   0.82705   0.00000  Uiso   1.00
H1012  H     0.28164   0.69212   0.85197   0.00000  Uiso   1.00
H1013  H     0.27836   0.66065   0.79657   0.00000  Uiso   1.00
H1014  H     0.32462   0.64917   0.84826   0.00000  Uiso   1.00
H1015  H     0.03565   0.68776   0.79336   0.00000  Uiso   1.00
H1016  H     0.02862   0.72795   0.83836   0.00000  Uiso   1.00
Cl1017 Cl    0.20915   0.50555   0.83315   0.00000  Uiso   1.00
Cl1018 Cl    0.24547   0.99158   0.69949   0.00000  Uiso   1.00
C1019  C     0.20237   0.60484   0.84198   0.00000  Uiso   1.00
C1020  C     0.16404   0.59493   0.87734   0.00000  Uiso   1.00
H1021  H     0.18049   0.60694   0.91331   0.00000  Uiso   1.00
H1022  H     0.12813   0.61151   0.86465   0.00000  Uiso   1.00
H1023  H     0.15504   0.55899   0.88129   0.00000  Uiso   1.00
H1024  H     0.23876   0.58934   0.85568   0.00000  Uiso   1.00
H1025  H     0.21216   0.64035   0.84263   0.00000  Uiso   1.00
C1026  C     0.25134   0.88996   0.71406   0.00000  Uiso   1.00
C1027  C     0.28767   0.88098   0.76032   0.00000  Uiso   1.00
H1028  H     0.29440   0.91128   0.78212   0.00000  Uiso   1.00
H1029  H     0.27189   0.85391   0.78233   0.00000  Uiso   1.00
H1030  H     0.32476   0.87114   0.75126   0.00000  Uiso   1.00
H1031  H     0.24147   0.85941   0.69367   0.00000  Uiso   1.00
H1032  H     0.27160   0.91168   0.68955   0.00000  Uiso   1.00
C1033  C     0.26351   0.77389   0.54362   0.00000  Uiso   1.00
C1034  C     0.28454   0.73252   0.52516   0.00000  Uiso   1.00
H1035  H     0.28514   0.70534   0.55294   0.00000  Uiso   1.00
H1036  H     0.26146   0.72144   0.99123   0.00000  Uiso   1.00
H1037  H     0.32399   0.74003   0.51744   0.00000  Uiso   1.00
H1038  H     0.26271   0.80081   0.51603   0.00000  Uiso   1.00
H1039  H     0.29128   0.78587   0.57433   0.00000  Uiso   1.00
C1040  C     0.12876   0.66883   0.96720   0.00000  Uiso   1.00
C1041  C     0.17174   0.64721   0.50058   0.00000  Uiso   1.00
H1042  H     0.20681   0.64734   0.98301   0.00000  Uiso   1.00
H1043  H     0.18048   0.66463   0.53523   0.00000  Uiso   1.00
H1044  H     0.16004   0.61244   0.50904   0.00000  Uiso   1.00
H1045  H     0.09612   0.67325   0.98680   0.00000  Uiso   1.00
H1046  H     0.11392   0.64511   0.93871   0.00000  Uiso   1.00
C1047  C     0.08251   0.70475   0.61584   0.00000  Uiso   1.00
C1048  C     0.06709   0.66342   0.58608   0.00000  Uiso   1.00
H1049  H     0.04514   0.67217   0.55067   0.00000  Uiso   1.00
H1050  H     0.10117   0.64536   0.58055   0.00000  Uiso   1.00
H1051  H     0.04214   0.64094   0.60572   0.00000  Uiso   1.00
H1052  H     0.09396   0.69133   0.65244   0.00000  Uiso   1.00
H1053  H     0.04874   0.72510   0.61550   0.00000  Uiso   1.00
C1054  C     0.22541   0.81960   0.88012   0.00000  Uiso   1.00
C1055  C     0.27600   0.82581   0.91324   0.00000  Uiso   1.00
H1056  H     0.27104   0.84447   0.94571   0.00000  Uiso   1.00
H1057  H     0.29216   0.79325   0.92435   0.00000  Uiso   1.00
H1058  H     0.30363   0.84536   0.89364   0.00000  Uiso   1.00
H1059  H     0.23671   0.81090   0.84560   0.00000  Uiso   1.00
H1060  H     0.20628   0.85162   0.87548   0.00000  Uiso   1.00
C1061  C     0.50002   0.66458   0.75087   0.00000  Uiso   1.00
C1062  C     0.50068   0.83502   0.74927   0.00000  Uiso   1.00
C1063  C     0.54496   0.76451   0.55965   0.00000  Uiso   1.00
C1064  C     0.47959   0.71216   0.94457   0.00000  Uiso   1.00
C1065  C     0.54120   0.76716   0.60978   0.00000  Uiso   1.00
C1066  C     0.47804   0.71491   0.89328   0.00000  Uiso   1.00
C1067  C     0.45901   0.73286   0.59833   0.00000  Uiso   1.00
C1068  C     0.52320   0.78418   0.89871   0.00000  Uiso   1.00
C1069  C     0.45698   0.73986   0.54799   0.00000  Uiso   1.00
C1070  C     0.51631   0.78632   0.94766   0.00000  Uiso   1.00
C1071  C     0.50077   0.75150   0.52727   0.00000  Uiso   1.00
C1072  C     0.49861   0.74951   0.97266   0.00000  Uiso   1.00
C1073  C     0.40176   0.75071   0.73794   0.00000  Uiso   1.00
C1074  C     0.59856   0.74893   0.76212   0.00000  Uiso   1.00
C1075  C     0.34822   0.75887   0.73294   0.00000  Uiso   1.00
C1076  C     0.65290   0.74139   0.76723   0.00000  Uiso   1.00
C1077  C     0.51329   0.54135   0.78677   0.00000  Uiso   1.00
C1078  C     0.53156   0.95612   0.72161   0.00000  Uiso   1.00
C1079  C     0.51513   0.58770   0.79229   0.00000  Uiso   1.00
C1080  C     0.53685   0.90994   0.72606   0.00000  Uiso   1.00
C1081  C     0.49704   0.61539   0.75151   0.00000  Uiso   1.00
C1082  C     0.49928   0.88335   0.74650   0.00000  Uiso   1.00
C1083  C     0.47478   0.59538   0.70840   0.00000  Uiso   1.00
C1084  C     0.45813   0.90287   0.76252   0.00000  Uiso   1.00
C1085  C     0.47059   0.54972   0.70468   0.00000  Uiso   1.00
C1086  C     0.45329   0.94831   0.75806   0.00000  Uiso   1.00
C1087  C     0.49003   0.52282   0.74349   0.00000  Uiso   1.00
C1088  C     0.48988   0.97493   0.73799   0.00000  Uiso   1.00
Cu1089 Cu    0.50000   0.75000   0.79822   0.00000  Uiso   1.00
Cu1090 Cu    0.50000   0.75001   0.70179   0.00000  Uiso   1.00
H1091  H     0.45994   0.61519   0.67711   0.00000  Uiso   1.00
H1092  H     0.42965   0.88281   0.77864   0.00000  Uiso   1.00
H1093  H     0.45337   0.53530   0.67101   0.00000  Uiso   1.00
H1094  H     0.42202   0.96304   0.77199   0.00000  Uiso   1.00
H1095  H     0.57209   0.78163   0.63351   0.00000  Uiso   1.00
H1096  H     0.46080   0.68802   0.87145   0.00000  Uiso   1.00
H1097  H     0.42170   0.73336   0.52471   0.00000  Uiso   1.00
H1098  H     0.52771   0.81630   0.96705   0.00000  Uiso   1.00
N1099  N     0.50000   0.75001   0.62935   0.00000  Uiso   1.00
N1100  N     0.50000   0.74999   0.87066   0.00000  Uiso   1.00
O1101  O     0.50000   0.68573   0.79072   0.00000  Uiso   1.00
O1102  O     0.50000   0.81428   0.70929   0.00000  Uiso   1.00
O1103  O     0.50000   0.68573   0.70928   0.00000  Uiso   1.00
O1104  O     0.50000   0.81427   0.79072   0.00000  Uiso   1.00
O1105  O     0.42495   0.75000   0.78132   0.00000  Uiso   1.00
O1106  O     0.57505   0.75001   0.71868   0.00000  Uiso   1.00
O1107  O     0.42495   0.75000   0.69989   0.00000  Uiso   1.00
O1108  O     0.57505   0.75000   0.80012   0.00000  Uiso   1.00
C1109  C     0.66192   0.78946   0.69048   0.00000  Uiso   1.00
C1110  C     0.36592   0.82689   0.67766   0.00000  Uiso   1.00
H1111  H     0.38760   0.84093   0.71080   0.00000  Uiso   1.00
H1112  H     0.39267   0.81507   0.65411   0.00000  Uiso   1.00
H1113  H     0.34461   0.85373   0.65713   0.00000  Uiso   1.00
H1114  H     0.65171   0.76873   0.65832   0.00000  Uiso   1.00
H1115  H     0.62875   0.80659   0.69864   0.00000  Uiso   1.00
C1116  C     0.34164   0.70895   0.80760   0.00000  Uiso   1.00
C1117  C     0.63710   0.67590   0.82705   0.00000  Uiso   1.00
H1118  H     0.61498   0.69212   0.85197   0.00000  Uiso   1.00
H1119  H     0.61170   0.66065   0.79657   0.00000  Uiso   1.00
H1120  H     0.65795   0.64917   0.84826   0.00000  Uiso   1.00
H1121  H     0.36898   0.68776   0.79336   0.00000  Uiso   1.00
H1122  H     0.36195   0.72795   0.83836   0.00000  Uiso   1.00
Cl1123 Cl    0.54249   0.50555   0.83315   0.00000  Uiso   1.00
Cl1124 Cl    0.57880   0.99158   0.69949   0.00000  Uiso   1.00
C1125  C     0.53570   0.60484   0.84198   0.00000  Uiso   1.00
C1126  C     0.49737   0.59493   0.87734   0.00000  Uiso   1.00
H1127  H     0.51382   0.60694   0.91331   0.00000  Uiso   1.00
H1128  H     0.46147   0.61151   0.86465   0.00000  Uiso   1.00
H1129  H     0.48837   0.55899   0.88129   0.00000  Uiso   1.00
H1130  H     0.57209   0.58934   0.85568   0.00000  Uiso   1.00
H1131  H     0.54549   0.64035   0.84263   0.00000  Uiso   1.00
C1132  C     0.58467   0.88996   0.71406   0.00000  Uiso   1.00
C1133  C     0.62100   0.88098   0.76032   0.00000  Uiso   1.00
H1134  H     0.62773   0.91128   0.78212   0.00000  Uiso   1.00
H1135  H     0.60522   0.85391   0.78233   0.00000  Uiso   1.00
H1136  H     0.65809   0.87114   0.75126   0.00000  Uiso   1.00
H1137  H     0.57481   0.85941   0.69367   0.00000  Uiso   1.00
H1138  H     0.60493   0.91168   0.68955   0.00000  Uiso   1.00
C1139  C     0.59685   0.77389   0.54362   0.00000  Uiso   1.00
C1140  C     0.61788   0.73252   0.52516   0.00000  Uiso   1.00
H1141  H     0.61848   0.70534   0.55294   0.00000  Uiso   1.00
H1142  H     0.59480   0.72144   0.99123   0.00000  Uiso   1.00
H1143  H     0.65732   0.74003   0.51744   0.00000  Uiso   1.00
H1144  H     0.59604   0.80081   0.51603   0.00000  Uiso   1.00
H1145  H     0.62461   0.78587   0.57433   0.00000  Uiso   1.00
C1146  C     0.46209   0.66883   0.96720   0.00000  Uiso   1.00
C1147  C     0.50507   0.64721   0.50058   0.00000  Uiso   1.00
H1148  H     0.54015   0.64734   0.98301   0.00000  Uiso   1.00
H1149  H     0.51381   0.66463   0.53523   0.00000  Uiso   1.00
H1150  H     0.49337   0.61244   0.50904   0.00000  Uiso   1.00
H1151  H     0.42945   0.67325   0.98680   0.00000  Uiso   1.00
H1152  H     0.44725   0.64511   0.93871   0.00000  Uiso   1.00
C1153  C     0.41585   0.70475   0.61584   0.00000  Uiso   1.00
C1154  C     0.40043   0.66342   0.58608   0.00000  Uiso   1.00
H1155  H     0.37848   0.67217   0.55067   0.00000  Uiso   1.00
H1156  H     0.43451   0.64536   0.58055   0.00000  Uiso   1.00
H1157  H     0.37548   0.64094   0.60572   0.00000  Uiso   1.00
H1158  H     0.42730   0.69133   0.65244   0.00000  Uiso   1.00
H1159  H     0.38207   0.72510   0.61550   0.00000  Uiso   1.00
C1160  C     0.55874   0.81960   0.88012   0.00000  Uiso   1.00
C1161  C     0.60934   0.82581   0.91324   0.00000  Uiso   1.00
H1162  H     0.60437   0.84447   0.94571   0.00000  Uiso   1.00
H1163  H     0.62550   0.79325   0.92435   0.00000  Uiso   1.00
H1164  H     0.63696   0.84536   0.89364   0.00000  Uiso   1.00
H1165  H     0.57004   0.81090   0.84560   0.00000  Uiso   1.00
H1166  H     0.53962   0.85162   0.87548   0.00000  Uiso   1.00
C1167  C     0.83335   0.66458   0.75087   0.00000  Uiso   1.00
C1168  C     0.83402   0.83502   0.74927   0.00000  Uiso   1.00
C1169  C     0.87830   0.76451   0.55965   0.00000  Uiso   1.00
C1170  C     0.81292   0.71216   0.94457   0.00000  Uiso   1.00
C1171  C     0.87453   0.76716   0.60978   0.00000  Uiso   1.00
C1172  C     0.81137   0.71491   0.89328   0.00000  Uiso   1.00
C1173  C     0.79235   0.73286   0.59833   0.00000  Uiso   1.00
C1174  C     0.85654   0.78418   0.89871   0.00000  Uiso   1.00
C1175  C     0.79031   0.73986   0.54799   0.00000  Uiso   1.00
C1176  C     0.84965   0.78632   0.94766   0.00000  Uiso   1.00
C1177  C     0.83410   0.75150   0.52727   0.00000  Uiso   1.00
C1178  C     0.83194   0.74951   0.97266   0.00000  Uiso   1.00
C1179  C     0.73509   0.75071   0.73794   0.00000  Uiso   1.00
C1180  C     0.93190   0.74893   0.76212   0.00000  Uiso   1.00
C1181  C     0.68156   0.75887   0.73294   0.00000  Uiso   1.00
C1182  C     0.98623   0.74139   0.76723   0.00000  Uiso   1.00
C1183  C     0.84662   0.54135   0.78677   0.00000  Uiso   1.00
C1184  C     0.86489   0.95612   0.72161   0.00000  Uiso   1.00
C1185  C     0.84846   0.58770   0.79229   0.00000  Uiso   1.00
C1186  C     0.87018   0.90994   0.72606   0.00000  Uiso   1.00
C1187  C     0.83037   0.61539   0.75151   0.00000  Uiso   1.00
C1188  C     0.83261   0.88335   0.74650   0.00000  Uiso   1.00
C1189  C     0.80811   0.59538   0.70840   0.00000  Uiso   1.00
C1190  C     0.79146   0.90287   0.76252   0.00000  Uiso   1.00
C1191  C     0.80393   0.54972   0.70468   0.00000  Uiso   1.00
C1192  C     0.78662   0.94831   0.75806   0.00000  Uiso   1.00
C1193  C     0.82336   0.52282   0.74349   0.00000  Uiso   1.00
C1194  C     0.82321   0.97493   0.73799   0.00000  Uiso   1.00
Cu1195 Cu    0.83333   0.75000   0.79822   0.00000  Uiso   1.00
Cu1196 Cu    0.83333   0.75001   0.70179   0.00000  Uiso   1.00
H1197  H     0.79327   0.61519   0.67711   0.00000  Uiso   1.00
H1198  H     0.76299   0.88281   0.77864   0.00000  Uiso   1.00
H1199  H     0.78670   0.53530   0.67101   0.00000  Uiso   1.00
H1200  H     0.75535   0.96304   0.77199   0.00000  Uiso   1.00
H1201  H     0.90543   0.78163   0.63351   0.00000  Uiso   1.00
H1202  H     0.79413   0.68802   0.87145   0.00000  Uiso   1.00
H1203  H     0.75503   0.73336   0.52471   0.00000  Uiso   1.00
H1204  H     0.86104   0.81630   0.96705   0.00000  Uiso   1.00
N1205  N     0.83333   0.75001   0.62935   0.00000  Uiso   1.00
N1206  N     0.83333   0.74999   0.87066   0.00000  Uiso   1.00
O1207  O     0.83334   0.68573   0.79072   0.00000  Uiso   1.00
O1208  O     0.83333   0.81428   0.70929   0.00000  Uiso   1.00
O1209  O     0.83334   0.68573   0.70928   0.00000  Uiso   1.00
O1210  O     0.83333   0.81427   0.79072   0.00000  Uiso   1.00
O1211  O     0.75828   0.75000   0.78132   0.00000  Uiso   1.00
O1212  O     0.90839   0.75001   0.71868   0.00000  Uiso   1.00
O1213  O     0.75828   0.75000   0.69989   0.00000  Uiso   1.00
O1214  O     0.90839   0.75000   0.80012   0.00000  Uiso   1.00
C1215  C     0.99525   0.78946   0.69048   0.00000  Uiso   1.00
C1216  C     0.69925   0.82689   0.67766   0.00000  Uiso   1.00
H1217  H     0.72093   0.84093   0.71080   0.00000  Uiso   1.00
H1218  H     0.72600   0.81507   0.65411   0.00000  Uiso   1.00
H1219  H     0.67794   0.85373   0.65713   0.00000  Uiso   1.00
H1220  H     0.98504   0.76873   0.65832   0.00000  Uiso   1.00
H1221  H     0.96208   0.80659   0.69864   0.00000  Uiso   1.00
C1222  C     0.67497   0.70895   0.80760   0.00000  Uiso   1.00
C1223  C     0.97044   0.67590   0.82705   0.00000  Uiso   1.00
H1224  H     0.94831   0.69212   0.85197   0.00000  Uiso   1.00
H1225  H     0.94503   0.66065   0.79657   0.00000  Uiso   1.00
H1226  H     0.99129   0.64917   0.84826   0.00000  Uiso   1.00
H1227  H     0.70232   0.68776   0.79336   0.00000  Uiso   1.00
H1228  H     0.69528   0.72795   0.83836   0.00000  Uiso   1.00
Cl1229 Cl    0.87582   0.50555   0.83315   0.00000  Uiso   1.00
Cl1230 Cl    0.91214   0.99158   0.69949   0.00000  Uiso   1.00
C1231  C     0.86903   0.60484   0.84198   0.00000  Uiso   1.00
C1232  C     0.83071   0.59493   0.87734   0.00000  Uiso   1.00
H1233  H     0.84716   0.60694   0.91331   0.00000  Uiso   1.00
H1234  H     0.79480   0.61151   0.86465   0.00000  Uiso   1.00
H1235  H     0.82170   0.55899   0.88129   0.00000  Uiso   1.00
H1236  H     0.90543   0.58934   0.85568   0.00000  Uiso   1.00
H1237  H     0.87882   0.64035   0.84263   0.00000  Uiso   1.00
C1238  C     0.91801   0.88996   0.71406   0.00000  Uiso   1.00
C1239  C     0.95434   0.88098   0.76032   0.00000  Uiso   1.00
H1240  H     0.96107   0.91128   0.78212   0.00000  Uiso   1.00
H1241  H     0.93855   0.85391   0.78233   0.00000  Uiso   1.00
H1242  H     0.99143   0.87114   0.75126   0.00000  Uiso   1.00
H1243  H     0.90814   0.85941   0.69367   0.00000  Uiso   1.00
H1244  H     0.93826   0.91168   0.68955   0.00000  Uiso   1.00
C1245  C     0.93018   0.77389   0.54362   0.00000  Uiso   1.00
C1246  C     0.95121   0.73252   0.52516   0.00000  Uiso   1.00
H1247  H     0.95181   0.70534   0.55294   0.00000  Uiso   1.00
H1248  H     0.92813   0.72144   0.99123   0.00000  Uiso   1.00
H1249  H     0.99065   0.74003   0.51744   0.00000  Uiso   1.00
H1250  H     0.92937   0.80081   0.51603   0.00000  Uiso   1.00
H1251  H     0.95795   0.78587   0.57433   0.00000  Uiso   1.00
C1252  C     0.79543   0.66883   0.96720   0.00000  Uiso   1.00
C1253  C     0.83840   0.64721   0.50058   0.00000  Uiso   1.00
H1254  H     0.87348   0.64734   0.98301   0.00000  Uiso   1.00
H1255  H     0.84715   0.66463   0.53523   0.00000  Uiso   1.00
H1256  H     0.82671   0.61244   0.50904   0.00000  Uiso   1.00
H1257  H     0.76278   0.67325   0.98680   0.00000  Uiso   1.00
H1258  H     0.78058   0.64511   0.93871   0.00000  Uiso   1.00
C1259  C     0.74918   0.70475   0.61584   0.00000  Uiso   1.00
C1260  C     0.73376   0.66342   0.58608   0.00000  Uiso   1.00
H1261  H     0.71181   0.67217   0.55067   0.00000  Uiso   1.00
H1262  H     0.76784   0.64536   0.58055   0.00000  Uiso   1.00
H1263  H     0.70881   0.64094   0.60572   0.00000  Uiso   1.00
H1264  H     0.76063   0.69133   0.65244   0.00000  Uiso   1.00
H1265  H     0.71541   0.72510   0.61550   0.00000  Uiso   1.00
C1266  C     0.89207   0.81960   0.88012   0.00000  Uiso   1.00
C1267  C     0.94267   0.82581   0.91324   0.00000  Uiso   1.00
H1268  H     0.93771   0.84447   0.94571   0.00000  Uiso   1.00
H1269  H     0.95883   0.79325   0.92435   0.00000  Uiso   1.00
H1270  H     0.97030   0.84536   0.89364   0.00000  Uiso   1.00
H1271  H     0.90338   0.81090   0.84560   0.00000  Uiso   1.00
H1272  H     0.87295   0.85162   0.87548   0.00000  Uiso   1.00
loop_
_geom_bond_atom_site_label_1
_geom_bond_atom_site_label_2
_geom_bond_distance
_geom_bond_site_symmetry_2
_ccdc_geom_bond_type
C1     C21     1.487   .     S
C1     O43     1.307   .     A
C1     O41     1.301   .     A
C2     O44     1.300   .     A
C2     C22     1.464   .     S
C2     O42     1.295   .     A
C3     C79     1.518   .     S
C3     C5      1.421   .     A
C3     C11     1.429   .     A
C4     C86     1.517   .     S
C4     C12     1.429   .     A
C4     C6      1.426   .     A
C5     N39     1.362   .     A
C5     H35     1.069   .     S
C6     N40     1.365   .     A
C6     H36     1.079   .     S
C7     C93     1.520   .     S
C7     C9      1.408   .     A
C7     N39     1.387   .     A
C8     C100    1.520   .     S
C8     C10     1.406   .     A
C8     N40     1.387   .     A
C9     H37     1.080   .     S
C9     C11     1.394   .     A
C10    C12     1.392   .     A
C10    H38     1.081   .     S
C11    C648    1.520   1_554 S
C12    C647    1.520   .     S
C13    O47     1.299   .     A
C13    C15     1.443   .     S
C13    O45     1.282   .     A
C14    O46     1.286   .     A
C14    O48     1.303   .     A
C14    C16     1.460   .     S
C15    C228    1.379   1_455 S
C15    C261    1.530   1_455 S
C16    C121    1.379   .     S
C16    C162    1.543   .     S
C17    C27     1.401   .     A
C17    Cl63    1.780   .     S
C17    C19     1.414   .     A
C18    C20     1.411   .     A
C18    C28     1.405   .     A
C18    Cl64    1.774   .     S
C19    C21     1.434   .     A
C19    C65     1.518   .     S
C20    C22     1.420   .     A
C20    C72     1.515   .     S
C21    C23     1.409   .     A
C22    C24     1.399   .     A
C23    C25     1.387   .     A
C23    H31     1.083   .     S
C24    C26     1.388   .     A
C24    H32     1.084   .     S
C25    C27     1.390   .     A
C25    H33     1.084   .     S
C26    H34     1.084   .     S
C26    C28     1.397   .     A
C27    C346    1.462   1_545 S
C28    C345    1.462   .     S
Cu29   Cu30    2.690   .     S
Cu29   O48     1.988   .     S
Cu29   O45     1.987   .     S
Cu29   O44     1.950   .     S
Cu29   O41     1.963   .     S
Cu29   N40     2.021   .     S
Cu30   O47     1.988   .     S
Cu30   O43     1.950   .     S
Cu30   O46     1.987   .     S
Cu30   N39     2.021   .     S
Cu30   O42     1.963   .     S
C49    H54     1.108   .     S
C49    H55     1.097   .     S
C49    C121    1.530   .     S
C49    C156    1.536   .     S
C50    H52     1.109   .     S
C50    H53     1.111   .     S
C50    H51     1.107   .     S
C50    C261    1.536   1_455 S
C56    H62     1.112   .     S
C56    H61     1.112   .     S
C56    C228    1.543   1_455 S
C56    C269    1.525   1_455 S
C57    H59     1.110   .     S
C57    H60     1.111   .     S
C57    H58     1.109   .     S
C57    C162    1.525   .     S
C65    H71     1.094   .     S
C65    C66     1.525   .     S
C65    H70     1.111   .     S
C66    H68     1.109   .     S
C66    H69     1.108   .     S
C66    H67     1.104   .     S
C72    H78     1.107   .     S
C72    C73     1.529   .     S
C72    H77     1.104   .     S
C73    H74     1.111   .     S
C73    H75     1.108   .     S
C73    H76     1.106   .     S
C79    H84     1.101   .     S
C79    H85     1.111   .     S
C79    C80     1.527   .     S
C80    H83     1.110   .     S
C80    H81     1.111   .     S
C80    H718    1.108   1_554 S
H82    C716    1.108   .     S
C86    H91     1.102   .     S
C86    H92     1.108   .     S
C86    C723    1.531   .     S
C87    H90     1.110   .     S
C87    H89     1.108   .     S
C87    C722    1.531   1_554 S
C87    H724    1.110   1_554 S
H88    C723    1.110   .     S
C93    C94     1.532   .     S
C93    H99     1.111   .     S
C93    H98     1.096   .     S
C94    H97     1.111   .     S
C94    H96     1.111   .     S
C94    H95     1.108   .     S
C100   H105    1.091   .     S
C100   H106    1.112   .     S
C100   C101    1.532   .     S
C101   H103    1.112   .     S
C101   H102    1.109   .     S
C101   H104    1.111   .     S
C107   C127    1.487   .     S
C107   O149    1.307   .     A
C107   O147    1.301   .     A
C108   O150    1.300   .     A
C108   C128    1.464   .     S
C108   O148    1.295   .     A
C109   C185    1.518   .     S
C109   C111    1.421   .     A
C109   C117    1.429   .     A
C110   C192    1.517   .     S
C110   C118    1.429   .     A
C110   C112    1.426   .     A
C111   N145    1.362   .     A
C111   H141    1.069   .     S
C112   N146    1.365   .     A
C112   H142    1.079   .     S
C113   C199    1.520   .     S
C113   C115    1.408   .     A
C113   N145    1.387   .     A
C114   C206    1.520   .     S
C114   C116    1.406   .     A
C114   N146    1.387   .     A
C115   H143    1.080   .     S
C115   C117    1.394   .     A
C116   C118    1.392   .     A
C116   H144    1.081   .     S
C117   C754    1.520   1_554 S
C118   C753    1.520   .     S
C119   O153    1.299   .     A
C119   C121    1.443   .     S
C119   O151    1.282   .     A
C120   O152    1.286   .     A
C120   O154    1.303   .     A
C120   C122    1.460   .     S
C122   C227    1.379   .     S
C122   C268    1.543   .     S
C123   C133    1.401   .     A
C123   Cl169   1.780   .     S
C123   C125    1.414   .     A
C124   C126    1.411   .     A
C124   C134    1.405   .     A
C124   Cl170   1.774   .     S
C125   C127    1.434   .     A
C125   C171    1.518   .     S
C126   C128    1.420   .     A
C126   C178    1.515   .     S
C127   C129    1.409   .     A
C128   C130    1.399   .     A
C129   C131    1.387   .     A
C129   H137    1.083   .     S
C130   C132    1.388   .     A
C130   H138    1.084   .     S
C131   C133    1.390   .     A
C131   H139    1.084   .     S
C132   H140    1.084   .     S
C132   C134    1.397   .     A
C133   C452    1.462   1_545 S
C134   C451    1.462   .     S
Cu135  Cu136   2.690   .     S
Cu135  O154    1.988   .     S
Cu135  O151    1.987   .     S
Cu135  O150    1.950   .     S
Cu135  O147    1.963   .     S
Cu135  N146    2.021   .     S
Cu136  O153    1.988   .     S
Cu136  O149    1.950   .     S
Cu136  O152    1.987   .     S
Cu136  N145    2.021   .     S
Cu136  O148    1.963   .     S
C155   H160    1.108   .     S
C155   H161    1.097   .     S
C155   C227    1.530   .     S
C155   C262    1.536   .     S
C156   H158    1.109   .     S
C156   H159    1.111   .     S
C156   H157    1.107   .     S
C162   H168    1.112   .     S
C162   H167    1.112   .     S
C163   H165    1.110   .     S
C163   H166    1.111   .     S
C163   H164    1.109   .     S
C163   C268    1.525   .     S
C171   H177    1.094   .     S
C171   C172    1.525   .     S
C171   H176    1.111   .     S
C172   H174    1.109   .     S
C172   H175    1.108   .     S
C172   H173    1.104   .     S
C178   H184    1.107   .     S
C178   C179    1.529   .     S
C178   H183    1.104   .     S
C179   H180    1.111   .     S
C179   H181    1.108   .     S
C179   H182    1.106   .     S
C185   H190    1.101   .     S
C185   H191    1.111   .     S
C185   C186    1.527   .     S
C186   H189    1.110   .     S
C186   H187    1.111   .     S
C186   H824    1.108   1_554 S
H188   C822    1.108   .     S
C192   H197    1.102   .     S
C192   H198    1.108   .     S
C192   C829    1.531   .     S
C193   H196    1.110   .     S
C193   H195    1.108   .     S
C193   C828    1.531   1_554 S
C193   H830    1.110   1_554 S
H194   C829    1.110   .     S
C199   C200    1.532   .     S
C199   H205    1.111   .     S
C199   H204    1.096   .     S
C200   H203    1.111   .     S
C200   H202    1.111   .     S
C200   H201    1.108   .     S
C206   H211    1.091   .     S
C206   H212    1.112   .     S
C206   C207    1.532   .     S
C207   H209    1.112   .     S
C207   H208    1.109   .     S
C207   H210    1.111   .     S
C213   C233    1.487   .     S
C213   O255    1.307   .     A
C213   O253    1.301   .     A
C214   O256    1.300   .     A
C214   C234    1.464   .     S
C214   O254    1.295   .     A
C215   C291    1.518   .     S
C215   C217    1.421   .     A
C215   C223    1.429   .     A
C216   C298    1.517   .     S
C216   C224    1.429   .     A
C216   C218    1.426   .     A
C217   N251    1.362   .     A
C217   H247    1.069   .     S
C218   N252    1.365   .     A
C218   H248    1.079   .     S
C219   C305    1.520   .     S
C219   C221    1.408   .     A
C219   N251    1.387   .     A
C220   C312    1.520   .     S
C220   C222    1.406   .     A
C220   N252    1.387   .     A
C221   H249    1.080   .     S
C221   C223    1.394   .     A
C222   C224    1.392   .     A
C222   H250    1.081   .     S
C223   C860    1.520   1_554 S
C224   C859    1.520   .     S
C225   O259    1.299   .     A
C225   C227    1.443   .     S
C225   O257    1.282   .     A
C226   O258    1.286   .     A
C226   O260    1.303   .     A
C226   C228    1.460   .     S
C228   C15     1.379   1_655 S
C228   C56     1.543   1_655 S
C229   C239    1.401   .     A
C229   Cl275   1.780   .     S
C229   C231    1.414   .     A
C230   C232    1.411   .     A
C230   C240    1.405   .     A
C230   Cl276   1.774   .     S
C231   C233    1.434   .     A
C231   C277    1.518   .     S
C232   C234    1.420   .     A
C232   C284    1.515   .     S
C233   C235    1.409   .     A
C234   C236    1.399   .     A
C235   C237    1.387   .     A
C235   H243    1.083   .     S
C236   C238    1.388   .     A
C236   H244    1.084   .     S
C237   C239    1.390   .     A
C237   H245    1.084   .     S
C238   H246    1.084   .     S
C238   C240    1.397   .     A
C239   C558    1.462   1_545 S
C240   C557    1.462   .     S
Cu241  Cu242   2.690   .     S
Cu241  O260    1.988   .     S
Cu241  O257    1.987   .     S
Cu241  O256    1.950   .     S
Cu241  O253    1.963   .     S
Cu241  N252    2.021   .     S
Cu242  O259    1.988   .     S
Cu242  O255    1.950   .     S
Cu242  O258    1.987   .     S
Cu242  N251    2.021   .     S
Cu242  O254    1.963   .     S
C261   H266    1.108   .     S
C261   H267    1.097   .     S
C261   C15     1.530   1_655 S
C261   C50     1.536   1_655 S
C262   H264    1.109   .     S
C262   H265    1.111   .     S
C262   H263    1.107   .     S
C268   H274    1.112   .     S
C268   H273    1.112   .     S
C269   H271    1.110   .     S
C269   H272    1.111   .     S
C269   H270    1.109   .     S
C269   C56     1.525   1_655 S
C277   H283    1.094   .     S
C277   C278    1.525   .     S
C277   H282    1.111   .     S
C278   H280    1.109   .     S
C278   H281    1.108   .     S
C278   H279    1.104   .     S
C284   H290    1.107   .     S
C284   C285    1.529   .     S
C284   H289    1.104   .     S
C285   H286    1.111   .     S
C285   H287    1.108   .     S
C285   H288    1.106   .     S
C291   H296    1.101   .     S
C291   H297    1.111   .     S
C291   C292    1.527   .     S
C292   H295    1.110   .     S
C292   H293    1.111   .     S
C292   H930    1.108   1_554 S
H294   C928    1.108   .     S
C298   H303    1.102   .     S
C298   H304    1.108   .     S
C298   C935    1.531   .     S
C299   H302    1.110   .     S
C299   H301    1.108   .     S
C299   C934    1.531   1_554 S
C299   H936    1.110   1_554 S
H300   C935    1.110   .     S
C305   C306    1.532   .     S
C305   H311    1.111   .     S
C305   H310    1.096   .     S
C306   H309    1.111   .     S
C306   H308    1.111   .     S
C306   H307    1.108   .     S
C312   H317    1.091   .     S
C312   H318    1.112   .     S
C312   C313    1.532   .     S
C313   H315    1.112   .     S
C313   H314    1.109   .     S
C313   H316    1.111   .     S
C319   C339    1.487   .     S
C319   O361    1.307   .     A
C319   O359    1.301   .     A
C320   O362    1.300   .     A
C320   C340    1.464   .     S
C320   O360    1.295   .     A
C321   C397    1.518   .     S
C321   C323    1.421   .     A
C321   C329    1.429   .     A
C322   C404    1.517   .     S
C322   C330    1.429   .     A
C322   C324    1.426   .     A
C323   N357    1.362   .     A
C323   H353    1.069   .     S
C324   N358    1.365   .     A
C324   H354    1.079   .     S
C325   C411    1.520   .     S
C325   C327    1.408   .     A
C325   N357    1.387   .     A
C326   C418    1.520   .     S
C326   C328    1.406   .     A
C326   N358    1.387   .     A
C327   H355    1.080   .     S
C327   C329    1.394   .     A
C328   C330    1.392   .     A
C328   H356    1.081   .     S
C329   C966    1.520   1_554 S
C330   C965    1.520   .     S
C331   O365    1.299   .     A
C331   C333    1.443   .     S
C331   O363    1.282   .     A
C332   O364    1.286   .     A
C332   O366    1.303   .     A
C332   C334    1.460   .     S
C333   C546    1.379   1_455 S
C333   C579    1.530   1_455 S
C334   C439    1.379   .     S
C334   C480    1.543   .     S
C335   C345    1.401   .     A
C335   Cl381   1.780   .     S
C335   C337    1.414   .     A
C336   C338    1.411   .     A
C336   C346    1.405   .     A
C336   Cl382   1.774   .     S
C337   C339    1.434   .     A
C337   C383    1.518   .     S
C338   C340    1.420   .     A
C338   C390    1.515   .     S
C339   C341    1.409   .     A
C340   C342    1.399   .     A
C341   C343    1.387   .     A
C341   H349    1.083   .     S
C342   C344    1.388   .     A
C342   H350    1.084   .     S
C343   C345    1.390   .     A
C343   H351    1.084   .     S
C344   H352    1.084   .     S
C344   C346    1.397   .     A
C346   C27     1.462   1_565 S
Cu347  Cu348   2.690   .     S
Cu347  O366    1.988   .     S
Cu347  O363    1.987   .     S
Cu347  O362    1.950   .     S
Cu347  O359    1.963   .     S
Cu347  N358    2.021   .     S
Cu348  O365    1.988   .     S
Cu348  O361    1.950   .     S
Cu348  O364    1.987   .     S
Cu348  N357    2.021   .     S
Cu348  O360    1.963   .     S
C367   H372    1.108   .     S
C367   H373    1.097   .     S
C367   C439    1.530   .     S
C367   C474    1.536   .     S
C368   H370    1.109   .     S
C368   H371    1.111   .     S
C368   H369    1.107   .     S
C368   C579    1.536   1_455 S
C374   H380    1.112   .     S
C374   H379    1.112   .     S
C374   C546    1.543   1_455 S
C374   C587    1.525   1_455 S
C375   H377    1.110   .     S
C375   H378    1.111   .     S
C375   H376    1.109   .     S
C375   C480    1.525   .     S
C383   H389    1.094   .     S
C383   C384    1.525   .     S
C383   H388    1.111   .     S
C384   H386    1.109   .     S
C384   H387    1.108   .     S
C384   H385    1.104   .     S
C390   H396    1.107   .     S
C390   C391    1.529   .     S
C390   H395    1.104   .     S
C391   H392    1.111   .     S
C391   H393    1.108   .     S
C391   H394    1.106   .     S
C397   H402    1.101   .     S
C397   H403    1.111   .     S
C397   C398    1.527   .     S
C398   H401    1.110   .     S
C398   H399    1.111   .     S
C398   H1036   1.108   1_554 S
H400   C1034   1.108   .     S
C404   H409    1.102   .     S
C404   H410    1.108   .     S
C404   C1041   1.531   .     S
C405   H408    1.110   .     S
C405   H407    1.108   .     S
C405   C1040   1.531   1_554 S
C405   H1042   1.110   1_554 S
H406   C1041   1.110   .     S
C411   C412    1.532   .     S
C411   H417    1.111   .     S
C411   H416    1.096   .     S
C412   H415    1.111   .     S
C412   H414    1.111   .     S
C412   H413    1.108   .     S
C418   H423    1.091   .     S
C418   H424    1.112   .     S
C418   C419    1.532   .     S
C419   H421    1.112   .     S
C419   H420    1.109   .     S
C419   H422    1.111   .     S
C425   C445    1.487   .     S
C425   O467    1.307   .     A
C425   O465    1.301   .     A
C426   O468    1.300   .     A
C426   C446    1.464   .     S
C426   O466    1.295   .     A
C427   C503    1.518   .     S
C427   C429    1.421   .     A
C427   C435    1.429   .     A
C428   C510    1.517   .     S
C428   C436    1.429   .     A
C428   C430    1.426   .     A
C429   N463    1.362   .     A
C429   H459    1.069   .     S
C430   N464    1.365   .     A
C430   H460    1.079   .     S
C431   C517    1.520   .     S
C431   C433    1.408   .     A
C431   N463    1.387   .     A
C432   C524    1.520   .     S
C432   C434    1.406   .     A
C432   N464    1.387   .     A
C433   H461    1.080   .     S
C433   C435    1.394   .     A
C434   C436    1.392   .     A
C434   H462    1.081   .     S
C435   C1072   1.520   1_554 S
C436   C1071   1.520   .     S
C437   O471    1.299   .     A
C437   C439    1.443   .     S
C437   O469    1.282   .     A
C438   O470    1.286   .     A
C438   O472    1.303   .     A
C438   C440    1.460   .     S
C440   C545    1.379   .     S
C440   C586    1.543   .     S
C441   C451    1.401   .     A
C441   Cl487   1.780   .     S
C441   C443    1.414   .     A
C442   C444    1.411   .     A
C442   C452    1.405   .     A
C442   Cl488   1.774   .     S
C443   C445    1.434   .     A
C443   C489    1.518   .     S
C444   C446    1.420   .     A
C444   C496    1.515   .     S
C445   C447    1.409   .     A
C446   C448    1.399   .     A
C447   C449    1.387   .     A
C447   H455    1.083   .     S
C448   C450    1.388   .     A
C448   H456    1.084   .     S
C449   C451    1.390   .     A
C449   H457    1.084   .     S
C450   H458    1.084   .     S
C450   C452    1.397   .     A
C452   C133    1.462   1_565 S
Cu453  Cu454   2.690   .     S
Cu453  O472    1.988   .     S
Cu453  O469    1.987   .     S
Cu453  O468    1.950   .     S
Cu453  O465    1.963   .     S
Cu453  N464    2.021   .     S
Cu454  O471    1.988   .     S
Cu454  O467    1.950   .     S
Cu454  O470    1.987   .     S
Cu454  N463    2.021   .     S
Cu454  O466    1.963   .     S
C473   H478    1.108   .     S
C473   H479    1.097   .     S
C473   C545    1.530   .     S
C473   C580    1.536   .     S
C474   H476    1.109   .     S
C474   H477    1.111   .     S
C474   H475    1.107   .     S
C480   H486    1.112   .     S
C480   H485    1.112   .     S
C481   H483    1.110   .     S
C481   H484    1.111   .     S
C481   H482    1.109   .     S
C481   C586    1.525   .     S
C489   H495    1.094   .     S
C489   C490    1.525   .     S
C489   H494    1.111   .     S
C490   H492    1.109   .     S
C490   H493    1.108   .     S
C490   H491    1.104   .     S
C496   H502    1.107   .     S
C496   C497    1.529   .     S
C496   H501    1.104   .     S
C497   H498    1.111   .     S
C497   H499    1.108   .     S
C497   H500    1.106   .     S
C503   H508    1.101   .     S
C503   H509    1.111   .     S
C503   C504    1.527   .     S
C504   H507    1.110   .     S
C504   H505    1.111   .     S
C504   H1142   1.108   1_554 S
H506   C1140   1.108   .     S
C510   H515    1.102   .     S
C510   H516    1.108   .     S
C510   C1147   1.531   .     S
C511   H514    1.110   .     S
C511   H513    1.108   .     S
C511   C1146   1.531   1_554 S
C511   H1148   1.110   1_554 S
H512   C1147   1.110   .     S
C517   C518    1.532   .     S
C517   H523    1.111   .     S
C517   H522    1.096   .     S
C518   H521    1.111   .     S
C518   H520    1.111   .     S
C518   H519    1.108   .     S
C524   H529    1.091   .     S
C524   H530    1.112   .     S
C524   C525    1.532   .     S
C525   H527    1.112   .     S
C525   H526    1.109   .     S
C525   H528    1.111   .     S
C531   C551    1.487   .     S
C531   O573    1.307   .     A
C531   O571    1.301   .     A
C532   O574    1.300   .     A
C532   C552    1.464   .     S
C532   O572    1.295   .     A
C533   C609    1.518   .     S
C533   C535    1.421   .     A
C533   C541    1.429   .     A
C534   C616    1.517   .     S
C534   C542    1.429   .     A
C534   C536    1.426   .     A
C535   N569    1.362   .     A
C535   H565    1.069   .     S
C536   N570    1.365   .     A
C536   H566    1.079   .     S
C537   C623    1.520   .     S
C537   C539    1.408   .     A
C537   N569    1.387   .     A
C538   C630    1.520   .     S
C538   C540    1.406   .     A
C538   N570    1.387   .     A
C539   H567    1.080   .     S
C539   C541    1.394   .     A
C540   C542    1.392   .     A
C540   H568    1.081   .     S
C541   C1178   1.520   1_554 S
C542   C1177   1.520   .     S
C543   O577    1.299   .     A
C543   C545    1.443   .     S
C543   O575    1.282   .     A
C544   O576    1.286   .     A
C544   O578    1.303   .     A
C544   C546    1.460   .     S
C546   C333    1.379   1_655 S
C546   C374    1.543   1_655 S
C547   C557    1.401   .     A
C547   Cl593   1.780   .     S
C547   C549    1.414   .     A
C548   C550    1.411   .     A
C548   C558    1.405   .     A
C548   Cl594   1.774   .     S
C549   C551    1.434   .     A
C549   C595    1.518   .     S
C550   C552    1.420   .     A
C550   C602    1.515   .     S
C551   C553    1.409   .     A
C552   C554    1.399   .     A
C553   C555    1.387   .     A
C553   H561    1.083   .     S
C554   C556    1.388   .     A
C554   H562    1.084   .     S
C555   C557    1.390   .     A
C555   H563    1.084   .     S
C556   H564    1.084   .     S
C556   C558    1.397   .     A
C558   C239    1.462   1_565 S
Cu559  Cu560   2.690   .     S
Cu559  O578    1.988   .     S
Cu559  O575    1.987   .     S
Cu559  O574    1.950   .     S
Cu559  O571    1.963   .     S
Cu559  N570    2.021   .     S
Cu560  O577    1.988   .     S
Cu560  O573    1.950   .     S
Cu560  O576    1.987   .     S
Cu560  N569    2.021   .     S
Cu560  O572    1.963   .     S
C579   H584    1.108   .     S
C579   H585    1.097   .     S
C579   C333    1.530   1_655 S
C579   C368    1.536   1_655 S
C580   H582    1.109   .     S
C580   H583    1.111   .     S
C580   H581    1.107   .     S
C586   H592    1.112   .     S
C586   H591    1.112   .     S
C587   H589    1.110   .     S
C587   H590    1.111   .     S
C587   H588    1.109   .     S
C587   C374    1.525   1_655 S
C595   H601    1.094   .     S
C595   C596    1.525   .     S
C595   H600    1.111   .     S
C596   H598    1.109   .     S
C596   H599    1.108   .     S
C596   H597    1.104   .     S
C602   H608    1.107   .     S
C602   C603    1.529   .     S
C602   H607    1.104   .     S
C603   H604    1.111   .     S
C603   H605    1.108   .     S
C603   H606    1.106   .     S
C609   H614    1.101   .     S
C609   H615    1.111   .     S
C609   C610    1.527   .     S
C610   H613    1.110   .     S
C610   H611    1.111   .     S
C610   H1248   1.108   1_554 S
H612   C1246   1.108   .     S
C616   H621    1.102   .     S
C616   H622    1.108   .     S
C616   C1253   1.531   .     S
C617   H620    1.110   .     S
C617   H619    1.108   .     S
C617   C1252   1.531   1_554 S
C617   H1254   1.110   1_554 S
H618   C1253   1.110   .     S
C623   C624    1.532   .     S
C623   H629    1.111   .     S
C623   H628    1.096   .     S
C624   H627    1.111   .     S
C624   H626    1.111   .     S
C624   H625    1.108   .     S
C630   H635    1.091   .     S
C630   H636    1.112   .     S
C630   C631    1.532   .     S
C631   H633    1.112   .     S
C631   H632    1.109   .     S
C631   H634    1.111   .     S
C637   C657    1.487   .     S
C637   O679    1.307   .     A
C637   O677    1.301   .     A
C638   O680    1.300   .     A
C638   C658    1.464   .     S
C638   O678    1.295   .     A
C639   C715    1.518   .     S
C639   C641    1.421   .     A
C639   C647    1.429   .     A
C640   C722    1.517   .     S
C640   C648    1.429   .     A
C640   C642    1.426   .     A
C641   N675    1.362   .     A
C641   H671    1.069   .     S
C642   N676    1.365   .     A
C642   H672    1.079   .     S
C643   C729    1.520   .     S
C643   C645    1.408   .     A
C643   N675    1.387   .     A
C644   C736    1.520   .     S
C644   C646    1.406   .     A
C644   N676    1.387   .     A
C645   H673    1.080   .     S
C645   C647    1.394   .     A
C646   C648    1.392   .     A
C646   H674    1.081   .     S
C648   C11     1.520   1_556 S
C649   O683    1.299   .     A
C649   C651    1.443   .     S
C649   O681    1.282   .     A
C650   O682    1.286   .     A
C650   O684    1.303   .     A
C650   C652    1.460   .     S
C651   C864    1.379   1_455 S
C651   C897    1.530   1_455 S
C652   C757    1.379   .     S
C652   C798    1.543   .     S
C653   C663    1.401   .     A
C653   Cl699   1.780   .     S
C653   C655    1.414   .     A
C654   C656    1.411   .     A
C654   C664    1.405   .     A
C654   Cl700   1.774   .     S
C655   C657    1.434   .     A
C655   C701    1.518   .     S
C656   C658    1.420   .     A
C656   C708    1.515   .     S
C657   C659    1.409   .     A
C658   C660    1.399   .     A
C659   C661    1.387   .     A
C659   H667    1.083   .     S
C660   C662    1.388   .     A
C660   H668    1.084   .     S
C661   C663    1.390   .     A
C661   H669    1.084   .     S
C662   H670    1.084   .     S
C662   C664    1.397   .     A
C663   C982    1.462   1_545 S
C664   C981    1.462   .     S
Cu665  Cu666   2.690   .     S
Cu665  O684    1.988   .     S
Cu665  O681    1.987   .     S
Cu665  O680    1.950   .     S
Cu665  O677    1.963   .     S
Cu665  N676    2.021   .     S
Cu666  O683    1.988   .     S
Cu666  O679    1.950   .     S
Cu666  O682    1.987   .     S
Cu666  N675    2.021   .     S
Cu666  O678    1.963   .     S
C685   H690    1.108   .     S
C685   H691    1.097   .     S
C685   C757    1.530   .     S
C685   C792    1.536   .     S
C686   H688    1.109   .     S
C686   H689    1.111   .     S
C686   H687    1.107   .     S
C686   C897    1.536   1_455 S
C692   H698    1.112   .     S
C692   H697    1.112   .     S
C692   C864    1.543   1_455 S
C692   C905    1.525   1_455 S
C693   H695    1.110   .     S
C693   H696    1.111   .     S
C693   H694    1.109   .     S
C693   C798    1.525   .     S
C701   H707    1.094   .     S
C701   C702    1.525   .     S
C701   H706    1.111   .     S
C702   H704    1.109   .     S
C702   H705    1.108   .     S
C702   H703    1.104   .     S
C708   H714    1.107   .     S
C708   C709    1.529   .     S
C708   H713    1.104   .     S
C709   H710    1.111   .     S
C709   H711    1.108   .     S
C709   H712    1.106   .     S
C715   H720    1.101   .     S
C715   H721    1.111   .     S
C715   C716    1.527   .     S
C716   H719    1.110   .     S
C716   H717    1.111   .     S
H718   C80     1.108   1_556 S
C722   H727    1.102   .     S
C722   H728    1.108   .     S
C722   C87     1.531   1_556 S
C723   H726    1.110   .     S
C723   H725    1.108   .     S
H724   C87     1.110   1_556 S
C729   C730    1.532   .     S
C729   H735    1.111   .     S
C729   H734    1.096   .     S
C730   H733    1.111   .     S
C730   H732    1.111   .     S
C730   H731    1.108   .     S
C736   H741    1.091   .     S
C736   H742    1.112   .     S
C736   C737    1.532   .     S
C737   H739    1.112   .     S
C737   H738    1.109   .     S
C737   H740    1.111   .     S
C743   C763    1.487   .     S
C743   O785    1.307   .     A
C743   O783    1.301   .     A
C744   O786    1.300   .     A
C744   C764    1.464   .     S
C744   O784    1.295   .     A
C745   C821    1.518   .     S
C745   C747    1.421   .     A
C745   C753    1.429   .     A
C746   C828    1.517   .     S
C746   C754    1.429   .     A
C746   C748    1.426   .     A
C747   N781    1.362   .     A
C747   H777    1.069   .     S
C748   N782    1.365   .     A
C748   H778    1.079   .     S
C749   C835    1.520   .     S
C749   C751    1.408   .     A
C749   N781    1.387   .     A
C750   C842    1.520   .     S
C750   C752    1.406   .     A
C750   N782    1.387   .     A
C751   H779    1.080   .     S
C751   C753    1.394   .     A
C752   C754    1.392   .     A
C752   H780    1.081   .     S
C754   C117    1.520   1_556 S
C755   O789    1.299   .     A
C755   C757    1.443   .     S
C755   O787    1.282   .     A
C756   O788    1.286   .     A
C756   O790    1.303   .     A
C756   C758    1.460   .     S
C758   C863    1.379   .     S
C758   C904    1.543   .     S
C759   C769    1.401   .     A
C759   Cl805   1.780   .     S
C759   C761    1.414   .     A
C760   C762    1.411   .     A
C760   C770    1.405   .     A
C760   Cl806   1.774   .     S
C761   C763    1.434   .     A
C761   C807    1.518   .     S
C762   C764    1.420   .     A
C762   C814    1.515   .     S
C763   C765    1.409   .     A
C764   C766    1.399   .     A
C765   C767    1.387   .     A
C765   H773    1.083   .     S
C766   C768    1.388   .     A
C766   H774    1.084   .     S
C767   C769    1.390   .     A
C767   H775    1.084   .     S
C768   H776    1.084   .     S
C768   C770    1.397   .     A
C769   C1088   1.462   1_545 S
C770   C1087   1.462   .     S
Cu771  Cu772   2.690   .     S
Cu771  O790    1.988   .     S
Cu771  O787    1.987   .     S
Cu771  O786    1.950   .     S
Cu771  O783    1.963   .     S
Cu771  N782    2.021   .     S
Cu772  O789    1.988   .     S
Cu772  O785    1.950   .     S
Cu772  O788    1.987   .     S
Cu772  N781    2.021   .     S
Cu772  O784    1.963   .     S
C791   H796    1.108   .     S
C791   H797    1.097   .     S
C791   C863    1.530   .     S
C791   C898    1.536   .     S
C792   H794    1.109   .     S
C792   H795    1.111   .     S
C792   H793    1.107   .     S
C798   H804    1.112   .     S
C798   H803    1.112   .     S
C799   H801    1.110   .     S
C799   H802    1.111   .     S
C799   H800    1.109   .     S
C799   C904    1.525   .     S
C807   H813    1.094   .     S
C807   C808    1.525   .     S
C807   H812    1.111   .     S
C808   H810    1.109   .     S
C808   H811    1.108   .     S
C808   H809    1.104   .     S
C814   H820    1.107   .     S
C814   C815    1.529   .     S
C814   H819    1.104   .     S
C815   H816    1.111   .     S
C815   H817    1.108   .     S
C815   H818    1.106   .     S
C821   H826    1.101   .     S
C821   H827    1.111   .     S
C821   C822    1.527   .     S
C822   H825    1.110   .     S
C822   H823    1.111   .     S
H824   C186    1.108   1_556 S
C828   H833    1.102   .     S
C828   H834    1.108   .     S
C828   C193    1.531   1_556 S
C829   H832    1.110   .     S
C829   H831    1.108   .     S
H830   C193    1.110   1_556 S
C835   C836    1.532   .     S
C835   H841    1.111   .     S
C835   H840    1.096   .     S
C836   H839    1.111   .     S
C836   H838    1.111   .     S
C836   H837    1.108   .     S
C842   H847    1.091   .     S
C842   H848    1.112   .     S
C842   C843    1.532   .     S
C843   H845    1.112   .     S
C843   H844    1.109   .     S
C843   H846    1.111   .     S
C849   C869    1.487   .     S
C849   O891    1.307   .     A
C849   O889    1.301   .     A
C850   O892    1.300   .     A
C850   C870    1.464   .     S
C850   O890    1.295   .     A
C851   C927    1.518   .     S
C851   C853    1.421   .     A
C851   C859    1.429   .     A
C852   C934    1.517   .     S
C852   C860    1.429   .     A
C852   C854    1.426   .     A
C853   N887    1.362   .     A
C853   H883    1.069   .     S
C854   N888    1.365   .     A
C854   H884    1.079   .     S
C855   C941    1.520   .     S
C855   C857    1.408   .     A
C855   N887    1.387   .     A
C856   C948    1.520   .     S
C856   C858    1.406   .     A
C856   N888    1.387   .     A
C857   H885    1.080   .     S
C857   C859    1.394   .     A
C858   C860    1.392   .     A
C858   H886    1.081   .     S
C860   C223    1.520   1_556 S
C861   O895    1.299   .     A
C861   C863    1.443   .     S
C861   O893    1.282   .     A
C862   O894    1.286   .     A
C862   O896    1.303   .     A
C862   C864    1.460   .     S
C864   C651    1.379   1_655 S
C864   C692    1.543   1_655 S
C865   C875    1.401   .     A
C865   Cl911   1.780   .     S
C865   C867    1.414   .     A
C866   C868    1.411   .     A
C866   C876    1.405   .     A
C866   Cl912   1.774   .     S
C867   C869    1.434   .     A
C867   C913    1.518   .     S
C868   C870    1.420   .     A
C868   C920    1.515   .     S
C869   C871    1.409   .     A
C870   C872    1.399   .     A
C871   C873    1.387   .     A
C871   H879    1.083   .     S
C872   C874    1.388   .     A
C872   H880    1.084   .     S
C873   C875    1.390   .     A
C873   H881    1.084   .     S
C874   H882    1.084   .     S
C874   C876    1.397   .     A
C875   C1194   1.462   1_545 S
C876   C1193   1.462   .     S
Cu877  Cu878   2.690   .     S
Cu877  O896    1.988   .     S
Cu877  O893    1.987   .     S
Cu877  O892    1.950   .     S
Cu877  O889    1.963   .     S
Cu877  N888    2.021   .     S
Cu878  O895    1.988   .     S
Cu878  O891    1.950   .     S
Cu878  O894    1.987   .     S
Cu878  N887    2.021   .     S
Cu878  O890    1.963   .     S
C897   H902    1.108   .     S
C897   H903    1.097   .     S
C897   C651    1.530   1_655 S
C897   C686    1.536   1_655 S
C898   H900    1.109   .     S
C898   H901    1.111   .     S
C898   H899    1.107   .     S
C904   H910    1.112   .     S
C904   H909    1.112   .     S
C905   H907    1.110   .     S
C905   H908    1.111   .     S
C905   H906    1.109   .     S
C905   C692    1.525   1_655 S
C913   H919    1.094   .     S
C913   C914    1.525   .     S
C913   H918    1.111   .     S
C914   H916    1.109   .     S
C914   H917    1.108   .     S
C914   H915    1.104   .     S
C920   H926    1.107   .     S
C920   C921    1.529   .     S
C920   H925    1.104   .     S
C921   H922    1.111   .     S
C921   H923    1.108   .     S
C921   H924    1.106   .     S
C927   H932    1.101   .     S
C927   H933    1.111   .     S
C927   C928    1.527   .     S
C928   H931    1.110   .     S
C928   H929    1.111   .     S
H930   C292    1.108   1_556 S
C934   H939    1.102   .     S
C934   H940    1.108   .     S
C934   C299    1.531   1_556 S
C935   H938    1.110   .     S
C935   H937    1.108   .     S
H936   C299    1.110   1_556 S
C941   C942    1.532   .     S
C941   H947    1.111   .     S
C941   H946    1.096   .     S
C942   H945    1.111   .     S
C942   H944    1.111   .     S
C942   H943    1.108   .     S
C948   H953    1.091   .     S
C948   H954    1.112   .     S
C948   C949    1.532   .     S
C949   H951    1.112   .     S
C949   H950    1.109   .     S
C949   H952    1.111   .     S
C955   C975    1.487   .     S
C955   O997    1.307   .     A
C955   O995    1.301   .     A
C956   O998    1.300   .     A
C956   C976    1.464   .     S
C956   O996    1.295   .     A
C957   C1033   1.518   .     S
C957   C959    1.421   .     A
C957   C965    1.429   .     A
C958   C1040   1.517   .     S
C958   C966    1.429   .     A
C958   C960    1.426   .     A
C959   N993    1.362   .     A
C959   H989    1.069   .     S
C960   N994    1.365   .     A
C960   H990    1.079   .     S
C961   C1047   1.520   .     S
C961   C963    1.408   .     A
C961   N993    1.387   .     A
C962   C1054   1.520   .     S
C962   C964    1.406   .     A
C962   N994    1.387   .     A
C963   H991    1.080   .     S
C963   C965    1.394   .     A
C964   C966    1.392   .     A
C964   H992    1.081   .     S
C966   C329    1.520   1_556 S
C967   O1001   1.299   .     A
C967   C969    1.443   .     S
C967   O999    1.282   .     A
C968   O1000   1.286   .     A
C968   O1002   1.303   .     A
C968   C970    1.460   .     S
C969   C1182   1.379   1_455 S
C969   C1215   1.530   1_455 S
C970   C1075   1.379   .     S
C970   C1116   1.543   .     S
C971   C981    1.401   .     A
C971   Cl1017  1.780   .     S
C971   C973    1.414   .     A
C972   C974    1.411   .     A
C972   C982    1.405   .     A
C972   Cl1018  1.774   .     S
C973   C975    1.434   .     A
C973   C1019   1.518   .     S
C974   C976    1.420   .     A
C974   C1026   1.515   .     S
C975   C977    1.409   .     A
C976   C978    1.399   .     A
C977   C979    1.387   .     A
C977   H985    1.083   .     S
C978   C980    1.388   .     A
C978   H986    1.084   .     S
C979   C981    1.390   .     A
C979   H987    1.084   .     S
C980   H988    1.084   .     S
C980   C982    1.397   .     A
C982   C663    1.462   1_565 S
Cu983  Cu984   2.690   .     S
Cu983  O1002   1.988   .     S
Cu983  O999    1.987   .     S
Cu983  O998    1.950   .     S
Cu983  O995    1.963   .     S
Cu983  N994    2.021   .     S
Cu984  O1001   1.988   .     S
Cu984  O997    1.950   .     S
Cu984  O1000   1.987   .     S
Cu984  N993    2.021   .     S
Cu984  O996    1.963   .     S
C1003  H1008   1.108   .     S
C1003  H1009   1.097   .     S
C1003  C1075   1.530   .     S
C1003  C1110   1.536   .     S
C1004  H1006   1.109   .     S
C1004  H1007   1.111   .     S
C1004  H1005   1.107   .     S
C1004  C1215   1.536   1_455 S
C1010  H1016   1.112   .     S
C1010  H1015   1.112   .     S
C1010  C1182   1.543   1_455 S
C1010  C1223   1.525   1_455 S
C1011  H1013   1.110   .     S
C1011  H1014   1.111   .     S
C1011  H1012   1.109   .     S
C1011  C1116   1.525   .     S
C1019  H1025   1.094   .     S
C1019  C1020   1.525   .     S
C1019  H1024   1.111   .     S
C1020  H1022   1.109   .     S
C1020  H1023   1.108   .     S
C1020  H1021   1.104   .     S
C1026  H1032   1.107   .     S
C1026  C1027   1.529   .     S
C1026  H1031   1.104   .     S
C1027  H1028   1.111   .     S
C1027  H1029   1.108   .     S
C1027  H1030   1.106   .     S
C1033  H1038   1.101   .     S
C1033  H1039   1.111   .     S
C1033  C1034   1.527   .     S
C1034  H1037   1.110   .     S
C1034  H1035   1.111   .     S
H1036  C398    1.108   1_556 S
C1040  H1045   1.102   .     S
C1040  H1046   1.108   .     S
C1040  C405    1.531   1_556 S
C1041  H1044   1.110   .     S
C1041  H1043   1.108   .     S
H1042  C405    1.110   1_556 S
C1047  C1048   1.532   .     S
C1047  H1053   1.111   .     S
C1047  H1052   1.096   .     S
C1048  H1051   1.111   .     S
C1048  H1050   1.111   .     S
C1048  H1049   1.108   .     S
C1054  H1059   1.091   .     S
C1054  H1060   1.112   .     S
C1054  C1055   1.532   .     S
C1055  H1057   1.112   .     S
C1055  H1056   1.109   .     S
C1055  H1058   1.111   .     S
C1061  C1081   1.487   .     S
C1061  O1103   1.307   .     A
C1061  O1101   1.301   .     A
C1062  O1104   1.300   .     A
C1062  C1082   1.464   .     S
C1062  O1102   1.295   .     A
C1063  C1139   1.518   .     S
C1063  C1065   1.421   .     A
C1063  C1071   1.429   .     A
C1064  C1146   1.517   .     S
C1064  C1072   1.429   .     A
C1064  C1066   1.426   .     A
C1065  N1099   1.362   .     A
C1065  H1095   1.069   .     S
C1066  N1100   1.365   .     A
C1066  H1096   1.079   .     S
C1067  C1153   1.520   .     S
C1067  C1069   1.408   .     A
C1067  N1099   1.387   .     A
C1068  C1160   1.520   .     S
C1068  C1070   1.406   .     A
C1068  N1100   1.387   .     A
C1069  H1097   1.080   .     S
C1069  C1071   1.394   .     A
C1070  C1072   1.392   .     A
C1070  H1098   1.081   .     S
C1072  C435    1.520   1_556 S
C1073  O1107   1.299   .     A
C1073  C1075   1.443   .     S
C1073  O1105   1.282   .     A
C1074  O1106   1.286   .     A
C1074  O1108   1.303   .     A
C1074  C1076   1.460   .     S
C1076  C1181   1.379   .     S
C1076  C1222   1.543   .     S
C1077  C1087   1.401   .     A
C1077  Cl1123  1.780   .     S
C1077  C1079   1.414   .     A
C1078  C1080   1.411   .     A
C1078  C1088   1.405   .     A
C1078  Cl1124  1.774   .     S
C1079  C1081   1.434   .     A
C1079  C1125   1.518   .     S
C1080  C1082   1.420   .     A
C1080  C1132   1.515   .     S
C1081  C1083   1.409   .     A
C1082  C1084   1.399   .     A
C1083  C1085   1.387   .     A
C1083  H1091   1.083   .     S
C1084  C1086   1.388   .     A
C1084  H1092   1.084   .     S
C1085  C1087   1.390   .     A
C1085  H1093   1.084   .     S
C1086  H1094   1.084   .     S
C1086  C1088   1.397   .     A
C1088  C769    1.462   1_565 S
Cu1089 Cu1090  2.690   .     S
Cu1089 O1108   1.988   .     S
Cu1089 O1105   1.987   .     S
Cu1089 O1104   1.950   .     S
Cu1089 O1101   1.963   .     S
Cu1089 N1100   2.021   .     S
Cu1090 O1107   1.988   .     S
Cu1090 O1103   1.950   .     S
Cu1090 O1106   1.987   .     S
Cu1090 N1099   2.021   .     S
Cu1090 O1102   1.963   .     S
C1109  H1114   1.108   .     S
C1109  H1115   1.097   .     S
C1109  C1181   1.530   .     S
C1109  C1216   1.536   .     S
C1110  H1112   1.109   .     S
C1110  H1113   1.111   .     S
C1110  H1111   1.107   .     S
C1116  H1122   1.112   .     S
C1116  H1121   1.112   .     S
C1117  H1119   1.110   .     S
C1117  H1120   1.111   .     S
C1117  H1118   1.109   .     S
C1117  C1222   1.525   .     S
C1125  H1131   1.094   .     S
C1125  C1126   1.525   .     S
C1125  H1130   1.111   .     S
C1126  H1128   1.109   .     S
C1126  H1129   1.108   .     S
C1126  H1127   1.104   .     S
C1132  H1138   1.107   .     S
C1132  C1133   1.529   .     S
C1132  H1137   1.104   .     S
C1133  H1134   1.111   .     S
C1133  H1135   1.108   .     S
C1133  H1136   1.106   .     S
C1139  H1144   1.101   .     S
C1139  H1145   1.111   .     S
C1139  C1140   1.527   .     S
C1140  H1143   1.110   .     S
C1140  H1141   1.111   .     S
H1142  C504    1.108   1_556 S
C1146  H1151   1.102   .     S
C1146  H1152   1.108   .     S
C1146  C511    1.531   1_556 S
C1147  H1150   1.110   .     S
C1147  H1149   1.108   .     S
H1148  C511    1.110   1_556 S
C1153  C1154   1.532   .     S
C1153  H1159   1.111   .     S
C1153  H1158   1.096   .     S
C1154  H1157   1.111   .     S
C1154  H1156   1.111   .     S
C1154  H1155   1.108   .     S
C1160  H1165   1.091   .     S
C1160  H1166   1.112   .     S
C1160  C1161   1.532   .     S
C1161  H1163   1.112   .     S
C1161  H1162   1.109   .     S
C1161  H1164   1.111   .     S
C1167  C1187   1.487   .     S
C1167  O1209   1.307   .     A
C1167  O1207   1.301   .     A
C1168  O1210   1.300   .     A
C1168  C1188   1.464   .     S
C1168  O1208   1.295   .     A
C1169  C1245   1.518   .     S
C1169  C1171   1.421   .     A
C1169  C1177   1.429   .     A
C1170  C1252   1.517   .     S
C1170  C1178   1.429   .     A
C1170  C1172   1.426   .     A
C1171  N1205   1.362   .     A
C1171  H1201   1.069   .     S
C1172  N1206   1.365   .     A
C1172  H1202   1.079   .     S
C1173  C1259   1.520   .     S
C1173  C1175   1.408   .     A
C1173  N1205   1.387   .     A
C1174  C1266   1.520   .     S
C1174  C1176   1.406   .     A
C1174  N1206   1.387   .     A
C1175  H1203   1.080   .     S
C1175  C1177   1.394   .     A
C1176  C1178   1.392   .     A
C1176  H1204   1.081   .     S
C1178  C541    1.520   1_556 S
C1179  O1213   1.299   .     A
C1179  C1181   1.443   .     S
C1179  O1211   1.282   .     A
C1180  O1212   1.286   .     A
C1180  O1214   1.303   .     A
C1180  C1182   1.460   .     S
C1182  C969    1.379   1_655 S
C1182  C1010   1.543   1_655 S
C1183  C1193   1.401   .     A
C1183  Cl1229  1.780   .     S
C1183  C1185   1.414   .     A
C1184  C1186   1.411   .     A
C1184  C1194   1.405   .     A
C1184  Cl1230  1.774   .     S
C1185  C1187   1.434   .     A
C1185  C1231   1.518   .     S
C1186  C1188   1.420   .     A
C1186  C1238   1.515   .     S
C1187  C1189   1.409   .     A
C1188  C1190   1.399   .     A
C1189  C1191   1.387   .     A
C1189  H1197   1.083   .     S
C1190  C1192   1.388   .     A
C1190  H1198   1.084   .     S
C1191  C1193   1.390   .     A
C1191  H1199   1.084   .     S
C1192  H1200   1.084   .     S
C1192  C1194   1.397   .     A
C1194  C875    1.462   1_565 S
Cu1195 Cu1196  2.690   .     S
Cu1195 O1214   1.988   .     S
Cu1195 O1211   1.987   .     S
Cu1195 O1210   1.950   .     S
Cu1195 O1207   1.963   .     S
Cu1195 N1206   2.021   .     S
Cu1196 O1213   1.988   .     S
Cu1196 O1209   1.950   .     S
Cu1196 O1212   1.987   .     S
Cu1196 N1205   2.021   .     S
Cu1196 O1208   1.963   .     S
C1215  H1220   1.108   .     S
C1215  H1221   1.097   .     S
C1215  C969    1.530   1_655 S
C1215  C1004   1.536   1_655 S
C1216  H1218   1.109   .     S
C1216  H1219   1.111   .     S
C1216  H1217   1.107   .     S
C1222  H1228   1.112   .     S
C1222  H1227   1.112   .     S
C1223  H1225   1.110   .     S
C1223  H1226   1.111   .     S
C1223  H1224   1.109   .     S
C1223  C1010   1.525   1_655 S
C1231  H1237   1.094   .     S
C1231  C1232   1.525   .     S
C1231  H1236   1.111   .     S
C1232  H1234   1.109   .     S
C1232  H1235   1.108   .     S
C1232  H1233   1.104   .     S
C1238  H1244   1.107   .     S
C1238  C1239   1.529   .     S
C1238  H1243   1.104   .     S
C1239  H1240   1.111   .     S
C1239  H1241   1.108   .     S
C1239  H1242   1.106   .     S
C1245  H1250   1.101   .     S
C1245  H1251   1.111   .     S
C1245  C1246   1.527   .     S
C1246  H1249   1.110   .     S
C1246  H1247   1.111   .     S
H1248  C610    1.108   1_556 S
C1252  H1257   1.102   .     S
C1252  H1258   1.108   .     S
C1252  C617    1.531   1_556 S
C1253  H1256   1.110   .     S
C1253  H1255   1.108   .     S
H1254  C617    1.110   1_556 S
C1259  C1260   1.532   .     S
C1259  H1265   1.111   .     S
C1259  H1264   1.096   .     S
C1260  H1263   1.111   .     S
C1260  H1262   1.111   .     S
C1260  H1261   1.108   .     S
C1266  H1271   1.091   .     S
C1266  H1272   1.112   .     S
C1266  C1267   1.532   .     S
C1267  H1269   1.112   .     S
C1267  H1268   1.109   .     S
C1267  H1270   1.111   .     S
