data_str_m2_o1_o1_pcu_sym.29
_audit_creation_date              2020-01-03
_audit_creation_method            'Materials Studio'
_symmetry_space_group_name_H-M    'P1'
_symmetry_Int_Tables_number       1
_symmetry_cell_setting            triclinic
loop_
_symmetry_equiv_pos_as_xyz
  x,y,z
_cell_length_a                    30.8933
_cell_length_b                    30.5397
_cell_length_c                    28.5195
_cell_angle_alpha                 90.3870
_cell_angle_beta                  90.3594
_cell_angle_gamma                 89.3398
loop_
_atom_site_label
_atom_site_type_symbol
_atom_site_fract_x
_atom_site_fract_y
_atom_site_fract_z
_atom_site_U_iso_or_equiv
_atom_site_adp_type
_atom_site_occupancy
O1     O     0.04508   0.20491   0.20625   0.00000  Uiso   1.00
O2     O     0.45491   0.29509   0.12709   0.00000  Uiso   1.00
O3     O     0.45491   0.29509   0.20625   0.00000  Uiso   1.00
O4     O     0.04508   0.20491   0.12709   0.00000  Uiso   1.00
O5     O     0.45491   0.20491   0.12709   0.00000  Uiso   1.00
O6     O     0.04508   0.29509   0.20625   0.00000  Uiso   1.00
O7     O     0.04508   0.29509   0.12709   0.00000  Uiso   1.00
O8     O     0.45491   0.20491   0.20625   0.00000  Uiso   1.00
O9     O     0.29508   0.45491   0.20625   0.00000  Uiso   1.00
O10    O     0.20491   0.04509   0.12709   0.00000  Uiso   1.00
O11    O     0.20491   0.04509   0.20625   0.00000  Uiso   1.00
O12    O     0.29508   0.45491   0.12709   0.00000  Uiso   1.00
O13    O     0.20491   0.45491   0.12709   0.00000  Uiso   1.00
O14    O     0.29508   0.04509   0.20625   0.00000  Uiso   1.00
O15    O     0.29508   0.04509   0.12709   0.00000  Uiso   1.00
O16    O     0.20491   0.45491   0.20625   0.00000  Uiso   1.00
C17    C     0.05928   0.19047   0.16670   0.00000  Uiso   1.00
C18    C     0.44072   0.30953   0.16663   0.00000  Uiso   1.00
C19    C     0.43948   0.19159   0.16635   0.00000  Uiso   1.00
C20    C     0.06052   0.30841   0.16698   0.00000  Uiso   1.00
C21    C     0.30928   0.44047   0.16670   0.00000  Uiso   1.00
C22    C     0.19072   0.05953   0.16663   0.00000  Uiso   1.00
C23    C     0.18948   0.44159   0.16635   0.00000  Uiso   1.00
C24    C     0.31052   0.05841   0.16698   0.00000  Uiso   1.00
H25    H     0.00426   0.18087   0.04309   0.00000  Uiso   1.00
H26    H     0.49573   0.31913   0.29025   0.00000  Uiso   1.00
H27    H     0.49590   0.31919   0.04401   0.00000  Uiso   1.00
H28    H     0.00410   0.18081   0.28932   0.00000  Uiso   1.00
H29    H     0.25427   0.43087   0.04309   0.00000  Uiso   1.00
H30    H     0.24574   0.06913   0.29025   0.00000  Uiso   1.00
H31    H     0.24590   0.06919   0.04401   0.00000  Uiso   1.00
H32    H     0.25410   0.43081   0.28932   0.00000  Uiso   1.00
N33    N    -0.00000   0.25000   0.28402   0.00000  Uiso   1.00
N34    N    -0.00000   0.25000   0.04931   0.00000  Uiso   1.00
N35    N     0.25000   0.00000   0.28402   0.00000  Uiso   1.00
N36    N     0.25000   0.00000   0.04931   0.00000  Uiso   1.00
Cu37   Cu    0.00000   0.25000   0.21355   0.00000  Uiso   1.00
Cu38   Cu   -0.00000   0.25000   0.11978   0.00000  Uiso   1.00
Cu39   Cu    0.25000   0.00000   0.21355   0.00000  Uiso   1.00
Cu40   Cu    0.25000   0.00000   0.11978   0.00000  Uiso   1.00
C41    C     0.00236   0.21159   0.02456   0.00000  Uiso   1.00
C42    C     0.49764   0.28841   0.30878   0.00000  Uiso   1.00
C43    C     0.49769   0.28842   0.02508   0.00000  Uiso   1.00
C44    C     0.00231   0.21158   0.30826   0.00000  Uiso   1.00
C45    C     0.25236   0.46159   0.02456   0.00000  Uiso   1.00
C46    C     0.24764   0.03841   0.30878   0.00000  Uiso   1.00
C47    C     0.24769   0.03842   0.02508   0.00000  Uiso   1.00
C48    C     0.25231   0.46158   0.30826   0.00000  Uiso   1.00
C49    C     0.39686   0.13402   0.12470   0.00000  Uiso   1.00
C50    C     0.10314   0.36598   0.20863   0.00000  Uiso   1.00
C51    C     0.11820   0.34921   0.12620   0.00000  Uiso   1.00
C52    C     0.38180   0.15079   0.20713   0.00000  Uiso   1.00
C53    C     0.13009   0.16310   0.19425   0.00000  Uiso   1.00
C54    C     0.36991   0.33690   0.13909   0.00000  Uiso   1.00
C55    C     0.41286   0.38125   0.19382   0.00000  Uiso   1.00
C56    C     0.08714   0.11876   0.13950   0.00000  Uiso   1.00
C57    C     0.14686   0.38402   0.12470   0.00000  Uiso   1.00
C58    C     0.35313   0.11599   0.20863   0.00000  Uiso   1.00
C59    C     0.36820   0.09921   0.12621   0.00000  Uiso   1.00
C60    C     0.13180   0.40079   0.20713   0.00000  Uiso   1.00
C61    C     0.38009   0.41310   0.19424   0.00000  Uiso   1.00
C62    C     0.11991   0.08690   0.13909   0.00000  Uiso   1.00
C63    C     0.16286   0.13124   0.19383   0.00000  Uiso   1.00
C64    C     0.33714   0.36875   0.13951   0.00000  Uiso   1.00
C65    C     0.09512   0.34083   0.16770   0.00000  Uiso   1.00
C66    C     0.40487   0.15917   0.16564   0.00000  Uiso   1.00
C67    C     0.40741   0.34318   0.16642   0.00000  Uiso   1.00
C68    C     0.09259   0.15683   0.16691   0.00000  Uiso   1.00
C69    C     0.34512   0.09083   0.16770   0.00000  Uiso   1.00
C70    C     0.15488   0.40917   0.16564   0.00000  Uiso   1.00
C71    C     0.15741   0.09317   0.16642   0.00000  Uiso   1.00
C72    C     0.34259   0.40682   0.16691   0.00000  Uiso   1.00
N73    N     0.41756   0.14335   0.08106   0.00000  Uiso   1.00
O74    O     0.40371   0.17624   0.05613   0.00000  Uiso   1.00
O75    O     0.44367   0.11463   0.06218   0.00000  Uiso   1.00
N76    N     0.08245   0.35664   0.25228   0.00000  Uiso   1.00
O77    O     0.09629   0.32375   0.27720   0.00000  Uiso   1.00
O78    O     0.05634   0.38536   0.27116   0.00000  Uiso   1.00
N79    N     0.11351   0.32194   0.08532   0.00000  Uiso   1.00
O80    O     0.12569   0.28103   0.08656   0.00000  Uiso   1.00
O81    O     0.09885   0.33842   0.04631   0.00000  Uiso   1.00
N82    N     0.38648   0.17807   0.24801   0.00000  Uiso   1.00
O83    O     0.37430   0.21898   0.24676   0.00000  Uiso   1.00
O84    O     0.40113   0.16160   0.28702   0.00000  Uiso   1.00
N85    N     0.13628   0.20326   0.21962   0.00000  Uiso   1.00
O86    O     0.14240   0.23948   0.19698   0.00000  Uiso   1.00
O87    O     0.13022   0.20461   0.26471   0.00000  Uiso   1.00
N88    N     0.36373   0.29674   0.11372   0.00000  Uiso   1.00
O89    O     0.35744   0.26055   0.13637   0.00000  Uiso   1.00
O90    O     0.37001   0.29534   0.06866   0.00000  Uiso   1.00
N91    N     0.45288   0.38903   0.21827   0.00000  Uiso   1.00
O92    O     0.45295   0.39898   0.26269   0.00000  Uiso   1.00
O93    O     0.48935   0.38731   0.19574   0.00000  Uiso   1.00
N94    N     0.04713   0.11098   0.11506   0.00000  Uiso   1.00
O95    O     0.04705   0.10111   0.07061   0.00000  Uiso   1.00
O96    O     0.01066   0.11266   0.13760   0.00000  Uiso   1.00
N97    N     0.16755   0.39336   0.08105   0.00000  Uiso   1.00
O98    O     0.15370   0.42625   0.05613   0.00000  Uiso   1.00
O99    O     0.19366   0.36464   0.06217   0.00000  Uiso   1.00
N100   N     0.33244   0.10665   0.25228   0.00000  Uiso   1.00
O101   O     0.34628   0.07376   0.27720   0.00000  Uiso   1.00
O102   O     0.30633   0.13537   0.27115   0.00000  Uiso   1.00
N103   N     0.36352   0.07193   0.08533   0.00000  Uiso   1.00
O104   O     0.37570   0.03102   0.08657   0.00000  Uiso   1.00
O105   O     0.34887   0.08840   0.04631   0.00000  Uiso   1.00
N106   N     0.13649   0.42806   0.24801   0.00000  Uiso   1.00
O107   O     0.12431   0.46897   0.24678   0.00000  Uiso   1.00
O108   O     0.15114   0.41159   0.28703   0.00000  Uiso   1.00
N109   N     0.38627   0.45327   0.21961   0.00000  Uiso   1.00
O110   O     0.39251   0.48946   0.19696   0.00000  Uiso   1.00
O111   O     0.38008   0.45465   0.26468   0.00000  Uiso   1.00
N112   N     0.11373   0.04674   0.11371   0.00000  Uiso   1.00
O113   O     0.10758   0.01052   0.13635   0.00000  Uiso   1.00
O114   O     0.11982   0.04539   0.06862   0.00000  Uiso   1.00
N115   N     0.20287   0.13902   0.21828   0.00000  Uiso   1.00
O116   O     0.20295   0.14885   0.26273   0.00000  Uiso   1.00
O117   O     0.23934   0.13735   0.19574   0.00000  Uiso   1.00
N118   N     0.29712   0.36097   0.11506   0.00000  Uiso   1.00
O119   O     0.29705   0.35096   0.07065   0.00000  Uiso   1.00
O120   O     0.26064   0.36271   0.13758   0.00000  Uiso   1.00
O121   O     0.54508   0.20491   0.20625   0.00000  Uiso   1.00
O122   O     0.95491   0.29509   0.12709   0.00000  Uiso   1.00
O123   O     0.95491   0.29509   0.20625   0.00000  Uiso   1.00
O124   O     0.54508   0.20491   0.12709   0.00000  Uiso   1.00
O125   O     0.95491   0.20491   0.12709   0.00000  Uiso   1.00
O126   O     0.54508   0.29509   0.20625   0.00000  Uiso   1.00
O127   O     0.54508   0.29509   0.12709   0.00000  Uiso   1.00
O128   O     0.95491   0.20491   0.20625   0.00000  Uiso   1.00
O129   O     0.79508   0.45491   0.20625   0.00000  Uiso   1.00
O130   O     0.70491   0.04509   0.12709   0.00000  Uiso   1.00
O131   O     0.70491   0.04509   0.20625   0.00000  Uiso   1.00
O132   O     0.79508   0.45491   0.12709   0.00000  Uiso   1.00
O133   O     0.70491   0.45491   0.12709   0.00000  Uiso   1.00
O134   O     0.79508   0.04509   0.20625   0.00000  Uiso   1.00
O135   O     0.79508   0.04509   0.12709   0.00000  Uiso   1.00
O136   O     0.70491   0.45491   0.20625   0.00000  Uiso   1.00
C137   C     0.55928   0.19047   0.16670   0.00000  Uiso   1.00
C138   C     0.94072   0.30953   0.16663   0.00000  Uiso   1.00
C139   C     0.93948   0.19159   0.16635   0.00000  Uiso   1.00
C140   C     0.56052   0.30841   0.16698   0.00000  Uiso   1.00
C141   C     0.80928   0.44047   0.16670   0.00000  Uiso   1.00
C142   C     0.69072   0.05953   0.16663   0.00000  Uiso   1.00
C143   C     0.68948   0.44159   0.16635   0.00000  Uiso   1.00
C144   C     0.81052   0.05841   0.16698   0.00000  Uiso   1.00
H145   H     0.50426   0.18087   0.04309   0.00000  Uiso   1.00
H146   H     0.99573   0.31913   0.29025   0.00000  Uiso   1.00
H147   H     0.99590   0.31919   0.04401   0.00000  Uiso   1.00
H148   H     0.50410   0.18081   0.28932   0.00000  Uiso   1.00
H149   H     0.75427   0.43087   0.04309   0.00000  Uiso   1.00
H150   H     0.74574   0.06913   0.29025   0.00000  Uiso   1.00
H151   H     0.74590   0.06919   0.04401   0.00000  Uiso   1.00
H152   H     0.75410   0.43081   0.28932   0.00000  Uiso   1.00
N153   N     0.50000   0.25000   0.28402   0.00000  Uiso   1.00
N154   N     0.50000   0.25000   0.04931   0.00000  Uiso   1.00
N155   N     0.75000   0.00000   0.28402   0.00000  Uiso   1.00
N156   N     0.75000   0.00000   0.04931   0.00000  Uiso   1.00
Cu157  Cu    0.50000   0.25000   0.21355   0.00000  Uiso   1.00
Cu158  Cu    0.50000   0.25000   0.11978   0.00000  Uiso   1.00
Cu159  Cu    0.75000   0.00000   0.21355   0.00000  Uiso   1.00
Cu160  Cu    0.75000   0.00000   0.11978   0.00000  Uiso   1.00
C161   C     0.50236   0.21159   0.02456   0.00000  Uiso   1.00
C162   C     0.99764   0.28841   0.30878   0.00000  Uiso   1.00
C163   C     0.99769   0.28842   0.02508   0.00000  Uiso   1.00
C164   C     0.50231   0.21158   0.30826   0.00000  Uiso   1.00
C165   C     0.75236   0.46159   0.02456   0.00000  Uiso   1.00
C166   C     0.74764   0.03841   0.30878   0.00000  Uiso   1.00
C167   C     0.74769   0.03842   0.02508   0.00000  Uiso   1.00
C168   C     0.75231   0.46158   0.30826   0.00000  Uiso   1.00
C169   C     0.89686   0.13402   0.12470   0.00000  Uiso   1.00
C170   C     0.60314   0.36598   0.20863   0.00000  Uiso   1.00
C171   C     0.61820   0.34921   0.12620   0.00000  Uiso   1.00
C172   C     0.88180   0.15079   0.20713   0.00000  Uiso   1.00
C173   C     0.63009   0.16310   0.19425   0.00000  Uiso   1.00
C174   C     0.86991   0.33690   0.13909   0.00000  Uiso   1.00
C175   C     0.91286   0.38125   0.19382   0.00000  Uiso   1.00
C176   C     0.58714   0.11876   0.13950   0.00000  Uiso   1.00
C177   C     0.64686   0.38402   0.12470   0.00000  Uiso   1.00
C178   C     0.85313   0.11599   0.20863   0.00000  Uiso   1.00
C179   C     0.86820   0.09921   0.12621   0.00000  Uiso   1.00
C180   C     0.63180   0.40079   0.20713   0.00000  Uiso   1.00
C181   C     0.88009   0.41310   0.19424   0.00000  Uiso   1.00
C182   C     0.61991   0.08690   0.13909   0.00000  Uiso   1.00
C183   C     0.66286   0.13124   0.19383   0.00000  Uiso   1.00
C184   C     0.83714   0.36875   0.13951   0.00000  Uiso   1.00
C185   C     0.59512   0.34083   0.16770   0.00000  Uiso   1.00
C186   C     0.90487   0.15917   0.16564   0.00000  Uiso   1.00
C187   C     0.90741   0.34318   0.16642   0.00000  Uiso   1.00
C188   C     0.59259   0.15683   0.16691   0.00000  Uiso   1.00
C189   C     0.84512   0.09083   0.16770   0.00000  Uiso   1.00
C190   C     0.65488   0.40917   0.16564   0.00000  Uiso   1.00
C191   C     0.65741   0.09317   0.16642   0.00000  Uiso   1.00
C192   C     0.84259   0.40682   0.16691   0.00000  Uiso   1.00
N193   N     0.91756   0.14335   0.08106   0.00000  Uiso   1.00
O194   O     0.90371   0.17624   0.05613   0.00000  Uiso   1.00
O195   O     0.94367   0.11463   0.06218   0.00000  Uiso   1.00
N196   N     0.58245   0.35664   0.25228   0.00000  Uiso   1.00
O197   O     0.59629   0.32375   0.27720   0.00000  Uiso   1.00
O198   O     0.55634   0.38536   0.27116   0.00000  Uiso   1.00
N199   N     0.61351   0.32194   0.08532   0.00000  Uiso   1.00
O200   O     0.62569   0.28103   0.08656   0.00000  Uiso   1.00
O201   O     0.59885   0.33842   0.04631   0.00000  Uiso   1.00
N202   N     0.88648   0.17807   0.24801   0.00000  Uiso   1.00
O203   O     0.87430   0.21898   0.24676   0.00000  Uiso   1.00
O204   O     0.90113   0.16160   0.28702   0.00000  Uiso   1.00
N205   N     0.63628   0.20326   0.21962   0.00000  Uiso   1.00
O206   O     0.64240   0.23948   0.19698   0.00000  Uiso   1.00
O207   O     0.63022   0.20461   0.26471   0.00000  Uiso   1.00
N208   N     0.86373   0.29674   0.11372   0.00000  Uiso   1.00
O209   O     0.85744   0.26055   0.13637   0.00000  Uiso   1.00
O210   O     0.87001   0.29534   0.06866   0.00000  Uiso   1.00
N211   N     0.95288   0.38903   0.21827   0.00000  Uiso   1.00
O212   O     0.95295   0.39898   0.26269   0.00000  Uiso   1.00
O213   O     0.98935   0.38731   0.19574   0.00000  Uiso   1.00
N214   N     0.54713   0.11098   0.11506   0.00000  Uiso   1.00
O215   O     0.54705   0.10111   0.07061   0.00000  Uiso   1.00
O216   O     0.51066   0.11266   0.13760   0.00000  Uiso   1.00
N217   N     0.66755   0.39336   0.08105   0.00000  Uiso   1.00
O218   O     0.65370   0.42625   0.05613   0.00000  Uiso   1.00
O219   O     0.69366   0.36464   0.06217   0.00000  Uiso   1.00
N220   N     0.83244   0.10665   0.25228   0.00000  Uiso   1.00
O221   O     0.84628   0.07376   0.27720   0.00000  Uiso   1.00
O222   O     0.80633   0.13537   0.27115   0.00000  Uiso   1.00
N223   N     0.86352   0.07193   0.08533   0.00000  Uiso   1.00
O224   O     0.87570   0.03102   0.08657   0.00000  Uiso   1.00
O225   O     0.84887   0.08840   0.04631   0.00000  Uiso   1.00
N226   N     0.63649   0.42806   0.24801   0.00000  Uiso   1.00
O227   O     0.62431   0.46897   0.24678   0.00000  Uiso   1.00
O228   O     0.65114   0.41159   0.28703   0.00000  Uiso   1.00
N229   N     0.88627   0.45327   0.21961   0.00000  Uiso   1.00
O230   O     0.89251   0.48946   0.19696   0.00000  Uiso   1.00
O231   O     0.88008   0.45465   0.26468   0.00000  Uiso   1.00
N232   N     0.61373   0.04674   0.11371   0.00000  Uiso   1.00
O233   O     0.60758   0.01052   0.13635   0.00000  Uiso   1.00
O234   O     0.61982   0.04539   0.06862   0.00000  Uiso   1.00
N235   N     0.70287   0.13902   0.21828   0.00000  Uiso   1.00
O236   O     0.70295   0.14885   0.26273   0.00000  Uiso   1.00
O237   O     0.73934   0.13735   0.19574   0.00000  Uiso   1.00
N238   N     0.79712   0.36097   0.11506   0.00000  Uiso   1.00
O239   O     0.79705   0.35096   0.07065   0.00000  Uiso   1.00
O240   O     0.76064   0.36271   0.13758   0.00000  Uiso   1.00
O241   O     0.04508   0.70491   0.20625   0.00000  Uiso   1.00
O242   O     0.45491   0.79509   0.12709   0.00000  Uiso   1.00
O243   O     0.45491   0.79509   0.20625   0.00000  Uiso   1.00
O244   O     0.04508   0.70491   0.12709   0.00000  Uiso   1.00
O245   O     0.45491   0.70491   0.12709   0.00000  Uiso   1.00
O246   O     0.04508   0.79509   0.20625   0.00000  Uiso   1.00
O247   O     0.04508   0.79509   0.12709   0.00000  Uiso   1.00
O248   O     0.45491   0.70491   0.20625   0.00000  Uiso   1.00
O249   O     0.29508   0.95491   0.20625   0.00000  Uiso   1.00
O250   O     0.20491   0.54509   0.12709   0.00000  Uiso   1.00
O251   O     0.20491   0.54509   0.20625   0.00000  Uiso   1.00
O252   O     0.29508   0.95491   0.12709   0.00000  Uiso   1.00
O253   O     0.20491   0.95491   0.12709   0.00000  Uiso   1.00
O254   O     0.29508   0.54509   0.20625   0.00000  Uiso   1.00
O255   O     0.29508   0.54509   0.12709   0.00000  Uiso   1.00
O256   O     0.20491   0.95491   0.20625   0.00000  Uiso   1.00
C257   C     0.05928   0.69047   0.16670   0.00000  Uiso   1.00
C258   C     0.44072   0.80953   0.16663   0.00000  Uiso   1.00
C259   C     0.43948   0.69159   0.16635   0.00000  Uiso   1.00
C260   C     0.06052   0.80841   0.16698   0.00000  Uiso   1.00
C261   C     0.30928   0.94047   0.16670   0.00000  Uiso   1.00
C262   C     0.19072   0.55953   0.16663   0.00000  Uiso   1.00
C263   C     0.18948   0.94159   0.16635   0.00000  Uiso   1.00
C264   C     0.31052   0.55841   0.16698   0.00000  Uiso   1.00
H265   H     0.00426   0.68087   0.04309   0.00000  Uiso   1.00
H266   H     0.49573   0.81913   0.29025   0.00000  Uiso   1.00
H267   H     0.49590   0.81919   0.04401   0.00000  Uiso   1.00
H268   H     0.00410   0.68081   0.28932   0.00000  Uiso   1.00
H269   H     0.25427   0.93087   0.04309   0.00000  Uiso   1.00
H270   H     0.24574   0.56913   0.29025   0.00000  Uiso   1.00
H271   H     0.24590   0.56919   0.04401   0.00000  Uiso   1.00
H272   H     0.25410   0.93081   0.28932   0.00000  Uiso   1.00
N273   N    -0.00000   0.75000   0.28402   0.00000  Uiso   1.00
N274   N    -0.00000   0.75000   0.04931   0.00000  Uiso   1.00
N275   N     0.25000   0.50000   0.28402   0.00000  Uiso   1.00
N276   N     0.25000   0.50000   0.04931   0.00000  Uiso   1.00
Cu277  Cu    0.00000   0.75000   0.21355   0.00000  Uiso   1.00
Cu278  Cu   -0.00000   0.75000   0.11978   0.00000  Uiso   1.00
Cu279  Cu    0.25000   0.50000   0.21355   0.00000  Uiso   1.00
Cu280  Cu    0.25000   0.50000   0.11978   0.00000  Uiso   1.00
C281   C     0.00236   0.71159   0.02456   0.00000  Uiso   1.00
C282   C     0.49764   0.78841   0.30878   0.00000  Uiso   1.00
C283   C     0.49769   0.78842   0.02508   0.00000  Uiso   1.00
C284   C     0.00231   0.71158   0.30826   0.00000  Uiso   1.00
C285   C     0.25236   0.96159   0.02456   0.00000  Uiso   1.00
C286   C     0.24764   0.53841   0.30878   0.00000  Uiso   1.00
C287   C     0.24769   0.53842   0.02508   0.00000  Uiso   1.00
C288   C     0.25231   0.96158   0.30826   0.00000  Uiso   1.00
C289   C     0.39686   0.63402   0.12470   0.00000  Uiso   1.00
C290   C     0.10314   0.86598   0.20863   0.00000  Uiso   1.00
C291   C     0.11820   0.84921   0.12620   0.00000  Uiso   1.00
C292   C     0.38180   0.65079   0.20713   0.00000  Uiso   1.00
C293   C     0.13009   0.66310   0.19425   0.00000  Uiso   1.00
C294   C     0.36991   0.83690   0.13909   0.00000  Uiso   1.00
C295   C     0.41286   0.88125   0.19382   0.00000  Uiso   1.00
C296   C     0.08714   0.61876   0.13950   0.00000  Uiso   1.00
C297   C     0.14686   0.88402   0.12470   0.00000  Uiso   1.00
C298   C     0.35313   0.61599   0.20863   0.00000  Uiso   1.00
C299   C     0.36820   0.59921   0.12621   0.00000  Uiso   1.00
C300   C     0.13180   0.90079   0.20713   0.00000  Uiso   1.00
C301   C     0.38009   0.91310   0.19424   0.00000  Uiso   1.00
C302   C     0.11991   0.58690   0.13909   0.00000  Uiso   1.00
C303   C     0.16286   0.63124   0.19383   0.00000  Uiso   1.00
C304   C     0.33714   0.86875   0.13951   0.00000  Uiso   1.00
C305   C     0.09512   0.84083   0.16770   0.00000  Uiso   1.00
C306   C     0.40487   0.65917   0.16564   0.00000  Uiso   1.00
C307   C     0.40741   0.84318   0.16642   0.00000  Uiso   1.00
C308   C     0.09259   0.65683   0.16691   0.00000  Uiso   1.00
C309   C     0.34512   0.59083   0.16770   0.00000  Uiso   1.00
C310   C     0.15488   0.90917   0.16564   0.00000  Uiso   1.00
C311   C     0.15741   0.59317   0.16642   0.00000  Uiso   1.00
C312   C     0.34259   0.90682   0.16691   0.00000  Uiso   1.00
N313   N     0.41756   0.64335   0.08106   0.00000  Uiso   1.00
O314   O     0.40371   0.67624   0.05613   0.00000  Uiso   1.00
O315   O     0.44367   0.61463   0.06218   0.00000  Uiso   1.00
N316   N     0.08245   0.85664   0.25228   0.00000  Uiso   1.00
O317   O     0.09629   0.82375   0.27720   0.00000  Uiso   1.00
O318   O     0.05634   0.88536   0.27116   0.00000  Uiso   1.00
N319   N     0.11351   0.82194   0.08532   0.00000  Uiso   1.00
O320   O     0.12569   0.78103   0.08656   0.00000  Uiso   1.00
O321   O     0.09885   0.83842   0.04631   0.00000  Uiso   1.00
N322   N     0.38648   0.67807   0.24801   0.00000  Uiso   1.00
O323   O     0.37430   0.71898   0.24676   0.00000  Uiso   1.00
O324   O     0.40113   0.66160   0.28702   0.00000  Uiso   1.00
N325   N     0.13628   0.70326   0.21962   0.00000  Uiso   1.00
O326   O     0.14240   0.73948   0.19698   0.00000  Uiso   1.00
O327   O     0.13022   0.70461   0.26471   0.00000  Uiso   1.00
N328   N     0.36373   0.79674   0.11372   0.00000  Uiso   1.00
O329   O     0.35744   0.76055   0.13637   0.00000  Uiso   1.00
O330   O     0.37001   0.79534   0.06866   0.00000  Uiso   1.00
N331   N     0.45288   0.88903   0.21827   0.00000  Uiso   1.00
O332   O     0.45295   0.89898   0.26269   0.00000  Uiso   1.00
O333   O     0.48935   0.88731   0.19574   0.00000  Uiso   1.00
N334   N     0.04713   0.61098   0.11506   0.00000  Uiso   1.00
O335   O     0.04705   0.60111   0.07061   0.00000  Uiso   1.00
O336   O     0.01066   0.61266   0.13760   0.00000  Uiso   1.00
N337   N     0.16755   0.89336   0.08105   0.00000  Uiso   1.00
O338   O     0.15370   0.92625   0.05613   0.00000  Uiso   1.00
O339   O     0.19366   0.86464   0.06217   0.00000  Uiso   1.00
N340   N     0.33244   0.60665   0.25228   0.00000  Uiso   1.00
O341   O     0.34628   0.57376   0.27720   0.00000  Uiso   1.00
O342   O     0.30633   0.63537   0.27115   0.00000  Uiso   1.00
N343   N     0.36352   0.57193   0.08533   0.00000  Uiso   1.00
O344   O     0.37570   0.53102   0.08657   0.00000  Uiso   1.00
O345   O     0.34887   0.58840   0.04631   0.00000  Uiso   1.00
N346   N     0.13649   0.92806   0.24801   0.00000  Uiso   1.00
O347   O     0.12431   0.96897   0.24678   0.00000  Uiso   1.00
O348   O     0.15114   0.91159   0.28703   0.00000  Uiso   1.00
N349   N     0.38627   0.95327   0.21961   0.00000  Uiso   1.00
O350   O     0.39251   0.98946   0.19696   0.00000  Uiso   1.00
O351   O     0.38008   0.95465   0.26468   0.00000  Uiso   1.00
N352   N     0.11373   0.54674   0.11371   0.00000  Uiso   1.00
O353   O     0.10758   0.51052   0.13635   0.00000  Uiso   1.00
O354   O     0.11982   0.54539   0.06862   0.00000  Uiso   1.00
N355   N     0.20287   0.63902   0.21828   0.00000  Uiso   1.00
O356   O     0.20295   0.64885   0.26273   0.00000  Uiso   1.00
O357   O     0.23934   0.63735   0.19574   0.00000  Uiso   1.00
N358   N     0.29712   0.86097   0.11506   0.00000  Uiso   1.00
O359   O     0.29705   0.85096   0.07065   0.00000  Uiso   1.00
O360   O     0.26064   0.86271   0.13758   0.00000  Uiso   1.00
O361   O     0.54508   0.70491   0.20625   0.00000  Uiso   1.00
O362   O     0.95491   0.79509   0.12709   0.00000  Uiso   1.00
O363   O     0.95491   0.79509   0.20625   0.00000  Uiso   1.00
O364   O     0.54508   0.70491   0.12709   0.00000  Uiso   1.00
O365   O     0.95491   0.70491   0.12709   0.00000  Uiso   1.00
O366   O     0.54508   0.79509   0.20625   0.00000  Uiso   1.00
O367   O     0.54508   0.79509   0.12709   0.00000  Uiso   1.00
O368   O     0.95491   0.70491   0.20625   0.00000  Uiso   1.00
O369   O     0.79508   0.95491   0.20625   0.00000  Uiso   1.00
O370   O     0.70491   0.54509   0.12709   0.00000  Uiso   1.00
O371   O     0.70491   0.54509   0.20625   0.00000  Uiso   1.00
O372   O     0.79508   0.95491   0.12709   0.00000  Uiso   1.00
O373   O     0.70491   0.95491   0.12709   0.00000  Uiso   1.00
O374   O     0.79508   0.54509   0.20625   0.00000  Uiso   1.00
O375   O     0.79508   0.54509   0.12709   0.00000  Uiso   1.00
O376   O     0.70491   0.95491   0.20625   0.00000  Uiso   1.00
C377   C     0.55928   0.69047   0.16670   0.00000  Uiso   1.00
C378   C     0.94072   0.80953   0.16663   0.00000  Uiso   1.00
C379   C     0.93948   0.69159   0.16635   0.00000  Uiso   1.00
C380   C     0.56052   0.80841   0.16698   0.00000  Uiso   1.00
C381   C     0.80928   0.94047   0.16670   0.00000  Uiso   1.00
C382   C     0.69072   0.55953   0.16663   0.00000  Uiso   1.00
C383   C     0.68948   0.94159   0.16635   0.00000  Uiso   1.00
C384   C     0.81052   0.55841   0.16698   0.00000  Uiso   1.00
H385   H     0.50426   0.68087   0.04309   0.00000  Uiso   1.00
H386   H     0.99573   0.81913   0.29025   0.00000  Uiso   1.00
H387   H     0.99590   0.81919   0.04401   0.00000  Uiso   1.00
H388   H     0.50410   0.68081   0.28932   0.00000  Uiso   1.00
H389   H     0.75427   0.93087   0.04309   0.00000  Uiso   1.00
H390   H     0.74574   0.56913   0.29025   0.00000  Uiso   1.00
H391   H     0.74590   0.56919   0.04401   0.00000  Uiso   1.00
H392   H     0.75410   0.93081   0.28932   0.00000  Uiso   1.00
N393   N     0.50000   0.75000   0.28402   0.00000  Uiso   1.00
N394   N     0.50000   0.75000   0.04931   0.00000  Uiso   1.00
N395   N     0.75000   0.50000   0.28402   0.00000  Uiso   1.00
N396   N     0.75000   0.50000   0.04931   0.00000  Uiso   1.00
Cu397  Cu    0.50000   0.75000   0.21355   0.00000  Uiso   1.00
Cu398  Cu    0.50000   0.75000   0.11978   0.00000  Uiso   1.00
Cu399  Cu    0.75000   0.50000   0.21355   0.00000  Uiso   1.00
Cu400  Cu    0.75000   0.50000   0.11978   0.00000  Uiso   1.00
C401   C     0.50236   0.71159   0.02456   0.00000  Uiso   1.00
C402   C     0.99764   0.78841   0.30878   0.00000  Uiso   1.00
C403   C     0.99769   0.78842   0.02508   0.00000  Uiso   1.00
C404   C     0.50231   0.71158   0.30826   0.00000  Uiso   1.00
C405   C     0.75236   0.96159   0.02456   0.00000  Uiso   1.00
C406   C     0.74764   0.53841   0.30878   0.00000  Uiso   1.00
C407   C     0.74769   0.53842   0.02508   0.00000  Uiso   1.00
C408   C     0.75231   0.96158   0.30826   0.00000  Uiso   1.00
C409   C     0.89686   0.63402   0.12470   0.00000  Uiso   1.00
C410   C     0.60314   0.86598   0.20863   0.00000  Uiso   1.00
C411   C     0.61820   0.84921   0.12620   0.00000  Uiso   1.00
C412   C     0.88180   0.65079   0.20713   0.00000  Uiso   1.00
C413   C     0.63009   0.66310   0.19425   0.00000  Uiso   1.00
C414   C     0.86991   0.83690   0.13909   0.00000  Uiso   1.00
C415   C     0.91286   0.88125   0.19382   0.00000  Uiso   1.00
C416   C     0.58714   0.61876   0.13950   0.00000  Uiso   1.00
C417   C     0.64686   0.88402   0.12470   0.00000  Uiso   1.00
C418   C     0.85313   0.61599   0.20863   0.00000  Uiso   1.00
C419   C     0.86820   0.59921   0.12621   0.00000  Uiso   1.00
C420   C     0.63180   0.90079   0.20713   0.00000  Uiso   1.00
C421   C     0.88009   0.91310   0.19424   0.00000  Uiso   1.00
C422   C     0.61991   0.58690   0.13909   0.00000  Uiso   1.00
C423   C     0.66286   0.63124   0.19383   0.00000  Uiso   1.00
C424   C     0.83714   0.86875   0.13951   0.00000  Uiso   1.00
C425   C     0.59512   0.84083   0.16770   0.00000  Uiso   1.00
C426   C     0.90487   0.65917   0.16564   0.00000  Uiso   1.00
C427   C     0.90741   0.84318   0.16642   0.00000  Uiso   1.00
C428   C     0.59259   0.65683   0.16691   0.00000  Uiso   1.00
C429   C     0.84512   0.59083   0.16770   0.00000  Uiso   1.00
C430   C     0.65488   0.90917   0.16564   0.00000  Uiso   1.00
C431   C     0.65741   0.59317   0.16642   0.00000  Uiso   1.00
C432   C     0.84259   0.90682   0.16691   0.00000  Uiso   1.00
N433   N     0.91756   0.64335   0.08106   0.00000  Uiso   1.00
O434   O     0.90371   0.67624   0.05613   0.00000  Uiso   1.00
O435   O     0.94367   0.61463   0.06218   0.00000  Uiso   1.00
N436   N     0.58245   0.85664   0.25228   0.00000  Uiso   1.00
O437   O     0.59629   0.82375   0.27720   0.00000  Uiso   1.00
O438   O     0.55634   0.88536   0.27116   0.00000  Uiso   1.00
N439   N     0.61351   0.82194   0.08532   0.00000  Uiso   1.00
O440   O     0.62569   0.78103   0.08656   0.00000  Uiso   1.00
O441   O     0.59885   0.83842   0.04631   0.00000  Uiso   1.00
N442   N     0.88648   0.67807   0.24801   0.00000  Uiso   1.00
O443   O     0.87430   0.71898   0.24676   0.00000  Uiso   1.00
O444   O     0.90113   0.66160   0.28702   0.00000  Uiso   1.00
N445   N     0.63628   0.70326   0.21962   0.00000  Uiso   1.00
O446   O     0.64240   0.73948   0.19698   0.00000  Uiso   1.00
O447   O     0.63022   0.70461   0.26471   0.00000  Uiso   1.00
N448   N     0.86373   0.79674   0.11372   0.00000  Uiso   1.00
O449   O     0.85744   0.76055   0.13637   0.00000  Uiso   1.00
O450   O     0.87001   0.79534   0.06866   0.00000  Uiso   1.00
N451   N     0.95288   0.88903   0.21827   0.00000  Uiso   1.00
O452   O     0.95295   0.89898   0.26269   0.00000  Uiso   1.00
O453   O     0.98935   0.88731   0.19574   0.00000  Uiso   1.00
N454   N     0.54713   0.61098   0.11506   0.00000  Uiso   1.00
O455   O     0.54705   0.60111   0.07061   0.00000  Uiso   1.00
O456   O     0.51066   0.61266   0.13760   0.00000  Uiso   1.00
N457   N     0.66755   0.89336   0.08105   0.00000  Uiso   1.00
O458   O     0.65370   0.92625   0.05613   0.00000  Uiso   1.00
O459   O     0.69366   0.86464   0.06217   0.00000  Uiso   1.00
N460   N     0.83244   0.60665   0.25228   0.00000  Uiso   1.00
O461   O     0.84628   0.57376   0.27720   0.00000  Uiso   1.00
O462   O     0.80633   0.63537   0.27115   0.00000  Uiso   1.00
N463   N     0.86352   0.57193   0.08533   0.00000  Uiso   1.00
O464   O     0.87570   0.53102   0.08657   0.00000  Uiso   1.00
O465   O     0.84887   0.58840   0.04631   0.00000  Uiso   1.00
N466   N     0.63649   0.92806   0.24801   0.00000  Uiso   1.00
O467   O     0.62431   0.96897   0.24678   0.00000  Uiso   1.00
O468   O     0.65114   0.91159   0.28703   0.00000  Uiso   1.00
N469   N     0.88627   0.95327   0.21961   0.00000  Uiso   1.00
O470   O     0.89251   0.98946   0.19696   0.00000  Uiso   1.00
O471   O     0.88008   0.95465   0.26468   0.00000  Uiso   1.00
N472   N     0.61373   0.54674   0.11371   0.00000  Uiso   1.00
O473   O     0.60758   0.51052   0.13635   0.00000  Uiso   1.00
O474   O     0.61982   0.54539   0.06862   0.00000  Uiso   1.00
N475   N     0.70287   0.63902   0.21828   0.00000  Uiso   1.00
O476   O     0.70295   0.64885   0.26273   0.00000  Uiso   1.00
O477   O     0.73934   0.63735   0.19574   0.00000  Uiso   1.00
N478   N     0.79712   0.86097   0.11506   0.00000  Uiso   1.00
O479   O     0.79705   0.85096   0.07065   0.00000  Uiso   1.00
O480   O     0.76064   0.86271   0.13758   0.00000  Uiso   1.00
O481   O     0.04508   0.20491   0.53958   0.00000  Uiso   1.00
O482   O     0.45491   0.29509   0.46042   0.00000  Uiso   1.00
O483   O     0.45491   0.29509   0.53958   0.00000  Uiso   1.00
O484   O     0.04508   0.20491   0.46042   0.00000  Uiso   1.00
O485   O     0.45491   0.20491   0.46042   0.00000  Uiso   1.00
O486   O     0.04508   0.29509   0.53958   0.00000  Uiso   1.00
O487   O     0.04508   0.29509   0.46042   0.00000  Uiso   1.00
O488   O     0.45491   0.20491   0.53958   0.00000  Uiso   1.00
O489   O     0.29508   0.45491   0.53958   0.00000  Uiso   1.00
O490   O     0.20491   0.04509   0.46042   0.00000  Uiso   1.00
O491   O     0.20491   0.04509   0.53958   0.00000  Uiso   1.00
O492   O     0.29508   0.45491   0.46042   0.00000  Uiso   1.00
O493   O     0.20491   0.45491   0.46042   0.00000  Uiso   1.00
O494   O     0.29508   0.04509   0.53958   0.00000  Uiso   1.00
O495   O     0.29508   0.04509   0.46042   0.00000  Uiso   1.00
O496   O     0.20491   0.45491   0.53958   0.00000  Uiso   1.00
C497   C     0.05928   0.19047   0.50003   0.00000  Uiso   1.00
C498   C     0.44072   0.30953   0.49997   0.00000  Uiso   1.00
C499   C     0.43948   0.19159   0.49969   0.00000  Uiso   1.00
C500   C     0.06052   0.30841   0.50031   0.00000  Uiso   1.00
C501   C     0.30928   0.44047   0.50003   0.00000  Uiso   1.00
C502   C     0.19072   0.05953   0.49997   0.00000  Uiso   1.00
C503   C     0.18948   0.44159   0.49969   0.00000  Uiso   1.00
C504   C     0.31052   0.05841   0.50031   0.00000  Uiso   1.00
H505   H     0.00426   0.18087   0.37642   0.00000  Uiso   1.00
H506   H     0.49573   0.31913   0.62358   0.00000  Uiso   1.00
H507   H     0.49590   0.31919   0.37734   0.00000  Uiso   1.00
H508   H     0.00410   0.18081   0.62266   0.00000  Uiso   1.00
H509   H     0.25427   0.43087   0.37642   0.00000  Uiso   1.00
H510   H     0.24574   0.06913   0.62358   0.00000  Uiso   1.00
H511   H     0.24590   0.06919   0.37734   0.00000  Uiso   1.00
H512   H     0.25410   0.43081   0.62266   0.00000  Uiso   1.00
N513   N    -0.00000   0.25000   0.61736   0.00000  Uiso   1.00
N514   N    -0.00000   0.25000   0.38264   0.00000  Uiso   1.00
N515   N     0.25000   0.00000   0.61736   0.00000  Uiso   1.00
N516   N     0.25000   0.00000   0.38264   0.00000  Uiso   1.00
Cu517  Cu    0.00000   0.25000   0.54689   0.00000  Uiso   1.00
Cu518  Cu   -0.00000   0.25000   0.45311   0.00000  Uiso   1.00
Cu519  Cu    0.25000   0.00000   0.54689   0.00000  Uiso   1.00
Cu520  Cu    0.25000   0.00000   0.45311   0.00000  Uiso   1.00
C521   C     0.00236   0.21159   0.35789   0.00000  Uiso   1.00
C522   C     0.49764   0.28841   0.64211   0.00000  Uiso   1.00
C523   C     0.49769   0.28842   0.35841   0.00000  Uiso   1.00
C524   C     0.00231   0.21158   0.64159   0.00000  Uiso   1.00
C525   C     0.25236   0.46159   0.35789   0.00000  Uiso   1.00
C526   C     0.24764   0.03841   0.64211   0.00000  Uiso   1.00
C527   C     0.24769   0.03842   0.35841   0.00000  Uiso   1.00
C528   C     0.25231   0.46158   0.64159   0.00000  Uiso   1.00
C529   C     0.39686   0.13402   0.45803   0.00000  Uiso   1.00
C530   C     0.10314   0.36598   0.54197   0.00000  Uiso   1.00
C531   C     0.11820   0.34921   0.45954   0.00000  Uiso   1.00
C532   C     0.38180   0.15079   0.54046   0.00000  Uiso   1.00
C533   C     0.13009   0.16310   0.52758   0.00000  Uiso   1.00
C534   C     0.36991   0.33690   0.47242   0.00000  Uiso   1.00
C535   C     0.41286   0.38125   0.52715   0.00000  Uiso   1.00
C536   C     0.08714   0.11876   0.47284   0.00000  Uiso   1.00
C537   C     0.14686   0.38402   0.45803   0.00000  Uiso   1.00
C538   C     0.35313   0.11599   0.54197   0.00000  Uiso   1.00
C539   C     0.36820   0.09921   0.45954   0.00000  Uiso   1.00
C540   C     0.13180   0.40079   0.54046   0.00000  Uiso   1.00
C541   C     0.38009   0.41310   0.52758   0.00000  Uiso   1.00
C542   C     0.11991   0.08690   0.47242   0.00000  Uiso   1.00
C543   C     0.16286   0.13124   0.52716   0.00000  Uiso   1.00
C544   C     0.33714   0.36875   0.47285   0.00000  Uiso   1.00
C545   C     0.09512   0.34083   0.50103   0.00000  Uiso   1.00
C546   C     0.40487   0.15917   0.49897   0.00000  Uiso   1.00
C547   C     0.40741   0.34318   0.49975   0.00000  Uiso   1.00
C548   C     0.09259   0.15683   0.50024   0.00000  Uiso   1.00
C549   C     0.34512   0.09083   0.50103   0.00000  Uiso   1.00
C550   C     0.15488   0.40917   0.49897   0.00000  Uiso   1.00
C551   C     0.15741   0.09317   0.49976   0.00000  Uiso   1.00
C552   C     0.34259   0.40682   0.50025   0.00000  Uiso   1.00
N553   N     0.41756   0.14335   0.41439   0.00000  Uiso   1.00
O554   O     0.40371   0.17624   0.38946   0.00000  Uiso   1.00
O555   O     0.44367   0.11463   0.39551   0.00000  Uiso   1.00
N556   N     0.08245   0.35664   0.58561   0.00000  Uiso   1.00
O557   O     0.09629   0.32375   0.61054   0.00000  Uiso   1.00
O558   O     0.05634   0.38536   0.60449   0.00000  Uiso   1.00
N559   N     0.11351   0.32194   0.41865   0.00000  Uiso   1.00
O560   O     0.12569   0.28103   0.41989   0.00000  Uiso   1.00
O561   O     0.09885   0.33842   0.37964   0.00000  Uiso   1.00
N562   N     0.38648   0.17807   0.58134   0.00000  Uiso   1.00
O563   O     0.37430   0.21898   0.58009   0.00000  Uiso   1.00
O564   O     0.40113   0.16160   0.62036   0.00000  Uiso   1.00
N565   N     0.13628   0.20326   0.55296   0.00000  Uiso   1.00
O566   O     0.14240   0.23948   0.53031   0.00000  Uiso   1.00
O567   O     0.13022   0.20461   0.59804   0.00000  Uiso   1.00
N568   N     0.36373   0.29674   0.44705   0.00000  Uiso   1.00
O569   O     0.35744   0.26055   0.46970   0.00000  Uiso   1.00
O570   O     0.37001   0.29534   0.40199   0.00000  Uiso   1.00
N571   N     0.45288   0.38903   0.55160   0.00000  Uiso   1.00
O572   O     0.45295   0.39898   0.59602   0.00000  Uiso   1.00
O573   O     0.48935   0.38731   0.52907   0.00000  Uiso   1.00
N574   N     0.04713   0.11098   0.44839   0.00000  Uiso   1.00
O575   O     0.04705   0.10111   0.40395   0.00000  Uiso   1.00
O576   O     0.01066   0.11266   0.47093   0.00000  Uiso   1.00
N577   N     0.16755   0.39336   0.41439   0.00000  Uiso   1.00
O578   O     0.15370   0.42625   0.38946   0.00000  Uiso   1.00
O579   O     0.19366   0.36464   0.39550   0.00000  Uiso   1.00
N580   N     0.33244   0.10665   0.58561   0.00000  Uiso   1.00
O581   O     0.34628   0.07376   0.61054   0.00000  Uiso   1.00
O582   O     0.30633   0.13537   0.60449   0.00000  Uiso   1.00
N583   N     0.36352   0.07193   0.41866   0.00000  Uiso   1.00
O584   O     0.37570   0.03102   0.41990   0.00000  Uiso   1.00
O585   O     0.34887   0.08840   0.37964   0.00000  Uiso   1.00
N586   N     0.13649   0.42806   0.58135   0.00000  Uiso   1.00
O587   O     0.12431   0.46897   0.58011   0.00000  Uiso   1.00
O588   O     0.15114   0.41159   0.62036   0.00000  Uiso   1.00
N589   N     0.38627   0.45327   0.55295   0.00000  Uiso   1.00
O590   O     0.39251   0.48946   0.53030   0.00000  Uiso   1.00
O591   O     0.38008   0.45465   0.59801   0.00000  Uiso   1.00
N592   N     0.11373   0.04674   0.44704   0.00000  Uiso   1.00
O593   O     0.10758   0.01052   0.46969   0.00000  Uiso   1.00
O594   O     0.11982   0.04539   0.40196   0.00000  Uiso   1.00
N595   N     0.20287   0.13902   0.55161   0.00000  Uiso   1.00
O596   O     0.20295   0.14885   0.59606   0.00000  Uiso   1.00
O597   O     0.23934   0.13735   0.52907   0.00000  Uiso   1.00
N598   N     0.29712   0.36097   0.44840   0.00000  Uiso   1.00
O599   O     0.29705   0.35096   0.40399   0.00000  Uiso   1.00
O600   O     0.26064   0.36271   0.47092   0.00000  Uiso   1.00
O601   O     0.54508   0.20491   0.53958   0.00000  Uiso   1.00
O602   O     0.95491   0.29509   0.46042   0.00000  Uiso   1.00
O603   O     0.95491   0.29509   0.53958   0.00000  Uiso   1.00
O604   O     0.54508   0.20491   0.46042   0.00000  Uiso   1.00
O605   O     0.95491   0.20491   0.46042   0.00000  Uiso   1.00
O606   O     0.54508   0.29509   0.53958   0.00000  Uiso   1.00
O607   O     0.54508   0.29509   0.46042   0.00000  Uiso   1.00
O608   O     0.95491   0.20491   0.53958   0.00000  Uiso   1.00
O609   O     0.79508   0.45491   0.53958   0.00000  Uiso   1.00
O610   O     0.70491   0.04509   0.46042   0.00000  Uiso   1.00
O611   O     0.70491   0.04509   0.53958   0.00000  Uiso   1.00
O612   O     0.79508   0.45491   0.46042   0.00000  Uiso   1.00
O613   O     0.70491   0.45491   0.46042   0.00000  Uiso   1.00
O614   O     0.79508   0.04509   0.53958   0.00000  Uiso   1.00
O615   O     0.79508   0.04509   0.46042   0.00000  Uiso   1.00
O616   O     0.70491   0.45491   0.53958   0.00000  Uiso   1.00
C617   C     0.55928   0.19047   0.50003   0.00000  Uiso   1.00
C618   C     0.94072   0.30953   0.49997   0.00000  Uiso   1.00
C619   C     0.93948   0.19159   0.49969   0.00000  Uiso   1.00
C620   C     0.56052   0.30841   0.50031   0.00000  Uiso   1.00
C621   C     0.80928   0.44047   0.50003   0.00000  Uiso   1.00
C622   C     0.69072   0.05953   0.49997   0.00000  Uiso   1.00
C623   C     0.68948   0.44159   0.49969   0.00000  Uiso   1.00
C624   C     0.81052   0.05841   0.50031   0.00000  Uiso   1.00
H625   H     0.50426   0.18087   0.37642   0.00000  Uiso   1.00
H626   H     0.99573   0.31913   0.62358   0.00000  Uiso   1.00
H627   H     0.99590   0.31919   0.37734   0.00000  Uiso   1.00
H628   H     0.50410   0.18081   0.62266   0.00000  Uiso   1.00
H629   H     0.75427   0.43087   0.37642   0.00000  Uiso   1.00
H630   H     0.74574   0.06913   0.62358   0.00000  Uiso   1.00
H631   H     0.74590   0.06919   0.37734   0.00000  Uiso   1.00
H632   H     0.75410   0.43081   0.62266   0.00000  Uiso   1.00
N633   N     0.50000   0.25000   0.61736   0.00000  Uiso   1.00
N634   N     0.50000   0.25000   0.38264   0.00000  Uiso   1.00
N635   N     0.75000   0.00000   0.61736   0.00000  Uiso   1.00
N636   N     0.75000   0.00000   0.38264   0.00000  Uiso   1.00
Cu637  Cu    0.50000   0.25000   0.54689   0.00000  Uiso   1.00
Cu638  Cu    0.50000   0.25000   0.45311   0.00000  Uiso   1.00
Cu639  Cu    0.75000   0.00000   0.54689   0.00000  Uiso   1.00
Cu640  Cu    0.75000   0.00000   0.45311   0.00000  Uiso   1.00
C641   C     0.50236   0.21159   0.35789   0.00000  Uiso   1.00
C642   C     0.99764   0.28841   0.64211   0.00000  Uiso   1.00
C643   C     0.99769   0.28842   0.35841   0.00000  Uiso   1.00
C644   C     0.50231   0.21158   0.64159   0.00000  Uiso   1.00
C645   C     0.75236   0.46159   0.35789   0.00000  Uiso   1.00
C646   C     0.74764   0.03841   0.64211   0.00000  Uiso   1.00
C647   C     0.74769   0.03842   0.35841   0.00000  Uiso   1.00
C648   C     0.75231   0.46158   0.64159   0.00000  Uiso   1.00
C649   C     0.89686   0.13402   0.45803   0.00000  Uiso   1.00
C650   C     0.60314   0.36598   0.54197   0.00000  Uiso   1.00
C651   C     0.61820   0.34921   0.45954   0.00000  Uiso   1.00
C652   C     0.88180   0.15079   0.54046   0.00000  Uiso   1.00
C653   C     0.63009   0.16310   0.52758   0.00000  Uiso   1.00
C654   C     0.86991   0.33690   0.47242   0.00000  Uiso   1.00
C655   C     0.91286   0.38125   0.52715   0.00000  Uiso   1.00
C656   C     0.58714   0.11876   0.47284   0.00000  Uiso   1.00
C657   C     0.64686   0.38402   0.45803   0.00000  Uiso   1.00
C658   C     0.85313   0.11599   0.54197   0.00000  Uiso   1.00
C659   C     0.86820   0.09921   0.45954   0.00000  Uiso   1.00
C660   C     0.63180   0.40079   0.54046   0.00000  Uiso   1.00
C661   C     0.88009   0.41310   0.52758   0.00000  Uiso   1.00
C662   C     0.61991   0.08690   0.47242   0.00000  Uiso   1.00
C663   C     0.66286   0.13124   0.52716   0.00000  Uiso   1.00
C664   C     0.83714   0.36875   0.47285   0.00000  Uiso   1.00
C665   C     0.59512   0.34083   0.50103   0.00000  Uiso   1.00
C666   C     0.90487   0.15917   0.49897   0.00000  Uiso   1.00
C667   C     0.90741   0.34318   0.49975   0.00000  Uiso   1.00
C668   C     0.59259   0.15683   0.50024   0.00000  Uiso   1.00
C669   C     0.84512   0.09083   0.50103   0.00000  Uiso   1.00
C670   C     0.65488   0.40917   0.49897   0.00000  Uiso   1.00
C671   C     0.65741   0.09317   0.49976   0.00000  Uiso   1.00
C672   C     0.84259   0.40682   0.50025   0.00000  Uiso   1.00
N673   N     0.91756   0.14335   0.41439   0.00000  Uiso   1.00
O674   O     0.90371   0.17624   0.38946   0.00000  Uiso   1.00
O675   O     0.94367   0.11463   0.39551   0.00000  Uiso   1.00
N676   N     0.58245   0.35664   0.58561   0.00000  Uiso   1.00
O677   O     0.59629   0.32375   0.61054   0.00000  Uiso   1.00
O678   O     0.55634   0.38536   0.60449   0.00000  Uiso   1.00
N679   N     0.61351   0.32194   0.41865   0.00000  Uiso   1.00
O680   O     0.62569   0.28103   0.41989   0.00000  Uiso   1.00
O681   O     0.59885   0.33842   0.37964   0.00000  Uiso   1.00
N682   N     0.88648   0.17807   0.58134   0.00000  Uiso   1.00
O683   O     0.87430   0.21898   0.58009   0.00000  Uiso   1.00
O684   O     0.90113   0.16160   0.62036   0.00000  Uiso   1.00
N685   N     0.63628   0.20326   0.55296   0.00000  Uiso   1.00
O686   O     0.64240   0.23948   0.53031   0.00000  Uiso   1.00
O687   O     0.63022   0.20461   0.59804   0.00000  Uiso   1.00
N688   N     0.86373   0.29674   0.44705   0.00000  Uiso   1.00
O689   O     0.85744   0.26055   0.46970   0.00000  Uiso   1.00
O690   O     0.87001   0.29534   0.40199   0.00000  Uiso   1.00
N691   N     0.95288   0.38903   0.55160   0.00000  Uiso   1.00
O692   O     0.95295   0.39898   0.59602   0.00000  Uiso   1.00
O693   O     0.98935   0.38731   0.52907   0.00000  Uiso   1.00
N694   N     0.54713   0.11098   0.44839   0.00000  Uiso   1.00
O695   O     0.54705   0.10111   0.40395   0.00000  Uiso   1.00
O696   O     0.51066   0.11266   0.47093   0.00000  Uiso   1.00
N697   N     0.66755   0.39336   0.41439   0.00000  Uiso   1.00
O698   O     0.65370   0.42625   0.38946   0.00000  Uiso   1.00
O699   O     0.69366   0.36464   0.39550   0.00000  Uiso   1.00
N700   N     0.83244   0.10665   0.58561   0.00000  Uiso   1.00
O701   O     0.84628   0.07376   0.61054   0.00000  Uiso   1.00
O702   O     0.80633   0.13537   0.60449   0.00000  Uiso   1.00
N703   N     0.86352   0.07193   0.41866   0.00000  Uiso   1.00
O704   O     0.87570   0.03102   0.41990   0.00000  Uiso   1.00
O705   O     0.84887   0.08840   0.37964   0.00000  Uiso   1.00
N706   N     0.63649   0.42806   0.58135   0.00000  Uiso   1.00
O707   O     0.62431   0.46897   0.58011   0.00000  Uiso   1.00
O708   O     0.65114   0.41159   0.62036   0.00000  Uiso   1.00
N709   N     0.88627   0.45327   0.55295   0.00000  Uiso   1.00
O710   O     0.89251   0.48946   0.53030   0.00000  Uiso   1.00
O711   O     0.88008   0.45465   0.59801   0.00000  Uiso   1.00
N712   N     0.61373   0.04674   0.44704   0.00000  Uiso   1.00
O713   O     0.60758   0.01052   0.46969   0.00000  Uiso   1.00
O714   O     0.61982   0.04539   0.40196   0.00000  Uiso   1.00
N715   N     0.70287   0.13902   0.55161   0.00000  Uiso   1.00
O716   O     0.70295   0.14885   0.59606   0.00000  Uiso   1.00
O717   O     0.73934   0.13735   0.52907   0.00000  Uiso   1.00
N718   N     0.79712   0.36097   0.44840   0.00000  Uiso   1.00
O719   O     0.79705   0.35096   0.40399   0.00000  Uiso   1.00
O720   O     0.76064   0.36271   0.47092   0.00000  Uiso   1.00
O721   O     0.04508   0.70491   0.53958   0.00000  Uiso   1.00
O722   O     0.45491   0.79509   0.46042   0.00000  Uiso   1.00
O723   O     0.45491   0.79509   0.53958   0.00000  Uiso   1.00
O724   O     0.04508   0.70491   0.46042   0.00000  Uiso   1.00
O725   O     0.45491   0.70491   0.46042   0.00000  Uiso   1.00
O726   O     0.04508   0.79509   0.53958   0.00000  Uiso   1.00
O727   O     0.04508   0.79509   0.46042   0.00000  Uiso   1.00
O728   O     0.45491   0.70491   0.53958   0.00000  Uiso   1.00
O729   O     0.29508   0.95491   0.53958   0.00000  Uiso   1.00
O730   O     0.20491   0.54509   0.46042   0.00000  Uiso   1.00
O731   O     0.20491   0.54509   0.53958   0.00000  Uiso   1.00
O732   O     0.29508   0.95491   0.46042   0.00000  Uiso   1.00
O733   O     0.20491   0.95491   0.46042   0.00000  Uiso   1.00
O734   O     0.29508   0.54509   0.53958   0.00000  Uiso   1.00
O735   O     0.29508   0.54509   0.46042   0.00000  Uiso   1.00
O736   O     0.20491   0.95491   0.53958   0.00000  Uiso   1.00
C737   C     0.05928   0.69047   0.50003   0.00000  Uiso   1.00
C738   C     0.44072   0.80953   0.49997   0.00000  Uiso   1.00
C739   C     0.43948   0.69159   0.49969   0.00000  Uiso   1.00
C740   C     0.06052   0.80841   0.50031   0.00000  Uiso   1.00
C741   C     0.30928   0.94047   0.50003   0.00000  Uiso   1.00
C742   C     0.19072   0.55953   0.49997   0.00000  Uiso   1.00
C743   C     0.18948   0.94159   0.49969   0.00000  Uiso   1.00
C744   C     0.31052   0.55841   0.50031   0.00000  Uiso   1.00
H745   H     0.00426   0.68087   0.37642   0.00000  Uiso   1.00
H746   H     0.49573   0.81913   0.62358   0.00000  Uiso   1.00
H747   H     0.49590   0.81919   0.37734   0.00000  Uiso   1.00
H748   H     0.00410   0.68081   0.62266   0.00000  Uiso   1.00
H749   H     0.25427   0.93087   0.37642   0.00000  Uiso   1.00
H750   H     0.24574   0.56913   0.62358   0.00000  Uiso   1.00
H751   H     0.24590   0.56919   0.37734   0.00000  Uiso   1.00
H752   H     0.25410   0.93081   0.62266   0.00000  Uiso   1.00
N753   N    -0.00000   0.75000   0.61736   0.00000  Uiso   1.00
N754   N    -0.00000   0.75000   0.38264   0.00000  Uiso   1.00
N755   N     0.25000   0.50000   0.61736   0.00000  Uiso   1.00
N756   N     0.25000   0.50000   0.38264   0.00000  Uiso   1.00
Cu757  Cu    0.00000   0.75000   0.54689   0.00000  Uiso   1.00
Cu758  Cu   -0.00000   0.75000   0.45311   0.00000  Uiso   1.00
Cu759  Cu    0.25000   0.50000   0.54689   0.00000  Uiso   1.00
Cu760  Cu    0.25000   0.50000   0.45311   0.00000  Uiso   1.00
C761   C     0.00236   0.71159   0.35789   0.00000  Uiso   1.00
C762   C     0.49764   0.78841   0.64211   0.00000  Uiso   1.00
C763   C     0.49769   0.78842   0.35841   0.00000  Uiso   1.00
C764   C     0.00231   0.71158   0.64159   0.00000  Uiso   1.00
C765   C     0.25236   0.96159   0.35789   0.00000  Uiso   1.00
C766   C     0.24764   0.53841   0.64211   0.00000  Uiso   1.00
C767   C     0.24769   0.53842   0.35841   0.00000  Uiso   1.00
C768   C     0.25231   0.96158   0.64159   0.00000  Uiso   1.00
C769   C     0.39686   0.63402   0.45803   0.00000  Uiso   1.00
C770   C     0.10314   0.86598   0.54197   0.00000  Uiso   1.00
C771   C     0.11820   0.84921   0.45954   0.00000  Uiso   1.00
C772   C     0.38180   0.65079   0.54046   0.00000  Uiso   1.00
C773   C     0.13009   0.66310   0.52758   0.00000  Uiso   1.00
C774   C     0.36991   0.83690   0.47242   0.00000  Uiso   1.00
C775   C     0.41286   0.88125   0.52715   0.00000  Uiso   1.00
C776   C     0.08714   0.61876   0.47284   0.00000  Uiso   1.00
C777   C     0.14686   0.88402   0.45803   0.00000  Uiso   1.00
C778   C     0.35313   0.61599   0.54197   0.00000  Uiso   1.00
C779   C     0.36820   0.59921   0.45954   0.00000  Uiso   1.00
C780   C     0.13180   0.90079   0.54046   0.00000  Uiso   1.00
C781   C     0.38009   0.91310   0.52758   0.00000  Uiso   1.00
C782   C     0.11991   0.58690   0.47242   0.00000  Uiso   1.00
C783   C     0.16286   0.63124   0.52716   0.00000  Uiso   1.00
C784   C     0.33714   0.86875   0.47285   0.00000  Uiso   1.00
C785   C     0.09512   0.84083   0.50103   0.00000  Uiso   1.00
C786   C     0.40487   0.65917   0.49897   0.00000  Uiso   1.00
C787   C     0.40741   0.84318   0.49975   0.00000  Uiso   1.00
C788   C     0.09259   0.65683   0.50024   0.00000  Uiso   1.00
C789   C     0.34512   0.59083   0.50103   0.00000  Uiso   1.00
C790   C     0.15488   0.90917   0.49897   0.00000  Uiso   1.00
C791   C     0.15741   0.59317   0.49976   0.00000  Uiso   1.00
C792   C     0.34259   0.90682   0.50025   0.00000  Uiso   1.00
N793   N     0.41756   0.64335   0.41439   0.00000  Uiso   1.00
O794   O     0.40371   0.67624   0.38946   0.00000  Uiso   1.00
O795   O     0.44367   0.61463   0.39551   0.00000  Uiso   1.00
N796   N     0.08245   0.85664   0.58561   0.00000  Uiso   1.00
O797   O     0.09629   0.82375   0.61054   0.00000  Uiso   1.00
O798   O     0.05634   0.88536   0.60449   0.00000  Uiso   1.00
N799   N     0.11351   0.82194   0.41865   0.00000  Uiso   1.00
O800   O     0.12569   0.78103   0.41989   0.00000  Uiso   1.00
O801   O     0.09885   0.83842   0.37964   0.00000  Uiso   1.00
N802   N     0.38648   0.67807   0.58134   0.00000  Uiso   1.00
O803   O     0.37430   0.71898   0.58009   0.00000  Uiso   1.00
O804   O     0.40113   0.66160   0.62036   0.00000  Uiso   1.00
N805   N     0.13628   0.70326   0.55296   0.00000  Uiso   1.00
O806   O     0.14240   0.73948   0.53031   0.00000  Uiso   1.00
O807   O     0.13022   0.70461   0.59804   0.00000  Uiso   1.00
N808   N     0.36373   0.79674   0.44705   0.00000  Uiso   1.00
O809   O     0.35744   0.76055   0.46970   0.00000  Uiso   1.00
O810   O     0.37001   0.79534   0.40199   0.00000  Uiso   1.00
N811   N     0.45288   0.88903   0.55160   0.00000  Uiso   1.00
O812   O     0.45295   0.89898   0.59602   0.00000  Uiso   1.00
O813   O     0.48935   0.88731   0.52907   0.00000  Uiso   1.00
N814   N     0.04713   0.61098   0.44839   0.00000  Uiso   1.00
O815   O     0.04705   0.60111   0.40395   0.00000  Uiso   1.00
O816   O     0.01066   0.61266   0.47093   0.00000  Uiso   1.00
N817   N     0.16755   0.89336   0.41439   0.00000  Uiso   1.00
O818   O     0.15370   0.92625   0.38946   0.00000  Uiso   1.00
O819   O     0.19366   0.86464   0.39550   0.00000  Uiso   1.00
N820   N     0.33244   0.60665   0.58561   0.00000  Uiso   1.00
O821   O     0.34628   0.57376   0.61054   0.00000  Uiso   1.00
O822   O     0.30633   0.63537   0.60449   0.00000  Uiso   1.00
N823   N     0.36352   0.57193   0.41866   0.00000  Uiso   1.00
O824   O     0.37570   0.53102   0.41990   0.00000  Uiso   1.00
O825   O     0.34887   0.58840   0.37964   0.00000  Uiso   1.00
N826   N     0.13649   0.92806   0.58135   0.00000  Uiso   1.00
O827   O     0.12431   0.96897   0.58011   0.00000  Uiso   1.00
O828   O     0.15114   0.91159   0.62036   0.00000  Uiso   1.00
N829   N     0.38627   0.95327   0.55295   0.00000  Uiso   1.00
O830   O     0.39251   0.98946   0.53030   0.00000  Uiso   1.00
O831   O     0.38008   0.95465   0.59801   0.00000  Uiso   1.00
N832   N     0.11373   0.54674   0.44704   0.00000  Uiso   1.00
O833   O     0.10758   0.51052   0.46969   0.00000  Uiso   1.00
O834   O     0.11982   0.54539   0.40196   0.00000  Uiso   1.00
N835   N     0.20287   0.63902   0.55161   0.00000  Uiso   1.00
O836   O     0.20295   0.64885   0.59606   0.00000  Uiso   1.00
O837   O     0.23934   0.63735   0.52907   0.00000  Uiso   1.00
N838   N     0.29712   0.86097   0.44840   0.00000  Uiso   1.00
O839   O     0.29705   0.85096   0.40399   0.00000  Uiso   1.00
O840   O     0.26064   0.86271   0.47092   0.00000  Uiso   1.00
O841   O     0.54508   0.70491   0.53958   0.00000  Uiso   1.00
O842   O     0.95491   0.79509   0.46042   0.00000  Uiso   1.00
O843   O     0.95491   0.79509   0.53958   0.00000  Uiso   1.00
O844   O     0.54508   0.70491   0.46042   0.00000  Uiso   1.00
O845   O     0.95491   0.70491   0.46042   0.00000  Uiso   1.00
O846   O     0.54508   0.79509   0.53958   0.00000  Uiso   1.00
O847   O     0.54508   0.79509   0.46042   0.00000  Uiso   1.00
O848   O     0.95491   0.70491   0.53958   0.00000  Uiso   1.00
O849   O     0.79508   0.95491   0.53958   0.00000  Uiso   1.00
O850   O     0.70491   0.54509   0.46042   0.00000  Uiso   1.00
O851   O     0.70491   0.54509   0.53958   0.00000  Uiso   1.00
O852   O     0.79508   0.95491   0.46042   0.00000  Uiso   1.00
O853   O     0.70491   0.95491   0.46042   0.00000  Uiso   1.00
O854   O     0.79508   0.54509   0.53958   0.00000  Uiso   1.00
O855   O     0.79508   0.54509   0.46042   0.00000  Uiso   1.00
O856   O     0.70491   0.95491   0.53958   0.00000  Uiso   1.00
C857   C     0.55928   0.69047   0.50003   0.00000  Uiso   1.00
C858   C     0.94072   0.80953   0.49997   0.00000  Uiso   1.00
C859   C     0.93948   0.69159   0.49969   0.00000  Uiso   1.00
C860   C     0.56052   0.80841   0.50031   0.00000  Uiso   1.00
C861   C     0.80928   0.94047   0.50003   0.00000  Uiso   1.00
C862   C     0.69072   0.55953   0.49997   0.00000  Uiso   1.00
C863   C     0.68948   0.94159   0.49969   0.00000  Uiso   1.00
C864   C     0.81052   0.55841   0.50031   0.00000  Uiso   1.00
H865   H     0.50426   0.68087   0.37642   0.00000  Uiso   1.00
H866   H     0.99573   0.81913   0.62358   0.00000  Uiso   1.00
H867   H     0.99590   0.81919   0.37734   0.00000  Uiso   1.00
H868   H     0.50410   0.68081   0.62266   0.00000  Uiso   1.00
H869   H     0.75427   0.93087   0.37642   0.00000  Uiso   1.00
H870   H     0.74574   0.56913   0.62358   0.00000  Uiso   1.00
H871   H     0.74590   0.56919   0.37734   0.00000  Uiso   1.00
H872   H     0.75410   0.93081   0.62266   0.00000  Uiso   1.00
N873   N     0.50000   0.75000   0.61736   0.00000  Uiso   1.00
N874   N     0.50000   0.75000   0.38264   0.00000  Uiso   1.00
N875   N     0.75000   0.50000   0.61736   0.00000  Uiso   1.00
N876   N     0.75000   0.50000   0.38264   0.00000  Uiso   1.00
Cu877  Cu    0.50000   0.75000   0.54689   0.00000  Uiso   1.00
Cu878  Cu    0.50000   0.75000   0.45311   0.00000  Uiso   1.00
Cu879  Cu    0.75000   0.50000   0.54689   0.00000  Uiso   1.00
Cu880  Cu    0.75000   0.50000   0.45311   0.00000  Uiso   1.00
C881   C     0.50236   0.71159   0.35789   0.00000  Uiso   1.00
C882   C     0.99764   0.78841   0.64211   0.00000  Uiso   1.00
C883   C     0.99769   0.78842   0.35841   0.00000  Uiso   1.00
C884   C     0.50231   0.71158   0.64159   0.00000  Uiso   1.00
C885   C     0.75236   0.96159   0.35789   0.00000  Uiso   1.00
C886   C     0.74764   0.53841   0.64211   0.00000  Uiso   1.00
C887   C     0.74769   0.53842   0.35841   0.00000  Uiso   1.00
C888   C     0.75231   0.96158   0.64159   0.00000  Uiso   1.00
C889   C     0.89686   0.63402   0.45803   0.00000  Uiso   1.00
C890   C     0.60314   0.86598   0.54197   0.00000  Uiso   1.00
C891   C     0.61820   0.84921   0.45954   0.00000  Uiso   1.00
C892   C     0.88180   0.65079   0.54046   0.00000  Uiso   1.00
C893   C     0.63009   0.66310   0.52758   0.00000  Uiso   1.00
C894   C     0.86991   0.83690   0.47242   0.00000  Uiso   1.00
C895   C     0.91286   0.88125   0.52715   0.00000  Uiso   1.00
C896   C     0.58714   0.61876   0.47284   0.00000  Uiso   1.00
C897   C     0.64686   0.88402   0.45803   0.00000  Uiso   1.00
C898   C     0.85313   0.61599   0.54197   0.00000  Uiso   1.00
C899   C     0.86820   0.59921   0.45954   0.00000  Uiso   1.00
C900   C     0.63180   0.90079   0.54046   0.00000  Uiso   1.00
C901   C     0.88009   0.91310   0.52758   0.00000  Uiso   1.00
C902   C     0.61991   0.58690   0.47242   0.00000  Uiso   1.00
C903   C     0.66286   0.63124   0.52716   0.00000  Uiso   1.00
C904   C     0.83714   0.86875   0.47285   0.00000  Uiso   1.00
C905   C     0.59512   0.84083   0.50103   0.00000  Uiso   1.00
C906   C     0.90487   0.65917   0.49897   0.00000  Uiso   1.00
C907   C     0.90741   0.84318   0.49975   0.00000  Uiso   1.00
C908   C     0.59259   0.65683   0.50024   0.00000  Uiso   1.00
C909   C     0.84512   0.59083   0.50103   0.00000  Uiso   1.00
C910   C     0.65488   0.90917   0.49897   0.00000  Uiso   1.00
C911   C     0.65741   0.59317   0.49976   0.00000  Uiso   1.00
C912   C     0.84259   0.90682   0.50025   0.00000  Uiso   1.00
N913   N     0.91756   0.64335   0.41439   0.00000  Uiso   1.00
O914   O     0.90371   0.67624   0.38946   0.00000  Uiso   1.00
O915   O     0.94367   0.61463   0.39551   0.00000  Uiso   1.00
N916   N     0.58245   0.85664   0.58561   0.00000  Uiso   1.00
O917   O     0.59629   0.82375   0.61054   0.00000  Uiso   1.00
O918   O     0.55634   0.88536   0.60449   0.00000  Uiso   1.00
N919   N     0.61351   0.82194   0.41865   0.00000  Uiso   1.00
O920   O     0.62569   0.78103   0.41989   0.00000  Uiso   1.00
O921   O     0.59885   0.83842   0.37964   0.00000  Uiso   1.00
N922   N     0.88648   0.67807   0.58134   0.00000  Uiso   1.00
O923   O     0.87430   0.71898   0.58009   0.00000  Uiso   1.00
O924   O     0.90113   0.66160   0.62036   0.00000  Uiso   1.00
N925   N     0.63628   0.70326   0.55296   0.00000  Uiso   1.00
O926   O     0.64240   0.73948   0.53031   0.00000  Uiso   1.00
O927   O     0.63022   0.70461   0.59804   0.00000  Uiso   1.00
N928   N     0.86373   0.79674   0.44705   0.00000  Uiso   1.00
O929   O     0.85744   0.76055   0.46970   0.00000  Uiso   1.00
O930   O     0.87001   0.79534   0.40199   0.00000  Uiso   1.00
N931   N     0.95288   0.88903   0.55160   0.00000  Uiso   1.00
O932   O     0.95295   0.89898   0.59602   0.00000  Uiso   1.00
O933   O     0.98935   0.88731   0.52907   0.00000  Uiso   1.00
N934   N     0.54713   0.61098   0.44839   0.00000  Uiso   1.00
O935   O     0.54705   0.60111   0.40395   0.00000  Uiso   1.00
O936   O     0.51066   0.61266   0.47093   0.00000  Uiso   1.00
N937   N     0.66755   0.89336   0.41439   0.00000  Uiso   1.00
O938   O     0.65370   0.92625   0.38946   0.00000  Uiso   1.00
O939   O     0.69366   0.86464   0.39550   0.00000  Uiso   1.00
N940   N     0.83244   0.60665   0.58561   0.00000  Uiso   1.00
O941   O     0.84628   0.57376   0.61054   0.00000  Uiso   1.00
O942   O     0.80633   0.63537   0.60449   0.00000  Uiso   1.00
N943   N     0.86352   0.57193   0.41866   0.00000  Uiso   1.00
O944   O     0.87570   0.53102   0.41990   0.00000  Uiso   1.00
O945   O     0.84887   0.58840   0.37964   0.00000  Uiso   1.00
N946   N     0.63649   0.92806   0.58135   0.00000  Uiso   1.00
O947   O     0.62431   0.96897   0.58011   0.00000  Uiso   1.00
O948   O     0.65114   0.91159   0.62036   0.00000  Uiso   1.00
N949   N     0.88627   0.95327   0.55295   0.00000  Uiso   1.00
O950   O     0.89251   0.98946   0.53030   0.00000  Uiso   1.00
O951   O     0.88008   0.95465   0.59801   0.00000  Uiso   1.00
N952   N     0.61373   0.54674   0.44704   0.00000  Uiso   1.00
O953   O     0.60758   0.51052   0.46969   0.00000  Uiso   1.00
O954   O     0.61982   0.54539   0.40196   0.00000  Uiso   1.00
N955   N     0.70287   0.63902   0.55161   0.00000  Uiso   1.00
O956   O     0.70295   0.64885   0.59606   0.00000  Uiso   1.00
O957   O     0.73934   0.63735   0.52907   0.00000  Uiso   1.00
N958   N     0.79712   0.86097   0.44840   0.00000  Uiso   1.00
O959   O     0.79705   0.85096   0.40399   0.00000  Uiso   1.00
O960   O     0.76064   0.86271   0.47092   0.00000  Uiso   1.00
O961   O     0.04508   0.20491   0.87291   0.00000  Uiso   1.00
O962   O     0.45491   0.29509   0.79375   0.00000  Uiso   1.00
O963   O     0.45491   0.29509   0.87291   0.00000  Uiso   1.00
O964   O     0.04508   0.20491   0.79375   0.00000  Uiso   1.00
O965   O     0.45491   0.20491   0.79375   0.00000  Uiso   1.00
O966   O     0.04508   0.29509   0.87291   0.00000  Uiso   1.00
O967   O     0.04508   0.29509   0.79375   0.00000  Uiso   1.00
O968   O     0.45491   0.20491   0.87291   0.00000  Uiso   1.00
O969   O     0.29508   0.45491   0.87291   0.00000  Uiso   1.00
O970   O     0.20491   0.04509   0.79375   0.00000  Uiso   1.00
O971   O     0.20491   0.04509   0.87291   0.00000  Uiso   1.00
O972   O     0.29508   0.45491   0.79375   0.00000  Uiso   1.00
O973   O     0.20491   0.45491   0.79375   0.00000  Uiso   1.00
O974   O     0.29508   0.04509   0.87291   0.00000  Uiso   1.00
O975   O     0.29508   0.04509   0.79375   0.00000  Uiso   1.00
O976   O     0.20491   0.45491   0.87291   0.00000  Uiso   1.00
C977   C     0.05928   0.19047   0.83337   0.00000  Uiso   1.00
C978   C     0.44072   0.30953   0.83330   0.00000  Uiso   1.00
C979   C     0.43948   0.19159   0.83302   0.00000  Uiso   1.00
C980   C     0.06052   0.30841   0.83365   0.00000  Uiso   1.00
C981   C     0.30928   0.44047   0.83337   0.00000  Uiso   1.00
C982   C     0.19072   0.05953   0.83330   0.00000  Uiso   1.00
C983   C     0.18948   0.44159   0.83302   0.00000  Uiso   1.00
C984   C     0.31052   0.05841   0.83365   0.00000  Uiso   1.00
H985   H     0.00426   0.18087   0.70975   0.00000  Uiso   1.00
H986   H     0.49573   0.31913   0.95691   0.00000  Uiso   1.00
H987   H     0.49590   0.31919   0.71068   0.00000  Uiso   1.00
H988   H     0.00410   0.18081   0.95599   0.00000  Uiso   1.00
H989   H     0.25427   0.43087   0.70975   0.00000  Uiso   1.00
H990   H     0.24574   0.06913   0.95691   0.00000  Uiso   1.00
H991   H     0.24590   0.06919   0.71068   0.00000  Uiso   1.00
H992   H     0.25410   0.43081   0.95599   0.00000  Uiso   1.00
N993   N    -0.00000   0.25000   0.95069   0.00000  Uiso   1.00
N994   N    -0.00000   0.25000   0.71598   0.00000  Uiso   1.00
N995   N     0.25000   0.00000   0.95069   0.00000  Uiso   1.00
N996   N     0.25000   0.00000   0.71598   0.00000  Uiso   1.00
Cu997  Cu    0.00000   0.25000   0.88022   0.00000  Uiso   1.00
Cu998  Cu   -0.00000   0.25000   0.78645   0.00000  Uiso   1.00
Cu999  Cu    0.25000   0.00000   0.88022   0.00000  Uiso   1.00
Cu1000 Cu    0.25000   0.00000   0.78645   0.00000  Uiso   1.00
C1001  C     0.00236   0.21159   0.69122   0.00000  Uiso   1.00
C1002  C     0.49764   0.28841   0.97544   0.00000  Uiso   1.00
C1003  C     0.49769   0.28842   0.69174   0.00000  Uiso   1.00
C1004  C     0.00231   0.21158   0.97492   0.00000  Uiso   1.00
C1005  C     0.25236   0.46159   0.69122   0.00000  Uiso   1.00
C1006  C     0.24764   0.03841   0.97544   0.00000  Uiso   1.00
C1007  C     0.24769   0.03842   0.69174   0.00000  Uiso   1.00
C1008  C     0.25231   0.46158   0.97492   0.00000  Uiso   1.00
C1009  C     0.39686   0.13402   0.79137   0.00000  Uiso   1.00
C1010  C     0.10314   0.36598   0.87530   0.00000  Uiso   1.00
C1011  C     0.11820   0.34921   0.79287   0.00000  Uiso   1.00
C1012  C     0.38180   0.15079   0.87379   0.00000  Uiso   1.00
C1013  C     0.13009   0.16310   0.86091   0.00000  Uiso   1.00
C1014  C     0.36991   0.33690   0.80576   0.00000  Uiso   1.00
C1015  C     0.41286   0.38125   0.86049   0.00000  Uiso   1.00
C1016  C     0.08714   0.11876   0.80617   0.00000  Uiso   1.00
C1017  C     0.14686   0.38402   0.79137   0.00000  Uiso   1.00
C1018  C     0.35313   0.11599   0.87530   0.00000  Uiso   1.00
C1019  C     0.36820   0.09921   0.79287   0.00000  Uiso   1.00
C1020  C     0.13180   0.40079   0.87380   0.00000  Uiso   1.00
C1021  C     0.38009   0.41310   0.86091   0.00000  Uiso   1.00
C1022  C     0.11991   0.08690   0.80575   0.00000  Uiso   1.00
C1023  C     0.16286   0.13124   0.86050   0.00000  Uiso   1.00
C1024  C     0.33714   0.36875   0.80618   0.00000  Uiso   1.00
C1025  C     0.09512   0.34083   0.83436   0.00000  Uiso   1.00
C1026  C     0.40487   0.15917   0.83230   0.00000  Uiso   1.00
C1027  C     0.40741   0.34318   0.83309   0.00000  Uiso   1.00
C1028  C     0.09259   0.15683   0.83358   0.00000  Uiso   1.00
C1029  C     0.34512   0.09083   0.83436   0.00000  Uiso   1.00
C1030  C     0.15488   0.40917   0.83230   0.00000  Uiso   1.00
C1031  C     0.15741   0.09317   0.83309   0.00000  Uiso   1.00
C1032  C     0.34259   0.40682   0.83358   0.00000  Uiso   1.00
N1033  N     0.41756   0.14335   0.74772   0.00000  Uiso   1.00
O1034  O     0.40371   0.17624   0.72280   0.00000  Uiso   1.00
O1035  O     0.44367   0.11463   0.72885   0.00000  Uiso   1.00
N1036  N     0.08245   0.35664   0.91895   0.00000  Uiso   1.00
O1037  O     0.09629   0.32375   0.94387   0.00000  Uiso   1.00
O1038  O     0.05634   0.38536   0.93783   0.00000  Uiso   1.00
N1039  N     0.11351   0.32194   0.75199   0.00000  Uiso   1.00
O1040  O     0.12569   0.28103   0.75322   0.00000  Uiso   1.00
O1041  O     0.09885   0.33842   0.71297   0.00000  Uiso   1.00
N1042  N     0.38648   0.17807   0.91467   0.00000  Uiso   1.00
O1043  O     0.37430   0.21898   0.91343   0.00000  Uiso   1.00
O1044  O     0.40113   0.16160   0.95369   0.00000  Uiso   1.00
N1045  N     0.13628   0.20326   0.88629   0.00000  Uiso   1.00
O1046  O     0.14240   0.23948   0.86364   0.00000  Uiso   1.00
O1047  O     0.13022   0.20461   0.93138   0.00000  Uiso   1.00
N1048  N     0.36373   0.29674   0.78038   0.00000  Uiso   1.00
O1049  O     0.35744   0.26055   0.80303   0.00000  Uiso   1.00
O1050  O     0.37001   0.29534   0.73533   0.00000  Uiso   1.00
N1051  N     0.45288   0.38903   0.88493   0.00000  Uiso   1.00
O1052  O     0.45295   0.39898   0.92936   0.00000  Uiso   1.00
O1053  O     0.48935   0.38731   0.86241   0.00000  Uiso   1.00
N1054  N     0.04713   0.11098   0.78172   0.00000  Uiso   1.00
O1055  O     0.04705   0.10111   0.73728   0.00000  Uiso   1.00
O1056  O     0.01066   0.11266   0.80426   0.00000  Uiso   1.00
N1057  N     0.16755   0.39336   0.74772   0.00000  Uiso   1.00
O1058  O     0.15370   0.42625   0.72280   0.00000  Uiso   1.00
O1059  O     0.19366   0.36464   0.72884   0.00000  Uiso   1.00
N1060  N     0.33244   0.10665   0.91894   0.00000  Uiso   1.00
O1061  O     0.34628   0.07376   0.94387   0.00000  Uiso   1.00
O1062  O     0.30633   0.13537   0.93782   0.00000  Uiso   1.00
N1063  N     0.36352   0.07193   0.75199   0.00000  Uiso   1.00
O1064  O     0.37570   0.03102   0.75324   0.00000  Uiso   1.00
O1065  O     0.34887   0.08840   0.71298   0.00000  Uiso   1.00
N1066  N     0.13649   0.42806   0.91468   0.00000  Uiso   1.00
O1067  O     0.12431   0.46897   0.91344   0.00000  Uiso   1.00
O1068  O     0.15114   0.41159   0.95369   0.00000  Uiso   1.00
N1069  N     0.38627   0.45327   0.88628   0.00000  Uiso   1.00
O1070  O     0.39251   0.48946   0.86363   0.00000  Uiso   1.00
O1071  O     0.38008   0.45465   0.93135   0.00000  Uiso   1.00
N1072  N     0.11373   0.04674   0.78037   0.00000  Uiso   1.00
O1073  O     0.10758   0.01052   0.80302   0.00000  Uiso   1.00
O1074  O     0.11982   0.04539   0.73529   0.00000  Uiso   1.00
N1075  N     0.20287   0.13902   0.88494   0.00000  Uiso   1.00
O1076  O     0.20295   0.14885   0.92939   0.00000  Uiso   1.00
O1077  O     0.23934   0.13735   0.86240   0.00000  Uiso   1.00
N1078  N     0.29712   0.36097   0.78173   0.00000  Uiso   1.00
O1079  O     0.29705   0.35096   0.73732   0.00000  Uiso   1.00
O1080  O     0.26064   0.36271   0.80425   0.00000  Uiso   1.00
O1081  O     0.54508   0.20491   0.87291   0.00000  Uiso   1.00
O1082  O     0.95491   0.29509   0.79375   0.00000  Uiso   1.00
O1083  O     0.95491   0.29509   0.87291   0.00000  Uiso   1.00
O1084  O     0.54508   0.20491   0.79375   0.00000  Uiso   1.00
O1085  O     0.95491   0.20491   0.79375   0.00000  Uiso   1.00
O1086  O     0.54508   0.29509   0.87291   0.00000  Uiso   1.00
O1087  O     0.54508   0.29509   0.79375   0.00000  Uiso   1.00
O1088  O     0.95491   0.20491   0.87291   0.00000  Uiso   1.00
O1089  O     0.79508   0.45491   0.87291   0.00000  Uiso   1.00
O1090  O     0.70491   0.04509   0.79375   0.00000  Uiso   1.00
O1091  O     0.70491   0.04509   0.87291   0.00000  Uiso   1.00
O1092  O     0.79508   0.45491   0.79375   0.00000  Uiso   1.00
O1093  O     0.70491   0.45491   0.79375   0.00000  Uiso   1.00
O1094  O     0.79508   0.04509   0.87291   0.00000  Uiso   1.00
O1095  O     0.79508   0.04509   0.79375   0.00000  Uiso   1.00
O1096  O     0.70491   0.45491   0.87291   0.00000  Uiso   1.00
C1097  C     0.55928   0.19047   0.83337   0.00000  Uiso   1.00
C1098  C     0.94072   0.30953   0.83330   0.00000  Uiso   1.00
C1099  C     0.93948   0.19159   0.83302   0.00000  Uiso   1.00
C1100  C     0.56052   0.30841   0.83365   0.00000  Uiso   1.00
C1101  C     0.80928   0.44047   0.83337   0.00000  Uiso   1.00
C1102  C     0.69072   0.05953   0.83330   0.00000  Uiso   1.00
C1103  C     0.68948   0.44159   0.83302   0.00000  Uiso   1.00
C1104  C     0.81052   0.05841   0.83365   0.00000  Uiso   1.00
H1105  H     0.50426   0.18087   0.70975   0.00000  Uiso   1.00
H1106  H     0.99573   0.31913   0.95691   0.00000  Uiso   1.00
H1107  H     0.99590   0.31919   0.71068   0.00000  Uiso   1.00
H1108  H     0.50410   0.18081   0.95599   0.00000  Uiso   1.00
H1109  H     0.75427   0.43087   0.70975   0.00000  Uiso   1.00
H1110  H     0.74574   0.06913   0.95691   0.00000  Uiso   1.00
H1111  H     0.74590   0.06919   0.71068   0.00000  Uiso   1.00
H1112  H     0.75410   0.43081   0.95599   0.00000  Uiso   1.00
N1113  N     0.50000   0.25000   0.95069   0.00000  Uiso   1.00
N1114  N     0.50000   0.25000   0.71598   0.00000  Uiso   1.00
N1115  N     0.75000   0.00000   0.95069   0.00000  Uiso   1.00
N1116  N     0.75000   0.00000   0.71598   0.00000  Uiso   1.00
Cu1117 Cu    0.50000   0.25000   0.88022   0.00000  Uiso   1.00
Cu1118 Cu    0.50000   0.25000   0.78645   0.00000  Uiso   1.00
Cu1119 Cu    0.75000   0.00000   0.88022   0.00000  Uiso   1.00
Cu1120 Cu    0.75000   0.00000   0.78645   0.00000  Uiso   1.00
C1121  C     0.50236   0.21159   0.69122   0.00000  Uiso   1.00
C1122  C     0.99764   0.28841   0.97544   0.00000  Uiso   1.00
C1123  C     0.99769   0.28842   0.69174   0.00000  Uiso   1.00
C1124  C     0.50231   0.21158   0.97492   0.00000  Uiso   1.00
C1125  C     0.75236   0.46159   0.69122   0.00000  Uiso   1.00
C1126  C     0.74764   0.03841   0.97544   0.00000  Uiso   1.00
C1127  C     0.74769   0.03842   0.69174   0.00000  Uiso   1.00
C1128  C     0.75231   0.46158   0.97492   0.00000  Uiso   1.00
C1129  C     0.89686   0.13402   0.79137   0.00000  Uiso   1.00
C1130  C     0.60314   0.36598   0.87530   0.00000  Uiso   1.00
C1131  C     0.61820   0.34921   0.79287   0.00000  Uiso   1.00
C1132  C     0.88180   0.15079   0.87379   0.00000  Uiso   1.00
C1133  C     0.63009   0.16310   0.86091   0.00000  Uiso   1.00
C1134  C     0.86991   0.33690   0.80576   0.00000  Uiso   1.00
C1135  C     0.91286   0.38125   0.86049   0.00000  Uiso   1.00
C1136  C     0.58714   0.11876   0.80617   0.00000  Uiso   1.00
C1137  C     0.64686   0.38402   0.79137   0.00000  Uiso   1.00
C1138  C     0.85313   0.11599   0.87530   0.00000  Uiso   1.00
C1139  C     0.86820   0.09921   0.79287   0.00000  Uiso   1.00
C1140  C     0.63180   0.40079   0.87380   0.00000  Uiso   1.00
C1141  C     0.88009   0.41310   0.86091   0.00000  Uiso   1.00
C1142  C     0.61991   0.08690   0.80575   0.00000  Uiso   1.00
C1143  C     0.66286   0.13124   0.86050   0.00000  Uiso   1.00
C1144  C     0.83714   0.36875   0.80618   0.00000  Uiso   1.00
C1145  C     0.59512   0.34083   0.83436   0.00000  Uiso   1.00
C1146  C     0.90487   0.15917   0.83230   0.00000  Uiso   1.00
C1147  C     0.90741   0.34318   0.83309   0.00000  Uiso   1.00
C1148  C     0.59259   0.15683   0.83358   0.00000  Uiso   1.00
C1149  C     0.84512   0.09083   0.83436   0.00000  Uiso   1.00
C1150  C     0.65488   0.40917   0.83230   0.00000  Uiso   1.00
C1151  C     0.65741   0.09317   0.83309   0.00000  Uiso   1.00
C1152  C     0.84259   0.40682   0.83358   0.00000  Uiso   1.00
N1153  N     0.91756   0.14335   0.74772   0.00000  Uiso   1.00
O1154  O     0.90371   0.17624   0.72280   0.00000  Uiso   1.00
O1155  O     0.94367   0.11463   0.72885   0.00000  Uiso   1.00
N1156  N     0.58245   0.35664   0.91895   0.00000  Uiso   1.00
O1157  O     0.59629   0.32375   0.94387   0.00000  Uiso   1.00
O1158  O     0.55634   0.38536   0.93783   0.00000  Uiso   1.00
N1159  N     0.61351   0.32194   0.75199   0.00000  Uiso   1.00
O1160  O     0.62569   0.28103   0.75322   0.00000  Uiso   1.00
O1161  O     0.59885   0.33842   0.71297   0.00000  Uiso   1.00
N1162  N     0.88648   0.17807   0.91467   0.00000  Uiso   1.00
O1163  O     0.87430   0.21898   0.91343   0.00000  Uiso   1.00
O1164  O     0.90113   0.16160   0.95369   0.00000  Uiso   1.00
N1165  N     0.63628   0.20326   0.88629   0.00000  Uiso   1.00
O1166  O     0.64240   0.23948   0.86364   0.00000  Uiso   1.00
O1167  O     0.63022   0.20461   0.93138   0.00000  Uiso   1.00
N1168  N     0.86373   0.29674   0.78038   0.00000  Uiso   1.00
O1169  O     0.85744   0.26055   0.80303   0.00000  Uiso   1.00
O1170  O     0.87001   0.29534   0.73533   0.00000  Uiso   1.00
N1171  N     0.95288   0.38903   0.88493   0.00000  Uiso   1.00
O1172  O     0.95295   0.39898   0.92936   0.00000  Uiso   1.00
O1173  O     0.98935   0.38731   0.86241   0.00000  Uiso   1.00
N1174  N     0.54713   0.11098   0.78172   0.00000  Uiso   1.00
O1175  O     0.54705   0.10111   0.73728   0.00000  Uiso   1.00
O1176  O     0.51066   0.11266   0.80426   0.00000  Uiso   1.00
N1177  N     0.66755   0.39336   0.74772   0.00000  Uiso   1.00
O1178  O     0.65370   0.42625   0.72280   0.00000  Uiso   1.00
O1179  O     0.69366   0.36464   0.72884   0.00000  Uiso   1.00
N1180  N     0.83244   0.10665   0.91894   0.00000  Uiso   1.00
O1181  O     0.84628   0.07376   0.94387   0.00000  Uiso   1.00
O1182  O     0.80633   0.13537   0.93782   0.00000  Uiso   1.00
N1183  N     0.86352   0.07193   0.75199   0.00000  Uiso   1.00
O1184  O     0.87570   0.03102   0.75324   0.00000  Uiso   1.00
O1185  O     0.84887   0.08840   0.71298   0.00000  Uiso   1.00
N1186  N     0.63649   0.42806   0.91468   0.00000  Uiso   1.00
O1187  O     0.62431   0.46897   0.91344   0.00000  Uiso   1.00
O1188  O     0.65114   0.41159   0.95369   0.00000  Uiso   1.00
N1189  N     0.88627   0.45327   0.88628   0.00000  Uiso   1.00
O1190  O     0.89251   0.48946   0.86363   0.00000  Uiso   1.00
O1191  O     0.88008   0.45465   0.93135   0.00000  Uiso   1.00
N1192  N     0.61373   0.04674   0.78037   0.00000  Uiso   1.00
O1193  O     0.60758   0.01052   0.80302   0.00000  Uiso   1.00
O1194  O     0.61982   0.04539   0.73529   0.00000  Uiso   1.00
N1195  N     0.70287   0.13902   0.88494   0.00000  Uiso   1.00
O1196  O     0.70295   0.14885   0.92939   0.00000  Uiso   1.00
O1197  O     0.73934   0.13735   0.86240   0.00000  Uiso   1.00
N1198  N     0.79712   0.36097   0.78173   0.00000  Uiso   1.00
O1199  O     0.79705   0.35096   0.73732   0.00000  Uiso   1.00
O1200  O     0.76064   0.36271   0.80425   0.00000  Uiso   1.00
O1201  O     0.04508   0.70491   0.87291   0.00000  Uiso   1.00
O1202  O     0.45491   0.79509   0.79375   0.00000  Uiso   1.00
O1203  O     0.45491   0.79509   0.87291   0.00000  Uiso   1.00
O1204  O     0.04508   0.70491   0.79375   0.00000  Uiso   1.00
O1205  O     0.45491   0.70491   0.79375   0.00000  Uiso   1.00
O1206  O     0.04508   0.79509   0.87291   0.00000  Uiso   1.00
O1207  O     0.04508   0.79509   0.79375   0.00000  Uiso   1.00
O1208  O     0.45491   0.70491   0.87291   0.00000  Uiso   1.00
O1209  O     0.29508   0.95491   0.87291   0.00000  Uiso   1.00
O1210  O     0.20491   0.54509   0.79375   0.00000  Uiso   1.00
O1211  O     0.20491   0.54509   0.87291   0.00000  Uiso   1.00
O1212  O     0.29508   0.95491   0.79375   0.00000  Uiso   1.00
O1213  O     0.20491   0.95491   0.79375   0.00000  Uiso   1.00
O1214  O     0.29508   0.54509   0.87291   0.00000  Uiso   1.00
O1215  O     0.29508   0.54509   0.79375   0.00000  Uiso   1.00
O1216  O     0.20491   0.95491   0.87291   0.00000  Uiso   1.00
C1217  C     0.05928   0.69047   0.83337   0.00000  Uiso   1.00
C1218  C     0.44072   0.80953   0.83330   0.00000  Uiso   1.00
C1219  C     0.43948   0.69159   0.83302   0.00000  Uiso   1.00
C1220  C     0.06052   0.80841   0.83365   0.00000  Uiso   1.00
C1221  C     0.30928   0.94047   0.83337   0.00000  Uiso   1.00
C1222  C     0.19072   0.55953   0.83330   0.00000  Uiso   1.00
C1223  C     0.18948   0.94159   0.83302   0.00000  Uiso   1.00
C1224  C     0.31052   0.55841   0.83365   0.00000  Uiso   1.00
H1225  H     0.00426   0.68087   0.70975   0.00000  Uiso   1.00
H1226  H     0.49573   0.81913   0.95691   0.00000  Uiso   1.00
H1227  H     0.49590   0.81919   0.71068   0.00000  Uiso   1.00
H1228  H     0.00410   0.68081   0.95599   0.00000  Uiso   1.00
H1229  H     0.25427   0.93087   0.70975   0.00000  Uiso   1.00
H1230  H     0.24574   0.56913   0.95691   0.00000  Uiso   1.00
H1231  H     0.24590   0.56919   0.71068   0.00000  Uiso   1.00
H1232  H     0.25410   0.93081   0.95599   0.00000  Uiso   1.00
N1233  N    -0.00000   0.75000   0.95069   0.00000  Uiso   1.00
N1234  N    -0.00000   0.75000   0.71598   0.00000  Uiso   1.00
N1235  N     0.25000   0.50000   0.95069   0.00000  Uiso   1.00
N1236  N     0.25000   0.50000   0.71598   0.00000  Uiso   1.00
Cu1237 Cu    0.00000   0.75000   0.88022   0.00000  Uiso   1.00
Cu1238 Cu   -0.00000   0.75000   0.78645   0.00000  Uiso   1.00
Cu1239 Cu    0.25000   0.50000   0.88022   0.00000  Uiso   1.00
Cu1240 Cu    0.25000   0.50000   0.78645   0.00000  Uiso   1.00
C1241  C     0.00236   0.71159   0.69122   0.00000  Uiso   1.00
C1242  C     0.49764   0.78841   0.97544   0.00000  Uiso   1.00
C1243  C     0.49769   0.78842   0.69174   0.00000  Uiso   1.00
C1244  C     0.00231   0.71158   0.97492   0.00000  Uiso   1.00
C1245  C     0.25236   0.96159   0.69122   0.00000  Uiso   1.00
C1246  C     0.24764   0.53841   0.97544   0.00000  Uiso   1.00
C1247  C     0.24769   0.53842   0.69174   0.00000  Uiso   1.00
C1248  C     0.25231   0.96158   0.97492   0.00000  Uiso   1.00
C1249  C     0.39686   0.63402   0.79137   0.00000  Uiso   1.00
C1250  C     0.10314   0.86598   0.87530   0.00000  Uiso   1.00
C1251  C     0.11820   0.84921   0.79287   0.00000  Uiso   1.00
C1252  C     0.38180   0.65079   0.87379   0.00000  Uiso   1.00
C1253  C     0.13009   0.66310   0.86091   0.00000  Uiso   1.00
C1254  C     0.36991   0.83690   0.80576   0.00000  Uiso   1.00
C1255  C     0.41286   0.88125   0.86049   0.00000  Uiso   1.00
C1256  C     0.08714   0.61876   0.80617   0.00000  Uiso   1.00
C1257  C     0.14686   0.88402   0.79137   0.00000  Uiso   1.00
C1258  C     0.35313   0.61599   0.87530   0.00000  Uiso   1.00
C1259  C     0.36820   0.59921   0.79287   0.00000  Uiso   1.00
C1260  C     0.13180   0.90079   0.87380   0.00000  Uiso   1.00
C1261  C     0.38009   0.91310   0.86091   0.00000  Uiso   1.00
C1262  C     0.11991   0.58690   0.80575   0.00000  Uiso   1.00
C1263  C     0.16286   0.63124   0.86050   0.00000  Uiso   1.00
C1264  C     0.33714   0.86875   0.80618   0.00000  Uiso   1.00
C1265  C     0.09512   0.84083   0.83436   0.00000  Uiso   1.00
C1266  C     0.40487   0.65917   0.83230   0.00000  Uiso   1.00
C1267  C     0.40741   0.84318   0.83309   0.00000  Uiso   1.00
C1268  C     0.09259   0.65683   0.83358   0.00000  Uiso   1.00
C1269  C     0.34512   0.59083   0.83436   0.00000  Uiso   1.00
C1270  C     0.15488   0.90917   0.83230   0.00000  Uiso   1.00
C1271  C     0.15741   0.59317   0.83309   0.00000  Uiso   1.00
C1272  C     0.34259   0.90682   0.83358   0.00000  Uiso   1.00
N1273  N     0.41756   0.64335   0.74772   0.00000  Uiso   1.00
O1274  O     0.40371   0.67624   0.72280   0.00000  Uiso   1.00
O1275  O     0.44367   0.61463   0.72885   0.00000  Uiso   1.00
N1276  N     0.08245   0.85664   0.91895   0.00000  Uiso   1.00
O1277  O     0.09629   0.82375   0.94387   0.00000  Uiso   1.00
O1278  O     0.05634   0.88536   0.93783   0.00000  Uiso   1.00
N1279  N     0.11351   0.82194   0.75199   0.00000  Uiso   1.00
O1280  O     0.12569   0.78103   0.75322   0.00000  Uiso   1.00
O1281  O     0.09885   0.83842   0.71297   0.00000  Uiso   1.00
N1282  N     0.38648   0.67807   0.91467   0.00000  Uiso   1.00
O1283  O     0.37430   0.71898   0.91343   0.00000  Uiso   1.00
O1284  O     0.40113   0.66160   0.95369   0.00000  Uiso   1.00
N1285  N     0.13628   0.70326   0.88629   0.00000  Uiso   1.00
O1286  O     0.14240   0.73948   0.86364   0.00000  Uiso   1.00
O1287  O     0.13022   0.70461   0.93138   0.00000  Uiso   1.00
N1288  N     0.36373   0.79674   0.78038   0.00000  Uiso   1.00
O1289  O     0.35744   0.76055   0.80303   0.00000  Uiso   1.00
O1290  O     0.37001   0.79534   0.73533   0.00000  Uiso   1.00
N1291  N     0.45288   0.88903   0.88493   0.00000  Uiso   1.00
O1292  O     0.45295   0.89898   0.92936   0.00000  Uiso   1.00
O1293  O     0.48935   0.88731   0.86241   0.00000  Uiso   1.00
N1294  N     0.04713   0.61098   0.78172   0.00000  Uiso   1.00
O1295  O     0.04705   0.60111   0.73728   0.00000  Uiso   1.00
O1296  O     0.01066   0.61266   0.80426   0.00000  Uiso   1.00
N1297  N     0.16755   0.89336   0.74772   0.00000  Uiso   1.00
O1298  O     0.15370   0.92625   0.72280   0.00000  Uiso   1.00
O1299  O     0.19366   0.86464   0.72884   0.00000  Uiso   1.00
N1300  N     0.33244   0.60665   0.91894   0.00000  Uiso   1.00
O1301  O     0.34628   0.57376   0.94387   0.00000  Uiso   1.00
O1302  O     0.30633   0.63537   0.93782   0.00000  Uiso   1.00
N1303  N     0.36352   0.57193   0.75199   0.00000  Uiso   1.00
O1304  O     0.37570   0.53102   0.75324   0.00000  Uiso   1.00
O1305  O     0.34887   0.58840   0.71298   0.00000  Uiso   1.00
N1306  N     0.13649   0.92806   0.91468   0.00000  Uiso   1.00
O1307  O     0.12431   0.96897   0.91344   0.00000  Uiso   1.00
O1308  O     0.15114   0.91159   0.95369   0.00000  Uiso   1.00
N1309  N     0.38627   0.95327   0.88628   0.00000  Uiso   1.00
O1310  O     0.39251   0.98946   0.86363   0.00000  Uiso   1.00
O1311  O     0.38008   0.95465   0.93135   0.00000  Uiso   1.00
N1312  N     0.11373   0.54674   0.78037   0.00000  Uiso   1.00
O1313  O     0.10758   0.51052   0.80302   0.00000  Uiso   1.00
O1314  O     0.11982   0.54539   0.73529   0.00000  Uiso   1.00
N1315  N     0.20287   0.63902   0.88494   0.00000  Uiso   1.00
O1316  O     0.20295   0.64885   0.92939   0.00000  Uiso   1.00
O1317  O     0.23934   0.63735   0.86240   0.00000  Uiso   1.00
N1318  N     0.29712   0.86097   0.78173   0.00000  Uiso   1.00
O1319  O     0.29705   0.85096   0.73732   0.00000  Uiso   1.00
O1320  O     0.26064   0.86271   0.80425   0.00000  Uiso   1.00
O1321  O     0.54508   0.70491   0.87291   0.00000  Uiso   1.00
O1322  O     0.95491   0.79509   0.79375   0.00000  Uiso   1.00
O1323  O     0.95491   0.79509   0.87291   0.00000  Uiso   1.00
O1324  O     0.54508   0.70491   0.79375   0.00000  Uiso   1.00
O1325  O     0.95491   0.70491   0.79375   0.00000  Uiso   1.00
O1326  O     0.54508   0.79509   0.87291   0.00000  Uiso   1.00
O1327  O     0.54508   0.79509   0.79375   0.00000  Uiso   1.00
O1328  O     0.95491   0.70491   0.87291   0.00000  Uiso   1.00
O1329  O     0.79508   0.95491   0.87291   0.00000  Uiso   1.00
O1330  O     0.70491   0.54509   0.79375   0.00000  Uiso   1.00
O1331  O     0.70491   0.54509   0.87291   0.00000  Uiso   1.00
O1332  O     0.79508   0.95491   0.79375   0.00000  Uiso   1.00
O1333  O     0.70491   0.95491   0.79375   0.00000  Uiso   1.00
O1334  O     0.79508   0.54509   0.87291   0.00000  Uiso   1.00
O1335  O     0.79508   0.54509   0.79375   0.00000  Uiso   1.00
O1336  O     0.70491   0.95491   0.87291   0.00000  Uiso   1.00
C1337  C     0.55928   0.69047   0.83337   0.00000  Uiso   1.00
C1338  C     0.94072   0.80953   0.83330   0.00000  Uiso   1.00
C1339  C     0.93948   0.69159   0.83302   0.00000  Uiso   1.00
C1340  C     0.56052   0.80841   0.83365   0.00000  Uiso   1.00
C1341  C     0.80928   0.94047   0.83337   0.00000  Uiso   1.00
C1342  C     0.69072   0.55953   0.83330   0.00000  Uiso   1.00
C1343  C     0.68948   0.94159   0.83302   0.00000  Uiso   1.00
C1344  C     0.81052   0.55841   0.83365   0.00000  Uiso   1.00
H1345  H     0.50426   0.68087   0.70975   0.00000  Uiso   1.00
H1346  H     0.99573   0.81913   0.95691   0.00000  Uiso   1.00
H1347  H     0.99590   0.81919   0.71068   0.00000  Uiso   1.00
H1348  H     0.50410   0.68081   0.95599   0.00000  Uiso   1.00
H1349  H     0.75427   0.93087   0.70975   0.00000  Uiso   1.00
H1350  H     0.74574   0.56913   0.95691   0.00000  Uiso   1.00
H1351  H     0.74590   0.56919   0.71068   0.00000  Uiso   1.00
H1352  H     0.75410   0.93081   0.95599   0.00000  Uiso   1.00
N1353  N     0.50000   0.75000   0.95069   0.00000  Uiso   1.00
N1354  N     0.50000   0.75000   0.71598   0.00000  Uiso   1.00
N1355  N     0.75000   0.50000   0.95069   0.00000  Uiso   1.00
N1356  N     0.75000   0.50000   0.71598   0.00000  Uiso   1.00
Cu1357 Cu    0.50000   0.75000   0.88022   0.00000  Uiso   1.00
Cu1358 Cu    0.50000   0.75000   0.78645   0.00000  Uiso   1.00
Cu1359 Cu    0.75000   0.50000   0.88022   0.00000  Uiso   1.00
Cu1360 Cu    0.75000   0.50000   0.78645   0.00000  Uiso   1.00
C1361  C     0.50236   0.71159   0.69122   0.00000  Uiso   1.00
C1362  C     0.99764   0.78841   0.97544   0.00000  Uiso   1.00
C1363  C     0.99769   0.78842   0.69174   0.00000  Uiso   1.00
C1364  C     0.50231   0.71158   0.97492   0.00000  Uiso   1.00
C1365  C     0.75236   0.96159   0.69122   0.00000  Uiso   1.00
C1366  C     0.74764   0.53841   0.97544   0.00000  Uiso   1.00
C1367  C     0.74769   0.53842   0.69174   0.00000  Uiso   1.00
C1368  C     0.75231   0.96158   0.97492   0.00000  Uiso   1.00
C1369  C     0.89686   0.63402   0.79137   0.00000  Uiso   1.00
C1370  C     0.60314   0.86598   0.87530   0.00000  Uiso   1.00
C1371  C     0.61820   0.84921   0.79287   0.00000  Uiso   1.00
C1372  C     0.88180   0.65079   0.87379   0.00000  Uiso   1.00
C1373  C     0.63009   0.66310   0.86091   0.00000  Uiso   1.00
C1374  C     0.86991   0.83690   0.80576   0.00000  Uiso   1.00
C1375  C     0.91286   0.88125   0.86049   0.00000  Uiso   1.00
C1376  C     0.58714   0.61876   0.80617   0.00000  Uiso   1.00
C1377  C     0.64686   0.88402   0.79137   0.00000  Uiso   1.00
C1378  C     0.85313   0.61599   0.87530   0.00000  Uiso   1.00
C1379  C     0.86820   0.59921   0.79287   0.00000  Uiso   1.00
C1380  C     0.63180   0.90079   0.87380   0.00000  Uiso   1.00
C1381  C     0.88009   0.91310   0.86091   0.00000  Uiso   1.00
C1382  C     0.61991   0.58690   0.80575   0.00000  Uiso   1.00
C1383  C     0.66286   0.63124   0.86050   0.00000  Uiso   1.00
C1384  C     0.83714   0.86875   0.80618   0.00000  Uiso   1.00
C1385  C     0.59512   0.84083   0.83436   0.00000  Uiso   1.00
C1386  C     0.90487   0.65917   0.83230   0.00000  Uiso   1.00
C1387  C     0.90741   0.84318   0.83309   0.00000  Uiso   1.00
C1388  C     0.59259   0.65683   0.83358   0.00000  Uiso   1.00
C1389  C     0.84512   0.59083   0.83436   0.00000  Uiso   1.00
C1390  C     0.65488   0.90917   0.83230   0.00000  Uiso   1.00
C1391  C     0.65741   0.59317   0.83309   0.00000  Uiso   1.00
C1392  C     0.84259   0.90682   0.83358   0.00000  Uiso   1.00
N1393  N     0.91756   0.64335   0.74772   0.00000  Uiso   1.00
O1394  O     0.90371   0.67624   0.72280   0.00000  Uiso   1.00
O1395  O     0.94367   0.61463   0.72885   0.00000  Uiso   1.00
N1396  N     0.58245   0.85664   0.91895   0.00000  Uiso   1.00
O1397  O     0.59629   0.82375   0.94387   0.00000  Uiso   1.00
O1398  O     0.55634   0.88536   0.93783   0.00000  Uiso   1.00
N1399  N     0.61351   0.82194   0.75199   0.00000  Uiso   1.00
O1400  O     0.62569   0.78103   0.75322   0.00000  Uiso   1.00
O1401  O     0.59885   0.83842   0.71297   0.00000  Uiso   1.00
N1402  N     0.88648   0.67807   0.91467   0.00000  Uiso   1.00
O1403  O     0.87430   0.71898   0.91343   0.00000  Uiso   1.00
O1404  O     0.90113   0.66160   0.95369   0.00000  Uiso   1.00
N1405  N     0.63628   0.70326   0.88629   0.00000  Uiso   1.00
O1406  O     0.64240   0.73948   0.86364   0.00000  Uiso   1.00
O1407  O     0.63022   0.70461   0.93138   0.00000  Uiso   1.00
N1408  N     0.86373   0.79674   0.78038   0.00000  Uiso   1.00
O1409  O     0.85744   0.76055   0.80303   0.00000  Uiso   1.00
O1410  O     0.87001   0.79534   0.73533   0.00000  Uiso   1.00
N1411  N     0.95288   0.88903   0.88493   0.00000  Uiso   1.00
O1412  O     0.95295   0.89898   0.92936   0.00000  Uiso   1.00
O1413  O     0.98935   0.88731   0.86241   0.00000  Uiso   1.00
N1414  N     0.54713   0.61098   0.78172   0.00000  Uiso   1.00
O1415  O     0.54705   0.60111   0.73728   0.00000  Uiso   1.00
O1416  O     0.51066   0.61266   0.80426   0.00000  Uiso   1.00
N1417  N     0.66755   0.89336   0.74772   0.00000  Uiso   1.00
O1418  O     0.65370   0.92625   0.72280   0.00000  Uiso   1.00
O1419  O     0.69366   0.86464   0.72884   0.00000  Uiso   1.00
N1420  N     0.83244   0.60665   0.91894   0.00000  Uiso   1.00
O1421  O     0.84628   0.57376   0.94387   0.00000  Uiso   1.00
O1422  O     0.80633   0.63537   0.93782   0.00000  Uiso   1.00
N1423  N     0.86352   0.57193   0.75199   0.00000  Uiso   1.00
O1424  O     0.87570   0.53102   0.75324   0.00000  Uiso   1.00
O1425  O     0.84887   0.58840   0.71298   0.00000  Uiso   1.00
N1426  N     0.63649   0.92806   0.91468   0.00000  Uiso   1.00
O1427  O     0.62431   0.96897   0.91344   0.00000  Uiso   1.00
O1428  O     0.65114   0.91159   0.95369   0.00000  Uiso   1.00
N1429  N     0.88627   0.95327   0.88628   0.00000  Uiso   1.00
O1430  O     0.89251   0.98946   0.86363   0.00000  Uiso   1.00
O1431  O     0.88008   0.95465   0.93135   0.00000  Uiso   1.00
N1432  N     0.61373   0.54674   0.78037   0.00000  Uiso   1.00
O1433  O     0.60758   0.51052   0.80302   0.00000  Uiso   1.00
O1434  O     0.61982   0.54539   0.73529   0.00000  Uiso   1.00
N1435  N     0.70287   0.63902   0.88494   0.00000  Uiso   1.00
O1436  O     0.70295   0.64885   0.92939   0.00000  Uiso   1.00
O1437  O     0.73934   0.63735   0.86240   0.00000  Uiso   1.00
N1438  N     0.79712   0.86097   0.78173   0.00000  Uiso   1.00
O1439  O     0.79705   0.85096   0.73732   0.00000  Uiso   1.00
O1440  O     0.76064   0.86271   0.80425   0.00000  Uiso   1.00
loop_
_geom_bond_atom_site_label_1
_geom_bond_atom_site_label_2
_geom_bond_distance
_geom_bond_site_symmetry_2
_ccdc_geom_bond_type
O1     Cu37    1.958   .     S
O1     C17     1.286   .     A
O2     C18     1.286   .     A
O2     Cu158   1.958   .     S
O3     C18     1.288   .     A
O3     Cu157   1.958   .     S
O4     C17     1.288   .     A
O4     Cu38    1.958   .     S
O5     Cu158   1.983   .     S
O5     C19     1.290   .     A
O6     Cu37    1.983   .     S
O6     C20     1.290   .     A
O7     C20     1.296   .     A
O7     Cu38    1.979   .     S
O8     C19     1.296   .     A
O8     Cu157   1.979   .     S
O9     Cu279   1.958   .     S
O9     C21     1.286   .     A
O10    C22     1.286   .     A
O10    Cu40    1.958   .     S
O11    C22     1.288   .     A
O11    Cu39    1.958   .     S
O12    C21     1.288   .     A
O12    Cu280   1.958   .     S
O13    C23     1.290   .     A
O13    Cu280   1.983   .     S
O14    C24     1.290   .     A
O14    Cu39    1.983   .     S
O15    C24     1.296   .     A
O15    Cu40    1.979   .     S
O16    C23     1.296   .     A
O16    Cu279   1.979   .     S
C17    C68     1.446   .     S
C18    C67     1.446   .     S
C19    C66     1.465   .     S
C20    C65     1.465   .     S
C21    C72     1.446   .     S
C22    C71     1.446   .     S
C23    C70     1.465   .     S
C24    C69     1.465   .     S
H25    C41     1.081   .     S
H26    C42     1.081   .     S
H27    C43     1.082   .     S
H28    C44     1.082   .     S
H29    C45     1.081   .     S
H30    C46     1.081   .     S
H31    C47     1.082   .     S
H32    C48     1.082   .     S
N33    C162    1.366   1_455 A
N33    Cu37    2.010   .     S
N33    C44     1.367   .     S
N34    Cu38    2.010   .     S
N34    C163    1.367   1_455 A
N34    C41     1.366   .     S
N35    C288    1.367   1_545 A
N35    Cu39    2.010   .     S
N35    C46     1.366   .     S
N36    C47     1.367   .     A
N36    Cu40    2.010   .     S
N36    C285    1.366   1_545 S
Cu37   O128    1.979   1_455 S
Cu37   O123    1.958   1_455 S
Cu37   Cu38    2.674   .     S
Cu38   O125    1.983   1_455 S
Cu38   O122    1.958   1_455 S
Cu39   O249    1.958   1_545 S
Cu39   Cu40    2.674   .     S
Cu39   O256    1.979   1_545 S
Cu40   O253    1.983   1_545 S
Cu40   O252    1.958   1_545 S
C41    C1004   1.416   1_554 S
C42    N153    1.366   .     A
C42    C523    1.416   .     S
C43    N154    1.367   .     A
C43    C1002   1.416   1_554 S
C44    C521    1.416   .     S
C45    N276    1.366   .     S
C45    C1008   1.416   1_554 S
C46    C527    1.416   .     S
C47    C1006   1.416   1_554 S
C48    N275    1.367   .     A
C48    C525    1.416   .     S
C49    C66     1.415   .     A
C49    C59     1.392   .     A
C49    N73     1.435   .     S
C50    N76     1.435   .     S
C50    C60     1.392   .     A
C50    C65     1.415   .     A
C51    C65     1.412   .     A
C51    C57     1.392   .     A
C51    N79     1.436   .     S
C52    N82     1.436   .     S
C52    C58     1.392   .     A
C52    C66     1.412   .     A
C53    C68     1.407   .     A
C53    C63     1.396   .     A
C53    N85     1.434   .     S
C54    C67     1.407   .     A
C54    N88     1.434   .     S
C54    C64     1.396   .     A
C55    N91     1.437   .     S
C55    C67     1.408   .     A
C55    C61     1.396   .     A
C56    N94     1.437   .     S
C56    C68     1.408   .     A
C56    C62     1.396   .     A
C57    C70     1.415   .     A
C57    N97     1.435   .     S
C58    N100    1.435   .     S
C58    C69     1.415   .     A
C59    C69     1.412   .     A
C59    N103    1.436   .     S
C60    N106    1.436   .     S
C60    C70     1.412   .     A
C61    N109    1.434   .     S
C61    C72     1.407   .     A
C62    C71     1.407   .     A
C62    N112    1.434   .     S
C63    N115    1.437   .     S
C63    C71     1.408   .     A
C64    N118    1.437   .     S
C64    C72     1.408   .     A
N73    O75     1.301   .     A
N73    O74     1.301   .     A
N76    O78     1.301   .     A
N76    O77     1.301   .     A
N79    O81     1.301   .     A
N79    O80     1.301   .     A
N82    O84     1.301   .     A
N82    O83     1.301   .     A
N85    O86     1.301   .     A
N85    O87     1.301   .     A
N88    O90     1.301   .     A
N88    O89     1.301   .     A
N91    O92     1.301   .     A
N91    O93     1.301   .     A
N94    O96     1.301   .     A
N94    O95     1.301   .     A
N97    O98     1.301   .     A
N97    O99     1.301   .     A
N100   O102    1.301   .     A
N100   O101    1.301   .     A
N103   O105    1.301   .     A
N103   O104    1.301   .     A
N106   O108    1.301   .     A
N106   O107    1.301   .     A
N109   O111    1.301   .     A
N109   O110    1.301   .     A
N112   O114    1.301   .     A
N112   O113    1.301   .     A
N115   O116    1.301   .     A
N115   O117    1.301   .     A
N118   O119    1.301   .     A
N118   O120    1.301   .     A
O121   Cu157   1.958   .     S
O121   C137    1.286   .     A
O122   C138    1.286   .     A
O122   Cu38    1.958   1_655 S
O123   C138    1.288   .     A
O123   Cu37    1.958   1_655 S
O124   C137    1.288   .     A
O124   Cu158   1.958   .     S
O125   Cu38    1.983   1_655 S
O125   C139    1.290   .     A
O126   Cu157   1.983   .     S
O126   C140    1.290   .     A
O127   C140    1.296   .     A
O127   Cu158   1.979   .     S
O128   C139    1.296   .     A
O128   Cu37    1.979   1_655 S
O129   Cu399   1.958   .     S
O129   C141    1.286   .     A
O130   C142    1.286   .     A
O130   Cu160   1.958   .     S
O131   C142    1.288   .     A
O131   Cu159   1.958   .     S
O132   C141    1.288   .     A
O132   Cu400   1.958   .     S
O133   C143    1.290   .     A
O133   Cu400   1.983   .     S
O134   C144    1.290   .     A
O134   Cu159   1.983   .     S
O135   C144    1.296   .     A
O135   Cu160   1.979   .     S
O136   C143    1.296   .     A
O136   Cu399   1.979   .     S
C137   C188    1.446   .     S
C138   C187    1.446   .     S
C139   C186    1.465   .     S
C140   C185    1.465   .     S
C141   C192    1.446   .     S
C142   C191    1.446   .     S
C143   C190    1.465   .     S
C144   C189    1.465   .     S
H145   C161    1.081   .     S
H146   C162    1.081   .     S
H147   C163    1.082   .     S
H148   C164    1.082   .     S
H149   C165    1.081   .     S
H150   C166    1.081   .     S
H151   C167    1.082   .     S
H152   C168    1.082   .     S
N153   Cu157   2.010   .     S
N153   C164    1.367   .     S
N154   Cu158   2.010   .     S
N154   C161    1.366   .     S
N155   C408    1.367   1_545 A
N155   Cu159   2.010   .     S
N155   C166    1.366   .     S
N156   C167    1.367   .     A
N156   Cu160   2.010   .     S
N156   C405    1.366   1_545 S
Cu157  Cu158   2.674   .     S
Cu159  O369    1.958   1_545 S
Cu159  Cu160   2.674   .     S
Cu159  O376    1.979   1_545 S
Cu160  O373    1.983   1_545 S
Cu160  O372    1.958   1_545 S
C161   C1124   1.416   1_554 S
C162   N33     1.366   1_655 A
C162   C643    1.416   .     S
C163   N34     1.367   1_655 A
C163   C1122   1.416   1_554 S
C164   C641    1.416   .     S
C165   N396    1.366   .     S
C165   C1128   1.416   1_554 S
C166   C647    1.416   .     S
C167   C1126   1.416   1_554 S
C168   N395    1.367   .     A
C168   C645    1.416   .     S
C169   C186    1.415   .     A
C169   C179    1.392   .     A
C169   N193    1.435   .     S
C170   N196    1.435   .     S
C170   C180    1.392   .     A
C170   C185    1.415   .     A
C171   C185    1.412   .     A
C171   C177    1.392   .     A
C171   N199    1.436   .     S
C172   N202    1.436   .     S
C172   C178    1.392   .     A
C172   C186    1.412   .     A
C173   C188    1.407   .     A
C173   C183    1.396   .     A
C173   N205    1.434   .     S
C174   C187    1.407   .     A
C174   N208    1.434   .     S
C174   C184    1.396   .     A
C175   N211    1.437   .     S
C175   C187    1.408   .     A
C175   C181    1.396   .     A
C176   N214    1.437   .     S
C176   C188    1.408   .     A
C176   C182    1.396   .     A
C177   C190    1.415   .     A
C177   N217    1.435   .     S
C178   N220    1.435   .     S
C178   C189    1.415   .     A
C179   C189    1.412   .     A
C179   N223    1.436   .     S
C180   N226    1.436   .     S
C180   C190    1.412   .     A
C181   N229    1.434   .     S
C181   C192    1.407   .     A
C182   C191    1.407   .     A
C182   N232    1.434   .     S
C183   N235    1.437   .     S
C183   C191    1.408   .     A
C184   N238    1.437   .     S
C184   C192    1.408   .     A
N193   O195    1.301   .     A
N193   O194    1.301   .     A
N196   O198    1.301   .     A
N196   O197    1.301   .     A
N199   O201    1.301   .     A
N199   O200    1.301   .     A
N202   O204    1.301   .     A
N202   O203    1.301   .     A
N205   O206    1.301   .     A
N205   O207    1.301   .     A
N208   O210    1.301   .     A
N208   O209    1.301   .     A
N211   O212    1.301   .     A
N211   O213    1.301   .     A
N214   O216    1.301   .     A
N214   O215    1.301   .     A
N217   O218    1.301   .     A
N217   O219    1.301   .     A
N220   O222    1.301   .     A
N220   O221    1.301   .     A
N223   O225    1.301   .     A
N223   O224    1.301   .     A
N226   O228    1.301   .     A
N226   O227    1.301   .     A
N229   O231    1.301   .     A
N229   O230    1.301   .     A
N232   O234    1.301   .     A
N232   O233    1.301   .     A
N235   O236    1.301   .     A
N235   O237    1.301   .     A
N238   O239    1.301   .     A
N238   O240    1.301   .     A
O241   Cu277   1.958   .     S
O241   C257    1.286   .     A
O242   C258    1.286   .     A
O242   Cu398   1.958   .     S
O243   C258    1.288   .     A
O243   Cu397   1.958   .     S
O244   C257    1.288   .     A
O244   Cu278   1.958   .     S
O245   Cu398   1.983   .     S
O245   C259    1.290   .     A
O246   Cu277   1.983   .     S
O246   C260    1.290   .     A
O247   C260    1.296   .     A
O247   Cu278   1.979   .     S
O248   C259    1.296   .     A
O248   Cu397   1.979   .     S
O249   Cu39    1.958   1_565 S
O249   C261    1.286   .     A
O250   C262    1.286   .     A
O250   Cu280   1.958   .     S
O251   C262    1.288   .     A
O251   Cu279   1.958   .     S
O252   C261    1.288   .     A
O252   Cu40    1.958   1_565 S
O253   C263    1.290   .     A
O253   Cu40    1.983   1_565 S
O254   C264    1.290   .     A
O254   Cu279   1.983   .     S
O255   C264    1.296   .     A
O255   Cu280   1.979   .     S
O256   C263    1.296   .     A
O256   Cu39    1.979   1_565 S
C257   C308    1.446   .     S
C258   C307    1.446   .     S
C259   C306    1.465   .     S
C260   C305    1.465   .     S
C261   C312    1.446   .     S
C262   C311    1.446   .     S
C263   C310    1.465   .     S
C264   C309    1.465   .     S
H265   C281    1.081   .     S
H266   C282    1.081   .     S
H267   C283    1.082   .     S
H268   C284    1.082   .     S
H269   C285    1.081   .     S
H270   C286    1.081   .     S
H271   C287    1.082   .     S
H272   C288    1.082   .     S
N273   C402    1.366   1_455 A
N273   Cu277   2.010   .     S
N273   C284    1.367   .     S
N274   Cu278   2.010   .     S
N274   C403    1.367   1_455 A
N274   C281    1.366   .     S
N275   Cu279   2.010   .     S
N275   C286    1.366   .     S
N276   C287    1.367   .     A
N276   Cu280   2.010   .     S
Cu277  O368    1.979   1_455 S
Cu277  O363    1.958   1_455 S
Cu277  Cu278   2.674   .     S
Cu278  O365    1.983   1_455 S
Cu278  O362    1.958   1_455 S
Cu279  Cu280   2.674   .     S
C281   C1244   1.416   1_554 S
C282   N393    1.366   .     A
C282   C763    1.416   .     S
C283   N394    1.367   .     A
C283   C1242   1.416   1_554 S
C284   C761    1.416   .     S
C285   N36     1.366   1_565 S
C285   C1248   1.416   1_554 S
C286   C767    1.416   .     S
C287   C1246   1.416   1_554 S
C288   N35     1.367   1_565 A
C288   C765    1.416   .     S
C289   C306    1.415   .     A
C289   C299    1.392   .     A
C289   N313    1.435   .     S
C290   N316    1.435   .     S
C290   C300    1.392   .     A
C290   C305    1.415   .     A
C291   C305    1.412   .     A
C291   C297    1.392   .     A
C291   N319    1.436   .     S
C292   N322    1.436   .     S
C292   C298    1.392   .     A
C292   C306    1.412   .     A
C293   C308    1.407   .     A
C293   C303    1.396   .     A
C293   N325    1.434   .     S
C294   C307    1.407   .     A
C294   N328    1.434   .     S
C294   C304    1.396   .     A
C295   N331    1.437   .     S
C295   C307    1.408   .     A
C295   C301    1.396   .     A
C296   N334    1.437   .     S
C296   C308    1.408   .     A
C296   C302    1.396   .     A
C297   C310    1.415   .     A
C297   N337    1.435   .     S
C298   N340    1.435   .     S
C298   C309    1.415   .     A
C299   C309    1.412   .     A
C299   N343    1.436   .     S
C300   N346    1.436   .     S
C300   C310    1.412   .     A
C301   N349    1.434   .     S
C301   C312    1.407   .     A
C302   C311    1.407   .     A
C302   N352    1.434   .     S
C303   N355    1.437   .     S
C303   C311    1.408   .     A
C304   N358    1.437   .     S
C304   C312    1.408   .     A
N313   O315    1.301   .     A
N313   O314    1.301   .     A
N316   O318    1.301   .     A
N316   O317    1.301   .     A
N319   O321    1.301   .     A
N319   O320    1.301   .     A
N322   O324    1.301   .     A
N322   O323    1.301   .     A
N325   O326    1.301   .     A
N325   O327    1.301   .     A
N328   O330    1.301   .     A
N328   O329    1.301   .     A
N331   O332    1.301   .     A
N331   O333    1.301   .     A
N334   O336    1.301   .     A
N334   O335    1.301   .     A
N337   O338    1.301   .     A
N337   O339    1.301   .     A
N340   O342    1.301   .     A
N340   O341    1.301   .     A
N343   O345    1.301   .     A
N343   O344    1.301   .     A
N346   O348    1.301   .     A
N346   O347    1.301   .     A
N349   O351    1.301   .     A
N349   O350    1.301   .     A
N352   O354    1.301   .     A
N352   O353    1.301   .     A
N355   O356    1.301   .     A
N355   O357    1.301   .     A
N358   O359    1.301   .     A
N358   O360    1.301   .     A
O361   Cu397   1.958   .     S
O361   C377    1.286   .     A
O362   C378    1.286   .     A
O362   Cu278   1.958   1_655 S
O363   C378    1.288   .     A
O363   Cu277   1.958   1_655 S
O364   C377    1.288   .     A
O364   Cu398   1.958   .     S
O365   Cu278   1.983   1_655 S
O365   C379    1.290   .     A
O366   Cu397   1.983   .     S
O366   C380    1.290   .     A
O367   C380    1.296   .     A
O367   Cu398   1.979   .     S
O368   C379    1.296   .     A
O368   Cu277   1.979   1_655 S
O369   Cu159   1.958   1_565 S
O369   C381    1.286   .     A
O370   C382    1.286   .     A
O370   Cu400   1.958   .     S
O371   C382    1.288   .     A
O371   Cu399   1.958   .     S
O372   C381    1.288   .     A
O372   Cu160   1.958   1_565 S
O373   C383    1.290   .     A
O373   Cu160   1.983   1_565 S
O374   C384    1.290   .     A
O374   Cu399   1.983   .     S
O375   C384    1.296   .     A
O375   Cu400   1.979   .     S
O376   C383    1.296   .     A
O376   Cu159   1.979   1_565 S
C377   C428    1.446   .     S
C378   C427    1.446   .     S
C379   C426    1.465   .     S
C380   C425    1.465   .     S
C381   C432    1.446   .     S
C382   C431    1.446   .     S
C383   C430    1.465   .     S
C384   C429    1.465   .     S
H385   C401    1.081   .     S
H386   C402    1.081   .     S
H387   C403    1.082   .     S
H388   C404    1.082   .     S
H389   C405    1.081   .     S
H390   C406    1.081   .     S
H391   C407    1.082   .     S
H392   C408    1.082   .     S
N393   Cu397   2.010   .     S
N393   C404    1.367   .     S
N394   Cu398   2.010   .     S
N394   C401    1.366   .     S
N395   Cu399   2.010   .     S
N395   C406    1.366   .     S
N396   C407    1.367   .     A
N396   Cu400   2.010   .     S
Cu397  Cu398   2.674   .     S
Cu399  Cu400   2.674   .     S
C401   C1364   1.416   1_554 S
C402   N273    1.366   1_655 A
C402   C883    1.416   .     S
C403   N274    1.367   1_655 A
C403   C1362   1.416   1_554 S
C404   C881    1.416   .     S
C405   N156    1.366   1_565 S
C405   C1368   1.416   1_554 S
C406   C887    1.416   .     S
C407   C1366   1.416   1_554 S
C408   N155    1.367   1_565 A
C408   C885    1.416   .     S
C409   C426    1.415   .     A
C409   C419    1.392   .     A
C409   N433    1.435   .     S
C410   N436    1.435   .     S
C410   C420    1.392   .     A
C410   C425    1.415   .     A
C411   C425    1.412   .     A
C411   C417    1.392   .     A
C411   N439    1.436   .     S
C412   N442    1.436   .     S
C412   C418    1.392   .     A
C412   C426    1.412   .     A
C413   C428    1.407   .     A
C413   C423    1.396   .     A
C413   N445    1.434   .     S
C414   C427    1.407   .     A
C414   N448    1.434   .     S
C414   C424    1.396   .     A
C415   N451    1.437   .     S
C415   C427    1.408   .     A
C415   C421    1.396   .     A
C416   N454    1.437   .     S
C416   C428    1.408   .     A
C416   C422    1.396   .     A
C417   C430    1.415   .     A
C417   N457    1.435   .     S
C418   N460    1.435   .     S
C418   C429    1.415   .     A
C419   C429    1.412   .     A
C419   N463    1.436   .     S
C420   N466    1.436   .     S
C420   C430    1.412   .     A
C421   N469    1.434   .     S
C421   C432    1.407   .     A
C422   C431    1.407   .     A
C422   N472    1.434   .     S
C423   N475    1.437   .     S
C423   C431    1.408   .     A
C424   N478    1.437   .     S
C424   C432    1.408   .     A
N433   O435    1.301   .     A
N433   O434    1.301   .     A
N436   O438    1.301   .     A
N436   O437    1.301   .     A
N439   O441    1.301   .     A
N439   O440    1.301   .     A
N442   O444    1.301   .     A
N442   O443    1.301   .     A
N445   O446    1.301   .     A
N445   O447    1.301   .     A
N448   O450    1.301   .     A
N448   O449    1.301   .     A
N451   O452    1.301   .     A
N451   O453    1.301   .     A
N454   O456    1.301   .     A
N454   O455    1.301   .     A
N457   O458    1.301   .     A
N457   O459    1.301   .     A
N460   O462    1.301   .     A
N460   O461    1.301   .     A
N463   O465    1.301   .     A
N463   O464    1.301   .     A
N466   O468    1.301   .     A
N466   O467    1.301   .     A
N469   O471    1.301   .     A
N469   O470    1.301   .     A
N472   O474    1.301   .     A
N472   O473    1.301   .     A
N475   O476    1.301   .     A
N475   O477    1.301   .     A
N478   O479    1.301   .     A
N478   O480    1.301   .     A
O481   Cu517   1.958   .     S
O481   C497    1.286   .     A
O482   C498    1.286   .     A
O482   Cu638   1.958   .     S
O483   C498    1.288   .     A
O483   Cu637   1.958   .     S
O484   C497    1.288   .     A
O484   Cu518   1.958   .     S
O485   Cu638   1.983   .     S
O485   C499    1.290   .     A
O486   Cu517   1.983   .     S
O486   C500    1.290   .     A
O487   C500    1.296   .     A
O487   Cu518   1.979   .     S
O488   C499    1.296   .     A
O488   Cu637   1.979   .     S
O489   Cu759   1.958   .     S
O489   C501    1.286   .     A
O490   C502    1.286   .     A
O490   Cu520   1.958   .     S
O491   C502    1.288   .     A
O491   Cu519   1.958   .     S
O492   C501    1.288   .     A
O492   Cu760   1.958   .     S
O493   C503    1.290   .     A
O493   Cu760   1.983   .     S
O494   C504    1.290   .     A
O494   Cu519   1.983   .     S
O495   C504    1.296   .     A
O495   Cu520   1.979   .     S
O496   C503    1.296   .     A
O496   Cu759   1.979   .     S
C497   C548    1.446   .     S
C498   C547    1.446   .     S
C499   C546    1.465   .     S
C500   C545    1.465   .     S
C501   C552    1.446   .     S
C502   C551    1.446   .     S
C503   C550    1.465   .     S
C504   C549    1.465   .     S
H505   C521    1.081   .     S
H506   C522    1.081   .     S
H507   C523    1.082   .     S
H508   C524    1.082   .     S
H509   C525    1.081   .     S
H510   C526    1.081   .     S
H511   C527    1.082   .     S
H512   C528    1.082   .     S
N513   C642    1.366   1_455 A
N513   Cu517   2.010   .     S
N513   C524    1.367   .     S
N514   Cu518   2.010   .     S
N514   C643    1.367   1_455 A
N514   C521    1.366   .     S
N515   C768    1.367   1_545 A
N515   Cu519   2.010   .     S
N515   C526    1.366   .     S
N516   C527    1.367   .     A
N516   Cu520   2.010   .     S
N516   C765    1.366   1_545 S
Cu517  O608    1.979   1_455 S
Cu517  O603    1.958   1_455 S
Cu517  Cu518   2.674   .     S
Cu518  O605    1.983   1_455 S
Cu518  O602    1.958   1_455 S
Cu519  O729    1.958   1_545 S
Cu519  Cu520   2.674   .     S
Cu519  O736    1.979   1_545 S
Cu520  O733    1.983   1_545 S
Cu520  O732    1.958   1_545 S
C522   N633    1.366   .     A
C522   C1003   1.416   .     S
C523   N634    1.367   .     A
C524   C1001   1.416   .     S
C525   N756    1.366   .     S
C526   C1007   1.416   .     S
C528   N755    1.367   .     A
C528   C1005   1.416   .     S
C529   C546    1.415   .     A
C529   C539    1.392   .     A
C529   N553    1.435   .     S
C530   N556    1.435   .     S
C530   C540    1.392   .     A
C530   C545    1.415   .     A
C531   C545    1.412   .     A
C531   C537    1.392   .     A
C531   N559    1.436   .     S
C532   N562    1.436   .     S
C532   C538    1.392   .     A
C532   C546    1.412   .     A
C533   C548    1.407   .     A
C533   C543    1.396   .     A
C533   N565    1.434   .     S
C534   C547    1.407   .     A
C534   N568    1.434   .     S
C534   C544    1.396   .     A
C535   N571    1.437   .     S
C535   C547    1.408   .     A
C535   C541    1.396   .     A
C536   N574    1.437   .     S
C536   C548    1.408   .     A
C536   C542    1.396   .     A
C537   C550    1.415   .     A
C537   N577    1.435   .     S
C538   N580    1.435   .     S
C538   C549    1.415   .     A
C539   C549    1.412   .     A
C539   N583    1.436   .     S
C540   N586    1.436   .     S
C540   C550    1.412   .     A
C541   N589    1.434   .     S
C541   C552    1.407   .     A
C542   C551    1.407   .     A
C542   N592    1.434   .     S
C543   N595    1.437   .     S
C543   C551    1.408   .     A
C544   N598    1.437   .     S
C544   C552    1.408   .     A
N553   O555    1.301   .     A
N553   O554    1.301   .     A
N556   O558    1.301   .     A
N556   O557    1.301   .     A
N559   O561    1.301   .     A
N559   O560    1.301   .     A
N562   O564    1.301   .     A
N562   O563    1.301   .     A
N565   O566    1.301   .     A
N565   O567    1.301   .     A
N568   O570    1.301   .     A
N568   O569    1.301   .     A
N571   O572    1.301   .     A
N571   O573    1.301   .     A
N574   O576    1.301   .     A
N574   O575    1.301   .     A
N577   O578    1.301   .     A
N577   O579    1.301   .     A
N580   O582    1.301   .     A
N580   O581    1.301   .     A
N583   O585    1.301   .     A
N583   O584    1.301   .     A
N586   O588    1.301   .     A
N586   O587    1.301   .     A
N589   O591    1.301   .     A
N589   O590    1.301   .     A
N592   O594    1.301   .     A
N592   O593    1.301   .     A
N595   O596    1.301   .     A
N595   O597    1.301   .     A
N598   O599    1.301   .     A
N598   O600    1.301   .     A
O601   Cu637   1.958   .     S
O601   C617    1.286   .     A
O602   C618    1.286   .     A
O602   Cu518   1.958   1_655 S
O603   C618    1.288   .     A
O603   Cu517   1.958   1_655 S
O604   C617    1.288   .     A
O604   Cu638   1.958   .     S
O605   Cu518   1.983   1_655 S
O605   C619    1.290   .     A
O606   Cu637   1.983   .     S
O606   C620    1.290   .     A
O607   C620    1.296   .     A
O607   Cu638   1.979   .     S
O608   C619    1.296   .     A
O608   Cu517   1.979   1_655 S
O609   Cu879   1.958   .     S
O609   C621    1.286   .     A
O610   C622    1.286   .     A
O610   Cu640   1.958   .     S
O611   C622    1.288   .     A
O611   Cu639   1.958   .     S
O612   C621    1.288   .     A
O612   Cu880   1.958   .     S
O613   C623    1.290   .     A
O613   Cu880   1.983   .     S
O614   C624    1.290   .     A
O614   Cu639   1.983   .     S
O615   C624    1.296   .     A
O615   Cu640   1.979   .     S
O616   C623    1.296   .     A
O616   Cu879   1.979   .     S
C617   C668    1.446   .     S
C618   C667    1.446   .     S
C619   C666    1.465   .     S
C620   C665    1.465   .     S
C621   C672    1.446   .     S
C622   C671    1.446   .     S
C623   C670    1.465   .     S
C624   C669    1.465   .     S
H625   C641    1.081   .     S
H626   C642    1.081   .     S
H627   C643    1.082   .     S
H628   C644    1.082   .     S
H629   C645    1.081   .     S
H630   C646    1.081   .     S
H631   C647    1.082   .     S
H632   C648    1.082   .     S
N633   Cu637   2.010   .     S
N633   C644    1.367   .     S
N634   Cu638   2.010   .     S
N634   C641    1.366   .     S
N635   C888    1.367   1_545 A
N635   Cu639   2.010   .     S
N635   C646    1.366   .     S
N636   C647    1.367   .     A
N636   Cu640   2.010   .     S
N636   C885    1.366   1_545 S
Cu637  Cu638   2.674   .     S
Cu639  O849    1.958   1_545 S
Cu639  Cu640   2.674   .     S
Cu639  O856    1.979   1_545 S
Cu640  O853    1.983   1_545 S
Cu640  O852    1.958   1_545 S
C642   N513    1.366   1_655 A
C642   C1123   1.416   .     S
C643   N514    1.367   1_655 A
C644   C1121   1.416   .     S
C645   N876    1.366   .     S
C646   C1127   1.416   .     S
C648   N875    1.367   .     A
C648   C1125   1.416   .     S
C649   C666    1.415   .     A
C649   C659    1.392   .     A
C649   N673    1.435   .     S
C650   N676    1.435   .     S
C650   C660    1.392   .     A
C650   C665    1.415   .     A
C651   C665    1.412   .     A
C651   C657    1.392   .     A
C651   N679    1.436   .     S
C652   N682    1.436   .     S
C652   C658    1.392   .     A
C652   C666    1.412   .     A
C653   C668    1.407   .     A
C653   C663    1.396   .     A
C653   N685    1.434   .     S
C654   C667    1.407   .     A
C654   N688    1.434   .     S
C654   C664    1.396   .     A
C655   N691    1.437   .     S
C655   C667    1.408   .     A
C655   C661    1.396   .     A
C656   N694    1.437   .     S
C656   C668    1.408   .     A
C656   C662    1.396   .     A
C657   C670    1.415   .     A
C657   N697    1.435   .     S
C658   N700    1.435   .     S
C658   C669    1.415   .     A
C659   C669    1.412   .     A
C659   N703    1.436   .     S
C660   N706    1.436   .     S
C660   C670    1.412   .     A
C661   N709    1.434   .     S
C661   C672    1.407   .     A
C662   C671    1.407   .     A
C662   N712    1.434   .     S
C663   N715    1.437   .     S
C663   C671    1.408   .     A
C664   N718    1.437   .     S
C664   C672    1.408   .     A
N673   O675    1.301   .     A
N673   O674    1.301   .     A
N676   O678    1.301   .     A
N676   O677    1.301   .     A
N679   O681    1.301   .     A
N679   O680    1.301   .     A
N682   O684    1.301   .     A
N682   O683    1.301   .     A
N685   O686    1.301   .     A
N685   O687    1.301   .     A
N688   O690    1.301   .     A
N688   O689    1.301   .     A
N691   O692    1.301   .     A
N691   O693    1.301   .     A
N694   O696    1.301   .     A
N694   O695    1.301   .     A
N697   O698    1.301   .     A
N697   O699    1.301   .     A
N700   O702    1.301   .     A
N700   O701    1.301   .     A
N703   O705    1.301   .     A
N703   O704    1.301   .     A
N706   O708    1.301   .     A
N706   O707    1.301   .     A
N709   O711    1.301   .     A
N709   O710    1.301   .     A
N712   O714    1.301   .     A
N712   O713    1.301   .     A
N715   O716    1.301   .     A
N715   O717    1.301   .     A
N718   O719    1.301   .     A
N718   O720    1.301   .     A
O721   Cu757   1.958   .     S
O721   C737    1.286   .     A
O722   C738    1.286   .     A
O722   Cu878   1.958   .     S
O723   C738    1.288   .     A
O723   Cu877   1.958   .     S
O724   C737    1.288   .     A
O724   Cu758   1.958   .     S
O725   Cu878   1.983   .     S
O725   C739    1.290   .     A
O726   Cu757   1.983   .     S
O726   C740    1.290   .     A
O727   C740    1.296   .     A
O727   Cu758   1.979   .     S
O728   C739    1.296   .     A
O728   Cu877   1.979   .     S
O729   Cu519   1.958   1_565 S
O729   C741    1.286   .     A
O730   C742    1.286   .     A
O730   Cu760   1.958   .     S
O731   C742    1.288   .     A
O731   Cu759   1.958   .     S
O732   C741    1.288   .     A
O732   Cu520   1.958   1_565 S
O733   C743    1.290   .     A
O733   Cu520   1.983   1_565 S
O734   C744    1.290   .     A
O734   Cu759   1.983   .     S
O735   C744    1.296   .     A
O735   Cu760   1.979   .     S
O736   C743    1.296   .     A
O736   Cu519   1.979   1_565 S
C737   C788    1.446   .     S
C738   C787    1.446   .     S
C739   C786    1.465   .     S
C740   C785    1.465   .     S
C741   C792    1.446   .     S
C742   C791    1.446   .     S
C743   C790    1.465   .     S
C744   C789    1.465   .     S
H745   C761    1.081   .     S
H746   C762    1.081   .     S
H747   C763    1.082   .     S
H748   C764    1.082   .     S
H749   C765    1.081   .     S
H750   C766    1.081   .     S
H751   C767    1.082   .     S
H752   C768    1.082   .     S
N753   C882    1.366   1_455 A
N753   Cu757   2.010   .     S
N753   C764    1.367   .     S
N754   Cu758   2.010   .     S
N754   C883    1.367   1_455 A
N754   C761    1.366   .     S
N755   Cu759   2.010   .     S
N755   C766    1.366   .     S
N756   C767    1.367   .     A
N756   Cu760   2.010   .     S
Cu757  O848    1.979   1_455 S
Cu757  O843    1.958   1_455 S
Cu757  Cu758   2.674   .     S
Cu758  O845    1.983   1_455 S
Cu758  O842    1.958   1_455 S
Cu759  Cu760   2.674   .     S
C762   N873    1.366   .     A
C762   C1243   1.416   .     S
C763   N874    1.367   .     A
C764   C1241   1.416   .     S
C765   N516    1.366   1_565 S
C766   C1247   1.416   .     S
C768   N515    1.367   1_565 A
C768   C1245   1.416   .     S
C769   C786    1.415   .     A
C769   C779    1.392   .     A
C769   N793    1.435   .     S
C770   N796    1.435   .     S
C770   C780    1.392   .     A
C770   C785    1.415   .     A
C771   C785    1.412   .     A
C771   C777    1.392   .     A
C771   N799    1.436   .     S
C772   N802    1.436   .     S
C772   C778    1.392   .     A
C772   C786    1.412   .     A
C773   C788    1.407   .     A
C773   C783    1.396   .     A
C773   N805    1.434   .     S
C774   C787    1.407   .     A
C774   N808    1.434   .     S
C774   C784    1.396   .     A
C775   N811    1.437   .     S
C775   C787    1.408   .     A
C775   C781    1.396   .     A
C776   N814    1.437   .     S
C776   C788    1.408   .     A
C776   C782    1.396   .     A
C777   C790    1.415   .     A
C777   N817    1.435   .     S
C778   N820    1.435   .     S
C778   C789    1.415   .     A
C779   C789    1.412   .     A
C779   N823    1.436   .     S
C780   N826    1.436   .     S
C780   C790    1.412   .     A
C781   N829    1.434   .     S
C781   C792    1.407   .     A
C782   C791    1.407   .     A
C782   N832    1.434   .     S
C783   N835    1.437   .     S
C783   C791    1.408   .     A
C784   N838    1.437   .     S
C784   C792    1.408   .     A
N793   O795    1.301   .     A
N793   O794    1.301   .     A
N796   O798    1.301   .     A
N796   O797    1.301   .     A
N799   O801    1.301   .     A
N799   O800    1.301   .     A
N802   O804    1.301   .     A
N802   O803    1.301   .     A
N805   O806    1.301   .     A
N805   O807    1.301   .     A
N808   O810    1.301   .     A
N808   O809    1.301   .     A
N811   O812    1.301   .     A
N811   O813    1.301   .     A
N814   O816    1.301   .     A
N814   O815    1.301   .     A
N817   O818    1.301   .     A
N817   O819    1.301   .     A
N820   O822    1.301   .     A
N820   O821    1.301   .     A
N823   O825    1.301   .     A
N823   O824    1.301   .     A
N826   O828    1.301   .     A
N826   O827    1.301   .     A
N829   O831    1.301   .     A
N829   O830    1.301   .     A
N832   O834    1.301   .     A
N832   O833    1.301   .     A
N835   O836    1.301   .     A
N835   O837    1.301   .     A
N838   O839    1.301   .     A
N838   O840    1.301   .     A
O841   Cu877   1.958   .     S
O841   C857    1.286   .     A
O842   C858    1.286   .     A
O842   Cu758   1.958   1_655 S
O843   C858    1.288   .     A
O843   Cu757   1.958   1_655 S
O844   C857    1.288   .     A
O844   Cu878   1.958   .     S
O845   Cu758   1.983   1_655 S
O845   C859    1.290   .     A
O846   Cu877   1.983   .     S
O846   C860    1.290   .     A
O847   C860    1.296   .     A
O847   Cu878   1.979   .     S
O848   C859    1.296   .     A
O848   Cu757   1.979   1_655 S
O849   Cu639   1.958   1_565 S
O849   C861    1.286   .     A
O850   C862    1.286   .     A
O850   Cu880   1.958   .     S
O851   C862    1.288   .     A
O851   Cu879   1.958   .     S
O852   C861    1.288   .     A
O852   Cu640   1.958   1_565 S
O853   C863    1.290   .     A
O853   Cu640   1.983   1_565 S
O854   C864    1.290   .     A
O854   Cu879   1.983   .     S
O855   C864    1.296   .     A
O855   Cu880   1.979   .     S
O856   C863    1.296   .     A
O856   Cu639   1.979   1_565 S
C857   C908    1.446   .     S
C858   C907    1.446   .     S
C859   C906    1.465   .     S
C860   C905    1.465   .     S
C861   C912    1.446   .     S
C862   C911    1.446   .     S
C863   C910    1.465   .     S
C864   C909    1.465   .     S
H865   C881    1.081   .     S
H866   C882    1.081   .     S
H867   C883    1.082   .     S
H868   C884    1.082   .     S
H869   C885    1.081   .     S
H870   C886    1.081   .     S
H871   C887    1.082   .     S
H872   C888    1.082   .     S
N873   Cu877   2.010   .     S
N873   C884    1.367   .     S
N874   Cu878   2.010   .     S
N874   C881    1.366   .     S
N875   Cu879   2.010   .     S
N875   C886    1.366   .     S
N876   C887    1.367   .     A
N876   Cu880   2.010   .     S
Cu877  Cu878   2.674   .     S
Cu879  Cu880   2.674   .     S
C882   N753    1.366   1_655 A
C882   C1363   1.416   .     S
C883   N754    1.367   1_655 A
C884   C1361   1.416   .     S
C885   N636    1.366   1_565 S
C886   C1367   1.416   .     S
C888   N635    1.367   1_565 A
C888   C1365   1.416   .     S
C889   C906    1.415   .     A
C889   C899    1.392   .     A
C889   N913    1.435   .     S
C890   N916    1.435   .     S
C890   C900    1.392   .     A
C890   C905    1.415   .     A
C891   C905    1.412   .     A
C891   C897    1.392   .     A
C891   N919    1.436   .     S
C892   N922    1.436   .     S
C892   C898    1.392   .     A
C892   C906    1.412   .     A
C893   C908    1.407   .     A
C893   C903    1.396   .     A
C893   N925    1.434   .     S
C894   C907    1.407   .     A
C894   N928    1.434   .     S
C894   C904    1.396   .     A
C895   N931    1.437   .     S
C895   C907    1.408   .     A
C895   C901    1.396   .     A
C896   N934    1.437   .     S
C896   C908    1.408   .     A
C896   C902    1.396   .     A
C897   C910    1.415   .     A
C897   N937    1.435   .     S
C898   N940    1.435   .     S
C898   C909    1.415   .     A
C899   C909    1.412   .     A
C899   N943    1.436   .     S
C900   N946    1.436   .     S
C900   C910    1.412   .     A
C901   N949    1.434   .     S
C901   C912    1.407   .     A
C902   C911    1.407   .     A
C902   N952    1.434   .     S
C903   N955    1.437   .     S
C903   C911    1.408   .     A
C904   N958    1.437   .     S
C904   C912    1.408   .     A
N913   O915    1.301   .     A
N913   O914    1.301   .     A
N916   O918    1.301   .     A
N916   O917    1.301   .     A
N919   O921    1.301   .     A
N919   O920    1.301   .     A
N922   O924    1.301   .     A
N922   O923    1.301   .     A
N925   O926    1.301   .     A
N925   O927    1.301   .     A
N928   O930    1.301   .     A
N928   O929    1.301   .     A
N931   O932    1.301   .     A
N931   O933    1.301   .     A
N934   O936    1.301   .     A
N934   O935    1.301   .     A
N937   O938    1.301   .     A
N937   O939    1.301   .     A
N940   O942    1.301   .     A
N940   O941    1.301   .     A
N943   O945    1.301   .     A
N943   O944    1.301   .     A
N946   O948    1.301   .     A
N946   O947    1.301   .     A
N949   O951    1.301   .     A
N949   O950    1.301   .     A
N952   O954    1.301   .     A
N952   O953    1.301   .     A
N955   O956    1.301   .     A
N955   O957    1.301   .     A
N958   O959    1.301   .     A
N958   O960    1.301   .     A
O961   Cu997   1.958   .     S
O961   C977    1.286   .     A
O962   C978    1.286   .     A
O962   Cu1118  1.958   .     S
O963   C978    1.288   .     A
O963   Cu1117  1.958   .     S
O964   C977    1.288   .     A
O964   Cu998   1.958   .     S
O965   Cu1118  1.983   .     S
O965   C979    1.290   .     A
O966   Cu997   1.983   .     S
O966   C980    1.290   .     A
O967   C980    1.296   .     A
O967   Cu998   1.979   .     S
O968   C979    1.296   .     A
O968   Cu1117  1.979   .     S
O969   Cu1239  1.958   .     S
O969   C981    1.286   .     A
O970   C982    1.286   .     A
O970   Cu1000  1.958   .     S
O971   C982    1.288   .     A
O971   Cu999   1.958   .     S
O972   C981    1.288   .     A
O972   Cu1240  1.958   .     S
O973   C983    1.290   .     A
O973   Cu1240  1.983   .     S
O974   C984    1.290   .     A
O974   Cu999   1.983   .     S
O975   C984    1.296   .     A
O975   Cu1000  1.979   .     S
O976   C983    1.296   .     A
O976   Cu1239  1.979   .     S
C977   C1028   1.446   .     S
C978   C1027   1.446   .     S
C979   C1026   1.465   .     S
C980   C1025   1.465   .     S
C981   C1032   1.446   .     S
C982   C1031   1.446   .     S
C983   C1030   1.465   .     S
C984   C1029   1.465   .     S
H985   C1001   1.081   .     S
H986   C1002   1.081   .     S
H987   C1003   1.082   .     S
H988   C1004   1.082   .     S
H989   C1005   1.081   .     S
H990   C1006   1.081   .     S
H991   C1007   1.082   .     S
H992   C1008   1.082   .     S
N993   C1122   1.366   1_455 A
N993   Cu997   2.010   .     S
N993   C1004   1.367   .     S
N994   Cu998   2.010   .     S
N994   C1123   1.367   1_455 A
N994   C1001   1.366   .     S
N995   C1248   1.367   1_545 A
N995   Cu999   2.010   .     S
N995   C1006   1.366   .     S
N996   C1007   1.367   .     A
N996   Cu1000  2.010   .     S
N996   C1245   1.366   1_545 S
Cu997  O1088   1.979   1_455 S
Cu997  O1083   1.958   1_455 S
Cu997  Cu998   2.674   .     S
Cu998  O1085   1.983   1_455 S
Cu998  O1082   1.958   1_455 S
Cu999  O1209   1.958   1_545 S
Cu999  Cu1000  2.674   .     S
Cu999  O1216   1.979   1_545 S
Cu1000 O1213   1.983   1_545 S
Cu1000 O1212   1.958   1_545 S
C1002  N1113   1.366   .     A
C1002  C43     1.416   1_556 S
C1003  N1114   1.367   .     A
C1004  C41     1.416   1_556 S
C1005  N1236   1.366   .     S
C1006  C47     1.416   1_556 S
C1008  N1235   1.367   .     A
C1008  C45     1.416   1_556 S
C1009  C1026   1.415   .     A
C1009  C1019   1.392   .     A
C1009  N1033   1.435   .     S
C1010  N1036   1.435   .     S
C1010  C1020   1.392   .     A
C1010  C1025   1.415   .     A
C1011  C1025   1.412   .     A
C1011  C1017   1.392   .     A
C1011  N1039   1.436   .     S
C1012  N1042   1.436   .     S
C1012  C1018   1.392   .     A
C1012  C1026   1.412   .     A
C1013  C1028   1.407   .     A
C1013  C1023   1.396   .     A
C1013  N1045   1.434   .     S
C1014  C1027   1.407   .     A
C1014  N1048   1.434   .     S
C1014  C1024   1.396   .     A
C1015  N1051   1.437   .     S
C1015  C1027   1.408   .     A
C1015  C1021   1.396   .     A
C1016  N1054   1.437   .     S
C1016  C1028   1.408   .     A
C1016  C1022   1.396   .     A
C1017  C1030   1.415   .     A
C1017  N1057   1.435   .     S
C1018  N1060   1.435   .     S
C1018  C1029   1.415   .     A
C1019  C1029   1.412   .     A
C1019  N1063   1.436   .     S
C1020  N1066   1.436   .     S
C1020  C1030   1.412   .     A
C1021  N1069   1.434   .     S
C1021  C1032   1.407   .     A
C1022  C1031   1.407   .     A
C1022  N1072   1.434   .     S
C1023  N1075   1.437   .     S
C1023  C1031   1.408   .     A
C1024  N1078   1.437   .     S
C1024  C1032   1.408   .     A
N1033  O1035   1.301   .     A
N1033  O1034   1.301   .     A
N1036  O1038   1.301   .     A
N1036  O1037   1.301   .     A
N1039  O1041   1.301   .     A
N1039  O1040   1.301   .     A
N1042  O1044   1.301   .     A
N1042  O1043   1.301   .     A
N1045  O1046   1.301   .     A
N1045  O1047   1.301   .     A
N1048  O1050   1.301   .     A
N1048  O1049   1.301   .     A
N1051  O1052   1.301   .     A
N1051  O1053   1.301   .     A
N1054  O1056   1.301   .     A
N1054  O1055   1.301   .     A
N1057  O1058   1.301   .     A
N1057  O1059   1.301   .     A
N1060  O1062   1.301   .     A
N1060  O1061   1.301   .     A
N1063  O1065   1.301   .     A
N1063  O1064   1.301   .     A
N1066  O1068   1.301   .     A
N1066  O1067   1.301   .     A
N1069  O1071   1.301   .     A
N1069  O1070   1.301   .     A
N1072  O1074   1.301   .     A
N1072  O1073   1.301   .     A
N1075  O1076   1.301   .     A
N1075  O1077   1.301   .     A
N1078  O1079   1.301   .     A
N1078  O1080   1.301   .     A
O1081  Cu1117  1.958   .     S
O1081  C1097   1.286   .     A
O1082  C1098   1.286   .     A
O1082  Cu998   1.958   1_655 S
O1083  C1098   1.288   .     A
O1083  Cu997   1.958   1_655 S
O1084  C1097   1.288   .     A
O1084  Cu1118  1.958   .     S
O1085  Cu998   1.983   1_655 S
O1085  C1099   1.290   .     A
O1086  Cu1117  1.983   .     S
O1086  C1100   1.290   .     A
O1087  C1100   1.296   .     A
O1087  Cu1118  1.979   .     S
O1088  C1099   1.296   .     A
O1088  Cu997   1.979   1_655 S
O1089  Cu1359  1.958   .     S
O1089  C1101   1.286   .     A
O1090  C1102   1.286   .     A
O1090  Cu1120  1.958   .     S
O1091  C1102   1.288   .     A
O1091  Cu1119  1.958   .     S
O1092  C1101   1.288   .     A
O1092  Cu1360  1.958   .     S
O1093  C1103   1.290   .     A
O1093  Cu1360  1.983   .     S
O1094  C1104   1.290   .     A
O1094  Cu1119  1.983   .     S
O1095  C1104   1.296   .     A
O1095  Cu1120  1.979   .     S
O1096  C1103   1.296   .     A
O1096  Cu1359  1.979   .     S
C1097  C1148   1.446   .     S
C1098  C1147   1.446   .     S
C1099  C1146   1.465   .     S
C1100  C1145   1.465   .     S
C1101  C1152   1.446   .     S
C1102  C1151   1.446   .     S
C1103  C1150   1.465   .     S
C1104  C1149   1.465   .     S
H1105  C1121   1.081   .     S
H1106  C1122   1.081   .     S
H1107  C1123   1.082   .     S
H1108  C1124   1.082   .     S
H1109  C1125   1.081   .     S
H1110  C1126   1.081   .     S
H1111  C1127   1.082   .     S
H1112  C1128   1.082   .     S
N1113  Cu1117  2.010   .     S
N1113  C1124   1.367   .     S
N1114  Cu1118  2.010   .     S
N1114  C1121   1.366   .     S
N1115  C1368   1.367   1_545 A
N1115  Cu1119  2.010   .     S
N1115  C1126   1.366   .     S
N1116  C1127   1.367   .     A
N1116  Cu1120  2.010   .     S
N1116  C1365   1.366   1_545 S
Cu1117 Cu1118  2.674   .     S
Cu1119 O1329   1.958   1_545 S
Cu1119 Cu1120  2.674   .     S
Cu1119 O1336   1.979   1_545 S
Cu1120 O1333   1.983   1_545 S
Cu1120 O1332   1.958   1_545 S
C1122  N993    1.366   1_655 A
C1122  C163    1.416   1_556 S
C1123  N994    1.367   1_655 A
C1124  C161    1.416   1_556 S
C1125  N1356   1.366   .     S
C1126  C167    1.416   1_556 S
C1128  N1355   1.367   .     A
C1128  C165    1.416   1_556 S
C1129  C1146   1.415   .     A
C1129  C1139   1.392   .     A
C1129  N1153   1.435   .     S
C1130  N1156   1.435   .     S
C1130  C1140   1.392   .     A
C1130  C1145   1.415   .     A
C1131  C1145   1.412   .     A
C1131  C1137   1.392   .     A
C1131  N1159   1.436   .     S
C1132  N1162   1.436   .     S
C1132  C1138   1.392   .     A
C1132  C1146   1.412   .     A
C1133  C1148   1.407   .     A
C1133  C1143   1.396   .     A
C1133  N1165   1.434   .     S
C1134  C1147   1.407   .     A
C1134  N1168   1.434   .     S
C1134  C1144   1.396   .     A
C1135  N1171   1.437   .     S
C1135  C1147   1.408   .     A
C1135  C1141   1.396   .     A
C1136  N1174   1.437   .     S
C1136  C1148   1.408   .     A
C1136  C1142   1.396   .     A
C1137  C1150   1.415   .     A
C1137  N1177   1.435   .     S
C1138  N1180   1.435   .     S
C1138  C1149   1.415   .     A
C1139  C1149   1.412   .     A
C1139  N1183   1.436   .     S
C1140  N1186   1.436   .     S
C1140  C1150   1.412   .     A
C1141  N1189   1.434   .     S
C1141  C1152   1.407   .     A
C1142  C1151   1.407   .     A
C1142  N1192   1.434   .     S
C1143  N1195   1.437   .     S
C1143  C1151   1.408   .     A
C1144  N1198   1.437   .     S
C1144  C1152   1.408   .     A
N1153  O1155   1.301   .     A
N1153  O1154   1.301   .     A
N1156  O1158   1.301   .     A
N1156  O1157   1.301   .     A
N1159  O1161   1.301   .     A
N1159  O1160   1.301   .     A
N1162  O1164   1.301   .     A
N1162  O1163   1.301   .     A
N1165  O1166   1.301   .     A
N1165  O1167   1.301   .     A
N1168  O1170   1.301   .     A
N1168  O1169   1.301   .     A
N1171  O1172   1.301   .     A
N1171  O1173   1.301   .     A
N1174  O1176   1.301   .     A
N1174  O1175   1.301   .     A
N1177  O1178   1.301   .     A
N1177  O1179   1.301   .     A
N1180  O1182   1.301   .     A
N1180  O1181   1.301   .     A
N1183  O1185   1.301   .     A
N1183  O1184   1.301   .     A
N1186  O1188   1.301   .     A
N1186  O1187   1.301   .     A
N1189  O1191   1.301   .     A
N1189  O1190   1.301   .     A
N1192  O1194   1.301   .     A
N1192  O1193   1.301   .     A
N1195  O1196   1.301   .     A
N1195  O1197   1.301   .     A
N1198  O1199   1.301   .     A
N1198  O1200   1.301   .     A
O1201  Cu1237  1.958   .     S
O1201  C1217   1.286   .     A
O1202  C1218   1.286   .     A
O1202  Cu1358  1.958   .     S
O1203  C1218   1.288   .     A
O1203  Cu1357  1.958   .     S
O1204  C1217   1.288   .     A
O1204  Cu1238  1.958   .     S
O1205  Cu1358  1.983   .     S
O1205  C1219   1.290   .     A
O1206  Cu1237  1.983   .     S
O1206  C1220   1.290   .     A
O1207  C1220   1.296   .     A
O1207  Cu1238  1.979   .     S
O1208  C1219   1.296   .     A
O1208  Cu1357  1.979   .     S
O1209  Cu999   1.958   1_565 S
O1209  C1221   1.286   .     A
O1210  C1222   1.286   .     A
O1210  Cu1240  1.958   .     S
O1211  C1222   1.288   .     A
O1211  Cu1239  1.958   .     S
O1212  C1221   1.288   .     A
O1212  Cu1000  1.958   1_565 S
O1213  C1223   1.290   .     A
O1213  Cu1000  1.983   1_565 S
O1214  C1224   1.290   .     A
O1214  Cu1239  1.983   .     S
O1215  C1224   1.296   .     A
O1215  Cu1240  1.979   .     S
O1216  C1223   1.296   .     A
O1216  Cu999   1.979   1_565 S
C1217  C1268   1.446   .     S
C1218  C1267   1.446   .     S
C1219  C1266   1.465   .     S
C1220  C1265   1.465   .     S
C1221  C1272   1.446   .     S
C1222  C1271   1.446   .     S
C1223  C1270   1.465   .     S
C1224  C1269   1.465   .     S
H1225  C1241   1.081   .     S
H1226  C1242   1.081   .     S
H1227  C1243   1.082   .     S
H1228  C1244   1.082   .     S
H1229  C1245   1.081   .     S
H1230  C1246   1.081   .     S
H1231  C1247   1.082   .     S
H1232  C1248   1.082   .     S
N1233  C1362   1.366   1_455 A
N1233  Cu1237  2.010   .     S
N1233  C1244   1.367   .     S
N1234  Cu1238  2.010   .     S
N1234  C1363   1.367   1_455 A
N1234  C1241   1.366   .     S
N1235  Cu1239  2.010   .     S
N1235  C1246   1.366   .     S
N1236  C1247   1.367   .     A
N1236  Cu1240  2.010   .     S
Cu1237 O1328   1.979   1_455 S
Cu1237 O1323   1.958   1_455 S
Cu1237 Cu1238  2.674   .     S
Cu1238 O1325   1.983   1_455 S
Cu1238 O1322   1.958   1_455 S
Cu1239 Cu1240  2.674   .     S
C1242  N1353   1.366   .     A
C1242  C283    1.416   1_556 S
C1243  N1354   1.367   .     A
C1244  C281    1.416   1_556 S
C1245  N996    1.366   1_565 S
C1246  C287    1.416   1_556 S
C1248  N995    1.367   1_565 A
C1248  C285    1.416   1_556 S
C1249  C1266   1.415   .     A
C1249  C1259   1.392   .     A
C1249  N1273   1.435   .     S
C1250  N1276   1.435   .     S
C1250  C1260   1.392   .     A
C1250  C1265   1.415   .     A
C1251  C1265   1.412   .     A
C1251  C1257   1.392   .     A
C1251  N1279   1.436   .     S
C1252  N1282   1.436   .     S
C1252  C1258   1.392   .     A
C1252  C1266   1.412   .     A
C1253  C1268   1.407   .     A
C1253  C1263   1.396   .     A
C1253  N1285   1.434   .     S
C1254  C1267   1.407   .     A
C1254  N1288   1.434   .     S
C1254  C1264   1.396   .     A
C1255  N1291   1.437   .     S
C1255  C1267   1.408   .     A
C1255  C1261   1.396   .     A
C1256  N1294   1.437   .     S
C1256  C1268   1.408   .     A
C1256  C1262   1.396   .     A
C1257  C1270   1.415   .     A
C1257  N1297   1.435   .     S
C1258  N1300   1.435   .     S
C1258  C1269   1.415   .     A
C1259  C1269   1.412   .     A
C1259  N1303   1.436   .     S
C1260  N1306   1.436   .     S
C1260  C1270   1.412   .     A
C1261  N1309   1.434   .     S
C1261  C1272   1.407   .     A
C1262  C1271   1.407   .     A
C1262  N1312   1.434   .     S
C1263  N1315   1.437   .     S
C1263  C1271   1.408   .     A
C1264  N1318   1.437   .     S
C1264  C1272   1.408   .     A
N1273  O1275   1.301   .     A
N1273  O1274   1.301   .     A
N1276  O1278   1.301   .     A
N1276  O1277   1.301   .     A
N1279  O1281   1.301   .     A
N1279  O1280   1.301   .     A
N1282  O1284   1.301   .     A
N1282  O1283   1.301   .     A
N1285  O1286   1.301   .     A
N1285  O1287   1.301   .     A
N1288  O1290   1.301   .     A
N1288  O1289   1.301   .     A
N1291  O1292   1.301   .     A
N1291  O1293   1.301   .     A
N1294  O1296   1.301   .     A
N1294  O1295   1.301   .     A
N1297  O1298   1.301   .     A
N1297  O1299   1.301   .     A
N1300  O1302   1.301   .     A
N1300  O1301   1.301   .     A
N1303  O1305   1.301   .     A
N1303  O1304   1.301   .     A
N1306  O1308   1.301   .     A
N1306  O1307   1.301   .     A
N1309  O1311   1.301   .     A
N1309  O1310   1.301   .     A
N1312  O1314   1.301   .     A
N1312  O1313   1.301   .     A
N1315  O1316   1.301   .     A
N1315  O1317   1.301   .     A
N1318  O1319   1.301   .     A
N1318  O1320   1.301   .     A
O1321  Cu1357  1.958   .     S
O1321  C1337   1.286   .     A
O1322  C1338   1.286   .     A
O1322  Cu1238  1.958   1_655 S
O1323  C1338   1.288   .     A
O1323  Cu1237  1.958   1_655 S
O1324  C1337   1.288   .     A
O1324  Cu1358  1.958   .     S
O1325  Cu1238  1.983   1_655 S
O1325  C1339   1.290   .     A
O1326  Cu1357  1.983   .     S
O1326  C1340   1.290   .     A
O1327  C1340   1.296   .     A
O1327  Cu1358  1.979   .     S
O1328  C1339   1.296   .     A
O1328  Cu1237  1.979   1_655 S
O1329  Cu1119  1.958   1_565 S
O1329  C1341   1.286   .     A
O1330  C1342   1.286   .     A
O1330  Cu1360  1.958   .     S
O1331  C1342   1.288   .     A
O1331  Cu1359  1.958   .     S
O1332  C1341   1.288   .     A
O1332  Cu1120  1.958   1_565 S
O1333  C1343   1.290   .     A
O1333  Cu1120  1.983   1_565 S
O1334  C1344   1.290   .     A
O1334  Cu1359  1.983   .     S
O1335  C1344   1.296   .     A
O1335  Cu1360  1.979   .     S
O1336  C1343   1.296   .     A
O1336  Cu1119  1.979   1_565 S
C1337  C1388   1.446   .     S
C1338  C1387   1.446   .     S
C1339  C1386   1.465   .     S
C1340  C1385   1.465   .     S
C1341  C1392   1.446   .     S
C1342  C1391   1.446   .     S
C1343  C1390   1.465   .     S
C1344  C1389   1.465   .     S
H1345  C1361   1.081   .     S
H1346  C1362   1.081   .     S
H1347  C1363   1.082   .     S
H1348  C1364   1.082   .     S
H1349  C1365   1.081   .     S
H1350  C1366   1.081   .     S
H1351  C1367   1.082   .     S
H1352  C1368   1.082   .     S
N1353  Cu1357  2.010   .     S
N1353  C1364   1.367   .     S
N1354  Cu1358  2.010   .     S
N1354  C1361   1.366   .     S
N1355  Cu1359  2.010   .     S
N1355  C1366   1.366   .     S
N1356  C1367   1.367   .     A
N1356  Cu1360  2.010   .     S
Cu1357 Cu1358  2.674   .     S
Cu1359 Cu1360  2.674   .     S
C1362  N1233   1.366   1_655 A
C1362  C403    1.416   1_556 S
C1363  N1234   1.367   1_655 A
C1364  C401    1.416   1_556 S
C1365  N1116   1.366   1_565 S
C1366  C407    1.416   1_556 S
C1368  N1115   1.367   1_565 A
C1368  C405    1.416   1_556 S
C1369  C1386   1.415   .     A
C1369  C1379   1.392   .     A
C1369  N1393   1.435   .     S
C1370  N1396   1.435   .     S
C1370  C1380   1.392   .     A
C1370  C1385   1.415   .     A
C1371  C1385   1.412   .     A
C1371  C1377   1.392   .     A
C1371  N1399   1.436   .     S
C1372  N1402   1.436   .     S
C1372  C1378   1.392   .     A
C1372  C1386   1.412   .     A
C1373  C1388   1.407   .     A
C1373  C1383   1.396   .     A
C1373  N1405   1.434   .     S
C1374  C1387   1.407   .     A
C1374  N1408   1.434   .     S
C1374  C1384   1.396   .     A
C1375  N1411   1.437   .     S
C1375  C1387   1.408   .     A
C1375  C1381   1.396   .     A
C1376  N1414   1.437   .     S
C1376  C1388   1.408   .     A
C1376  C1382   1.396   .     A
C1377  C1390   1.415   .     A
C1377  N1417   1.435   .     S
C1378  N1420   1.435   .     S
C1378  C1389   1.415   .     A
C1379  C1389   1.412   .     A
C1379  N1423   1.436   .     S
C1380  N1426   1.436   .     S
C1380  C1390   1.412   .     A
C1381  N1429   1.434   .     S
C1381  C1392   1.407   .     A
C1382  C1391   1.407   .     A
C1382  N1432   1.434   .     S
C1383  N1435   1.437   .     S
C1383  C1391   1.408   .     A
C1384  N1438   1.437   .     S
C1384  C1392   1.408   .     A
N1393  O1395   1.301   .     A
N1393  O1394   1.301   .     A
N1396  O1398   1.301   .     A
N1396  O1397   1.301   .     A
N1399  O1401   1.301   .     A
N1399  O1400   1.301   .     A
N1402  O1404   1.301   .     A
N1402  O1403   1.301   .     A
N1405  O1406   1.301   .     A
N1405  O1407   1.301   .     A
N1408  O1410   1.301   .     A
N1408  O1409   1.301   .     A
N1411  O1412   1.301   .     A
N1411  O1413   1.301   .     A
N1414  O1416   1.301   .     A
N1414  O1415   1.301   .     A
N1417  O1418   1.301   .     A
N1417  O1419   1.301   .     A
N1420  O1422   1.301   .     A
N1420  O1421   1.301   .     A
N1423  O1425   1.301   .     A
N1423  O1424   1.301   .     A
N1426  O1428   1.301   .     A
N1426  O1427   1.301   .     A
N1429  O1431   1.301   .     A
N1429  O1430   1.301   .     A
N1432  O1434   1.301   .     A
N1432  O1433   1.301   .     A
N1435  O1436   1.301   .     A
N1435  O1437   1.301   .     A
N1438  O1439   1.301   .     A
N1438  O1440   1.301   .     A
