data_str_m3_o5_o17_pcu_sym.48
_audit_creation_date              2020-01-03
_audit_creation_method            'Materials Studio'
_symmetry_space_group_name_H-M    'P1'
_symmetry_Int_Tables_number       1
_symmetry_cell_setting            triclinic
loop_
_symmetry_equiv_pos_as_xyz
  x,y,z
_cell_length_a                    29.9652
_cell_length_b                    26.7423
_cell_length_c                    24.3485
_cell_angle_alpha                 89.9146
_cell_angle_beta                  90.2331
_cell_angle_gamma                 90.0033
loop_
_atom_site_label
_atom_site_type_symbol
_atom_site_fract_x
_atom_site_fract_y
_atom_site_fract_z
_atom_site_U_iso_or_equiv
_atom_site_adp_type
_atom_site_occupancy
O1     O     0.25000   0.09512   0.21228   0.00000  Uiso   1.00
O2     O     0.25000   0.23822   0.12105   0.00000  Uiso   1.00
O3     O     0.25000   0.23822   0.21228   0.00000  Uiso   1.00
O4     O     0.25000   0.09512   0.12105   0.00000  Uiso   1.00
C5     C     0.24998   0.07269   0.16669   0.00000  Uiso   1.00
C6     C     0.25004   0.26064   0.16664   0.00000  Uiso   1.00
O7     O     0.18393   0.16667   0.21230   0.00000  Uiso   1.00
O8     O     0.31608   0.16667   0.12104   0.00000  Uiso   1.00
O9     O     0.31608   0.16667   0.21230   0.00000  Uiso   1.00
O10    O     0.18393   0.16667   0.12104   0.00000  Uiso   1.00
C11    C     0.16340   0.16683   0.16649   0.00000  Uiso   1.00
C12    C     0.33667   0.16642   0.16675   0.00000  Uiso   1.00
Zn13   Zn    0.25000   0.16667   0.22759   0.00000  Uiso   1.00
Zn14   Zn    0.25000   0.16667   0.10574   0.00000  Uiso   1.00
N15    N     0.25000   0.16667   0.02455   0.00000  Uiso   1.00
N16    N     0.25000   0.16667   0.30879   0.00000  Uiso   1.00
C17    C     0.40687   0.20470   0.19175   0.00000  Uiso   1.00
C18    C     0.09326   0.12738   0.14180   0.00000  Uiso   1.00
C19    C     0.40665   0.12777   0.13748   0.00000  Uiso   1.00
C20    C     0.09363   0.21124   0.18314   0.00000  Uiso   1.00
C21    C     0.38439   0.16553   0.16638   0.00000  Uiso   1.00
C22    C     0.11576   0.16801   0.16531   0.00000  Uiso   1.00
C23    C     0.45322   0.13039   0.13231   0.00000  Uiso   1.00
C24    C     0.04678   0.21277   0.18082   0.00000  Uiso   1.00
C25    C     0.45303   0.20973   0.18406   0.00000  Uiso   1.00
C26    C     0.04706   0.13045   0.13370   0.00000  Uiso   1.00
C27    C     0.47661   0.17068   0.15748   0.00000  Uiso   1.00
C28    C     0.02353   0.17150   0.15697   0.00000  Uiso   1.00
C29    C     0.47695   0.09377   0.10259   0.00000  Uiso   1.00
C30    C     0.02222   0.25495   0.19962   0.00000  Uiso   1.00
C31    C     0.47572   0.25347   0.20028   0.00000  Uiso   1.00
C32    C     0.02344   0.09339   0.10360   0.00000  Uiso   1.00
C33    C     0.24998   0.02175   0.16670   0.00000  Uiso   1.00
C34    C     0.25000   0.31159   0.16663   0.00000  Uiso   1.00
N35    N     0.45397   0.05652   0.07070   0.00000  Uiso   1.00
H36    H     0.46373   0.05987   0.02967   0.00000  Uiso   1.00
H37    H     0.46321   0.02109   0.08502   0.00000  Uiso   1.00
N38    N     0.04286   0.30046   0.21808   0.00000  Uiso   1.00
H39    H     0.06280   0.31534   0.18696   0.00000  Uiso   1.00
H40    H     0.06105   0.29378   0.25406   0.00000  Uiso   1.00
N41    N     0.45147   0.29792   0.21475   0.00000  Uiso   1.00
H42    H     0.46057   0.30847   0.25460   0.00000  Uiso   1.00
H43    H     0.46043   0.32665   0.18777   0.00000  Uiso   1.00
N44    N     0.04531   0.05579   0.07128   0.00000  Uiso   1.00
H45    H     0.05987   0.02902   0.09696   0.00000  Uiso   1.00
H46    H     0.06883   0.07246   0.04546   0.00000  Uiso   1.00
O47    O     0.38266   0.23723   0.22398   0.00000  Uiso   1.00
H48    H     0.39918   0.24089   0.25913   0.00000  Uiso   1.00
O49    O     0.11589   0.08412   0.12775   0.00000  Uiso   1.00
H50    H     0.14255   0.07981   0.15144   0.00000  Uiso   1.00
O51    O     0.38365   0.08731   0.11587   0.00000  Uiso   1.00
H52    H     0.35592   0.08139   0.13688   0.00000  Uiso   1.00
O53    O     0.11731   0.25126   0.20442   0.00000  Uiso   1.00
H54    H     0.14691   0.25377   0.18678   0.00000  Uiso   1.00
O55    O     0.75000   0.09512   0.21228   0.00000  Uiso   1.00
O56    O     0.75000   0.23822   0.12105   0.00000  Uiso   1.00
O57    O     0.75000   0.23822   0.21228   0.00000  Uiso   1.00
O58    O     0.75000   0.09512   0.12105   0.00000  Uiso   1.00
C59    C     0.74998   0.07269   0.16669   0.00000  Uiso   1.00
C60    C     0.75004   0.26064   0.16664   0.00000  Uiso   1.00
O61    O     0.68393   0.16667   0.21230   0.00000  Uiso   1.00
O62    O     0.81608   0.16667   0.12104   0.00000  Uiso   1.00
O63    O     0.81608   0.16667   0.21230   0.00000  Uiso   1.00
O64    O     0.68393   0.16667   0.12104   0.00000  Uiso   1.00
C65    C     0.66340   0.16683   0.16649   0.00000  Uiso   1.00
C66    C     0.83667   0.16642   0.16675   0.00000  Uiso   1.00
Zn67   Zn    0.75000   0.16667   0.22759   0.00000  Uiso   1.00
Zn68   Zn    0.75000   0.16667   0.10574   0.00000  Uiso   1.00
N69    N     0.75000   0.16667   0.02455   0.00000  Uiso   1.00
N70    N     0.75000   0.16667   0.30879   0.00000  Uiso   1.00
C71    C     0.90687   0.20470   0.19175   0.00000  Uiso   1.00
C72    C     0.59326   0.12738   0.14180   0.00000  Uiso   1.00
C73    C     0.90665   0.12777   0.13748   0.00000  Uiso   1.00
C74    C     0.59363   0.21124   0.18314   0.00000  Uiso   1.00
C75    C     0.88439   0.16553   0.16638   0.00000  Uiso   1.00
C76    C     0.61576   0.16801   0.16531   0.00000  Uiso   1.00
C77    C     0.95322   0.13039   0.13231   0.00000  Uiso   1.00
C78    C     0.54678   0.21277   0.18082   0.00000  Uiso   1.00
C79    C     0.95303   0.20973   0.18406   0.00000  Uiso   1.00
C80    C     0.54706   0.13045   0.13370   0.00000  Uiso   1.00
C81    C     0.97661   0.17068   0.15748   0.00000  Uiso   1.00
C82    C     0.52353   0.17150   0.15697   0.00000  Uiso   1.00
C83    C     0.97695   0.09377   0.10259   0.00000  Uiso   1.00
C84    C     0.52222   0.25495   0.19962   0.00000  Uiso   1.00
C85    C     0.97572   0.25347   0.20028   0.00000  Uiso   1.00
C86    C     0.52344   0.09339   0.10360   0.00000  Uiso   1.00
C87    C     0.74998   0.02175   0.16670   0.00000  Uiso   1.00
C88    C     0.75000   0.31159   0.16663   0.00000  Uiso   1.00
N89    N     0.95397   0.05652   0.07070   0.00000  Uiso   1.00
H90    H     0.96373   0.05987   0.02967   0.00000  Uiso   1.00
H91    H     0.96321   0.02109   0.08502   0.00000  Uiso   1.00
N92    N     0.54286   0.30046   0.21808   0.00000  Uiso   1.00
H93    H     0.56280   0.31534   0.18696   0.00000  Uiso   1.00
H94    H     0.56105   0.29378   0.25406   0.00000  Uiso   1.00
N95    N     0.95147   0.29792   0.21475   0.00000  Uiso   1.00
H96    H     0.96057   0.30847   0.25460   0.00000  Uiso   1.00
H97    H     0.96043   0.32665   0.18777   0.00000  Uiso   1.00
N98    N     0.54531   0.05579   0.07128   0.00000  Uiso   1.00
H99    H     0.55987   0.02902   0.09696   0.00000  Uiso   1.00
H100   H     0.56883   0.07246   0.04546   0.00000  Uiso   1.00
O101   O     0.88266   0.23723   0.22398   0.00000  Uiso   1.00
H102   H     0.89918   0.24089   0.25913   0.00000  Uiso   1.00
O103   O     0.61589   0.08412   0.12775   0.00000  Uiso   1.00
H104   H     0.64255   0.07981   0.15144   0.00000  Uiso   1.00
O105   O     0.88365   0.08731   0.11587   0.00000  Uiso   1.00
H106   H     0.85592   0.08139   0.13688   0.00000  Uiso   1.00
O107   O     0.61731   0.25126   0.20442   0.00000  Uiso   1.00
H108   H     0.64691   0.25377   0.18678   0.00000  Uiso   1.00
O109   O     0.25000   0.42845   0.21228   0.00000  Uiso   1.00
O110   O     0.25000   0.57155   0.12105   0.00000  Uiso   1.00
O111   O     0.25000   0.57155   0.21228   0.00000  Uiso   1.00
O112   O     0.25000   0.42845   0.12105   0.00000  Uiso   1.00
C113   C     0.24998   0.40602   0.16669   0.00000  Uiso   1.00
C114   C     0.25004   0.59398   0.16664   0.00000  Uiso   1.00
O115   O     0.18393   0.50000   0.21230   0.00000  Uiso   1.00
O116   O     0.31608   0.50000   0.12104   0.00000  Uiso   1.00
O117   O     0.31608   0.50000   0.21230   0.00000  Uiso   1.00
O118   O     0.18393   0.50000   0.12104   0.00000  Uiso   1.00
C119   C     0.16340   0.50016   0.16649   0.00000  Uiso   1.00
C120   C     0.33667   0.49976   0.16675   0.00000  Uiso   1.00
Zn121  Zn    0.25000   0.50000   0.22759   0.00000  Uiso   1.00
Zn122  Zn    0.25000   0.50000   0.10574   0.00000  Uiso   1.00
N123   N     0.25000   0.50000   0.02455   0.00000  Uiso   1.00
N124   N     0.25000   0.50000   0.30879   0.00000  Uiso   1.00
C125   C     0.40687   0.53804   0.19175   0.00000  Uiso   1.00
C126   C     0.09326   0.46071   0.14180   0.00000  Uiso   1.00
C127   C     0.40665   0.46110   0.13748   0.00000  Uiso   1.00
C128   C     0.09363   0.54457   0.18314   0.00000  Uiso   1.00
C129   C     0.38439   0.49886   0.16638   0.00000  Uiso   1.00
C130   C     0.11576   0.50134   0.16531   0.00000  Uiso   1.00
C131   C     0.45322   0.46373   0.13231   0.00000  Uiso   1.00
C132   C     0.04678   0.54610   0.18082   0.00000  Uiso   1.00
C133   C     0.45303   0.54306   0.18406   0.00000  Uiso   1.00
C134   C     0.04706   0.46378   0.13370   0.00000  Uiso   1.00
C135   C     0.47661   0.50402   0.15748   0.00000  Uiso   1.00
C136   C     0.02353   0.50483   0.15697   0.00000  Uiso   1.00
C137   C     0.47695   0.42711   0.10259   0.00000  Uiso   1.00
C138   C     0.02222   0.58829   0.19962   0.00000  Uiso   1.00
C139   C     0.47572   0.58681   0.20028   0.00000  Uiso   1.00
C140   C     0.02344   0.42672   0.10360   0.00000  Uiso   1.00
C141   C     0.24998   0.35508   0.16670   0.00000  Uiso   1.00
C142   C     0.25000   0.64492   0.16663   0.00000  Uiso   1.00
N143   N     0.45397   0.38985   0.07070   0.00000  Uiso   1.00
H144   H     0.46373   0.39321   0.02967   0.00000  Uiso   1.00
H145   H     0.46321   0.35442   0.08502   0.00000  Uiso   1.00
N146   N     0.04286   0.63379   0.21808   0.00000  Uiso   1.00
H147   H     0.06280   0.64867   0.18696   0.00000  Uiso   1.00
H148   H     0.06105   0.62711   0.25406   0.00000  Uiso   1.00
N149   N     0.45147   0.63125   0.21475   0.00000  Uiso   1.00
H150   H     0.46057   0.64180   0.25460   0.00000  Uiso   1.00
H151   H     0.46043   0.65998   0.18777   0.00000  Uiso   1.00
N152   N     0.04531   0.38913   0.07128   0.00000  Uiso   1.00
H153   H     0.05987   0.36235   0.09696   0.00000  Uiso   1.00
H154   H     0.06883   0.40580   0.04546   0.00000  Uiso   1.00
O155   O     0.38266   0.57056   0.22398   0.00000  Uiso   1.00
H156   H     0.39918   0.57422   0.25913   0.00000  Uiso   1.00
O157   O     0.11589   0.41745   0.12775   0.00000  Uiso   1.00
H158   H     0.14255   0.41314   0.15144   0.00000  Uiso   1.00
O159   O     0.38365   0.42064   0.11587   0.00000  Uiso   1.00
H160   H     0.35592   0.41472   0.13688   0.00000  Uiso   1.00
O161   O     0.11731   0.58459   0.20442   0.00000  Uiso   1.00
H162   H     0.14691   0.58710   0.18678   0.00000  Uiso   1.00
O163   O     0.75000   0.42845   0.21228   0.00000  Uiso   1.00
O164   O     0.75000   0.57155   0.12105   0.00000  Uiso   1.00
O165   O     0.75000   0.57155   0.21228   0.00000  Uiso   1.00
O166   O     0.75000   0.42845   0.12105   0.00000  Uiso   1.00
C167   C     0.74998   0.40602   0.16669   0.00000  Uiso   1.00
C168   C     0.75004   0.59398   0.16664   0.00000  Uiso   1.00
O169   O     0.68393   0.50000   0.21230   0.00000  Uiso   1.00
O170   O     0.81608   0.50000   0.12104   0.00000  Uiso   1.00
O171   O     0.81608   0.50000   0.21230   0.00000  Uiso   1.00
O172   O     0.68393   0.50000   0.12104   0.00000  Uiso   1.00
C173   C     0.66340   0.50016   0.16649   0.00000  Uiso   1.00
C174   C     0.83667   0.49976   0.16675   0.00000  Uiso   1.00
Zn175  Zn    0.75000   0.50000   0.22759   0.00000  Uiso   1.00
Zn176  Zn    0.75000   0.50000   0.10574   0.00000  Uiso   1.00
N177   N     0.75000   0.50000   0.02455   0.00000  Uiso   1.00
N178   N     0.75000   0.50000   0.30879   0.00000  Uiso   1.00
C179   C     0.90687   0.53804   0.19175   0.00000  Uiso   1.00
C180   C     0.59326   0.46071   0.14180   0.00000  Uiso   1.00
C181   C     0.90665   0.46110   0.13748   0.00000  Uiso   1.00
C182   C     0.59363   0.54457   0.18314   0.00000  Uiso   1.00
C183   C     0.88439   0.49886   0.16638   0.00000  Uiso   1.00
C184   C     0.61576   0.50134   0.16531   0.00000  Uiso   1.00
C185   C     0.95322   0.46373   0.13231   0.00000  Uiso   1.00
C186   C     0.54678   0.54610   0.18082   0.00000  Uiso   1.00
C187   C     0.95303   0.54306   0.18406   0.00000  Uiso   1.00
C188   C     0.54706   0.46378   0.13370   0.00000  Uiso   1.00
C189   C     0.97661   0.50402   0.15748   0.00000  Uiso   1.00
C190   C     0.52353   0.50483   0.15697   0.00000  Uiso   1.00
C191   C     0.97695   0.42711   0.10259   0.00000  Uiso   1.00
C192   C     0.52222   0.58829   0.19962   0.00000  Uiso   1.00
C193   C     0.97572   0.58681   0.20028   0.00000  Uiso   1.00
C194   C     0.52344   0.42672   0.10360   0.00000  Uiso   1.00
C195   C     0.74998   0.35508   0.16670   0.00000  Uiso   1.00
C196   C     0.75000   0.64492   0.16663   0.00000  Uiso   1.00
N197   N     0.95397   0.38985   0.07070   0.00000  Uiso   1.00
H198   H     0.96373   0.39321   0.02967   0.00000  Uiso   1.00
H199   H     0.96321   0.35442   0.08502   0.00000  Uiso   1.00
N200   N     0.54286   0.63379   0.21808   0.00000  Uiso   1.00
H201   H     0.56280   0.64867   0.18696   0.00000  Uiso   1.00
H202   H     0.56105   0.62711   0.25406   0.00000  Uiso   1.00
N203   N     0.95147   0.63125   0.21475   0.00000  Uiso   1.00
H204   H     0.96057   0.64180   0.25460   0.00000  Uiso   1.00
H205   H     0.96043   0.65998   0.18777   0.00000  Uiso   1.00
N206   N     0.54531   0.38913   0.07128   0.00000  Uiso   1.00
H207   H     0.55987   0.36235   0.09696   0.00000  Uiso   1.00
H208   H     0.56883   0.40580   0.04546   0.00000  Uiso   1.00
O209   O     0.88266   0.57056   0.22398   0.00000  Uiso   1.00
H210   H     0.89918   0.57422   0.25913   0.00000  Uiso   1.00
O211   O     0.61589   0.41745   0.12775   0.00000  Uiso   1.00
H212   H     0.64255   0.41314   0.15144   0.00000  Uiso   1.00
O213   O     0.88365   0.42064   0.11587   0.00000  Uiso   1.00
H214   H     0.85592   0.41472   0.13688   0.00000  Uiso   1.00
O215   O     0.61731   0.58459   0.20442   0.00000  Uiso   1.00
H216   H     0.64691   0.58710   0.18678   0.00000  Uiso   1.00
O217   O     0.25000   0.76178   0.21228   0.00000  Uiso   1.00
O218   O     0.25000   0.90488   0.12105   0.00000  Uiso   1.00
O219   O     0.25000   0.90488   0.21228   0.00000  Uiso   1.00
O220   O     0.25000   0.76178   0.12105   0.00000  Uiso   1.00
C221   C     0.24998   0.73936   0.16669   0.00000  Uiso   1.00
C222   C     0.25004   0.92731   0.16664   0.00000  Uiso   1.00
O223   O     0.18393   0.83333   0.21230   0.00000  Uiso   1.00
O224   O     0.31608   0.83333   0.12104   0.00000  Uiso   1.00
O225   O     0.31608   0.83333   0.21230   0.00000  Uiso   1.00
O226   O     0.18393   0.83333   0.12104   0.00000  Uiso   1.00
C227   C     0.16340   0.83350   0.16649   0.00000  Uiso   1.00
C228   C     0.33667   0.83309   0.16675   0.00000  Uiso   1.00
Zn229  Zn    0.25000   0.83333   0.22759   0.00000  Uiso   1.00
Zn230  Zn    0.25000   0.83333   0.10574   0.00000  Uiso   1.00
N231   N     0.25000   0.83333   0.02455   0.00000  Uiso   1.00
N232   N     0.25000   0.83333   0.30879   0.00000  Uiso   1.00
C233   C     0.40687   0.87137   0.19175   0.00000  Uiso   1.00
C234   C     0.09326   0.79404   0.14180   0.00000  Uiso   1.00
C235   C     0.40665   0.79443   0.13748   0.00000  Uiso   1.00
C236   C     0.09363   0.87791   0.18314   0.00000  Uiso   1.00
C237   C     0.38439   0.83220   0.16638   0.00000  Uiso   1.00
C238   C     0.11576   0.83468   0.16531   0.00000  Uiso   1.00
C239   C     0.45322   0.79706   0.13231   0.00000  Uiso   1.00
C240   C     0.04678   0.87944   0.18082   0.00000  Uiso   1.00
C241   C     0.45303   0.87640   0.18406   0.00000  Uiso   1.00
C242   C     0.04706   0.79711   0.13370   0.00000  Uiso   1.00
C243   C     0.47661   0.83735   0.15748   0.00000  Uiso   1.00
C244   C     0.02353   0.83817   0.15697   0.00000  Uiso   1.00
C245   C     0.47695   0.76044   0.10259   0.00000  Uiso   1.00
C246   C     0.02222   0.92162   0.19962   0.00000  Uiso   1.00
C247   C     0.47572   0.92014   0.20028   0.00000  Uiso   1.00
C248   C     0.02344   0.76006   0.10360   0.00000  Uiso   1.00
C249   C     0.24998   0.68842   0.16670   0.00000  Uiso   1.00
C250   C     0.25000   0.97825   0.16663   0.00000  Uiso   1.00
N251   N     0.45397   0.72318   0.07070   0.00000  Uiso   1.00
H252   H     0.46373   0.72654   0.02967   0.00000  Uiso   1.00
H253   H     0.46321   0.68776   0.08502   0.00000  Uiso   1.00
N254   N     0.04286   0.96712   0.21808   0.00000  Uiso   1.00
H255   H     0.06280   0.98201   0.18696   0.00000  Uiso   1.00
H256   H     0.06105   0.96045   0.25406   0.00000  Uiso   1.00
N257   N     0.45147   0.96459   0.21475   0.00000  Uiso   1.00
H258   H     0.46057   0.97514   0.25460   0.00000  Uiso   1.00
H259   H     0.46043   0.99332   0.18777   0.00000  Uiso   1.00
N260   N     0.04531   0.72246   0.07128   0.00000  Uiso   1.00
H261   H     0.05987   0.69568   0.09696   0.00000  Uiso   1.00
H262   H     0.06883   0.73913   0.04546   0.00000  Uiso   1.00
O263   O     0.38266   0.90389   0.22398   0.00000  Uiso   1.00
H264   H     0.39918   0.90755   0.25913   0.00000  Uiso   1.00
O265   O     0.11589   0.75079   0.12775   0.00000  Uiso   1.00
H266   H     0.14255   0.74648   0.15144   0.00000  Uiso   1.00
O267   O     0.38365   0.75397   0.11587   0.00000  Uiso   1.00
H268   H     0.35592   0.74805   0.13688   0.00000  Uiso   1.00
O269   O     0.11731   0.91793   0.20442   0.00000  Uiso   1.00
H270   H     0.14691   0.92044   0.18678   0.00000  Uiso   1.00
O271   O     0.75000   0.76178   0.21228   0.00000  Uiso   1.00
O272   O     0.75000   0.90488   0.12105   0.00000  Uiso   1.00
O273   O     0.75000   0.90488   0.21228   0.00000  Uiso   1.00
O274   O     0.75000   0.76178   0.12105   0.00000  Uiso   1.00
C275   C     0.74998   0.73936   0.16669   0.00000  Uiso   1.00
C276   C     0.75004   0.92731   0.16664   0.00000  Uiso   1.00
O277   O     0.68393   0.83333   0.21230   0.00000  Uiso   1.00
O278   O     0.81608   0.83333   0.12104   0.00000  Uiso   1.00
O279   O     0.81608   0.83333   0.21230   0.00000  Uiso   1.00
O280   O     0.68393   0.83333   0.12104   0.00000  Uiso   1.00
C281   C     0.66340   0.83350   0.16649   0.00000  Uiso   1.00
C282   C     0.83667   0.83309   0.16675   0.00000  Uiso   1.00
Zn283  Zn    0.75000   0.83333   0.22759   0.00000  Uiso   1.00
Zn284  Zn    0.75000   0.83333   0.10574   0.00000  Uiso   1.00
N285   N     0.75000   0.83333   0.02455   0.00000  Uiso   1.00
N286   N     0.75000   0.83333   0.30879   0.00000  Uiso   1.00
C287   C     0.90687   0.87137   0.19175   0.00000  Uiso   1.00
C288   C     0.59326   0.79404   0.14180   0.00000  Uiso   1.00
C289   C     0.90665   0.79443   0.13748   0.00000  Uiso   1.00
C290   C     0.59363   0.87791   0.18314   0.00000  Uiso   1.00
C291   C     0.88439   0.83220   0.16638   0.00000  Uiso   1.00
C292   C     0.61576   0.83468   0.16531   0.00000  Uiso   1.00
C293   C     0.95322   0.79706   0.13231   0.00000  Uiso   1.00
C294   C     0.54678   0.87944   0.18082   0.00000  Uiso   1.00
C295   C     0.95303   0.87640   0.18406   0.00000  Uiso   1.00
C296   C     0.54706   0.79711   0.13370   0.00000  Uiso   1.00
C297   C     0.97661   0.83735   0.15748   0.00000  Uiso   1.00
C298   C     0.52353   0.83817   0.15697   0.00000  Uiso   1.00
C299   C     0.97695   0.76044   0.10259   0.00000  Uiso   1.00
C300   C     0.52222   0.92162   0.19962   0.00000  Uiso   1.00
C301   C     0.97572   0.92014   0.20028   0.00000  Uiso   1.00
C302   C     0.52344   0.76006   0.10360   0.00000  Uiso   1.00
C303   C     0.74998   0.68842   0.16670   0.00000  Uiso   1.00
C304   C     0.75000   0.97825   0.16663   0.00000  Uiso   1.00
N305   N     0.95397   0.72318   0.07070   0.00000  Uiso   1.00
H306   H     0.96373   0.72654   0.02967   0.00000  Uiso   1.00
H307   H     0.96321   0.68776   0.08502   0.00000  Uiso   1.00
N308   N     0.54286   0.96712   0.21808   0.00000  Uiso   1.00
H309   H     0.56280   0.98201   0.18696   0.00000  Uiso   1.00
H310   H     0.56105   0.96045   0.25406   0.00000  Uiso   1.00
N311   N     0.95147   0.96459   0.21475   0.00000  Uiso   1.00
H312   H     0.96057   0.97514   0.25460   0.00000  Uiso   1.00
H313   H     0.96043   0.99332   0.18777   0.00000  Uiso   1.00
N314   N     0.54531   0.72246   0.07128   0.00000  Uiso   1.00
H315   H     0.55987   0.69568   0.09696   0.00000  Uiso   1.00
H316   H     0.56883   0.73913   0.04546   0.00000  Uiso   1.00
O317   O     0.88266   0.90389   0.22398   0.00000  Uiso   1.00
H318   H     0.89918   0.90755   0.25913   0.00000  Uiso   1.00
O319   O     0.61589   0.75079   0.12775   0.00000  Uiso   1.00
H320   H     0.64255   0.74648   0.15144   0.00000  Uiso   1.00
O321   O     0.88365   0.75397   0.11587   0.00000  Uiso   1.00
H322   H     0.85592   0.74805   0.13688   0.00000  Uiso   1.00
O323   O     0.61731   0.91793   0.20442   0.00000  Uiso   1.00
H324   H     0.64691   0.92044   0.18678   0.00000  Uiso   1.00
O325   O     0.25000   0.09512   0.54562   0.00000  Uiso   1.00
O326   O     0.25000   0.23822   0.45438   0.00000  Uiso   1.00
O327   O     0.25000   0.23822   0.54562   0.00000  Uiso   1.00
O328   O     0.25000   0.09512   0.45438   0.00000  Uiso   1.00
C329   C     0.24998   0.07269   0.50002   0.00000  Uiso   1.00
C330   C     0.25004   0.26064   0.49997   0.00000  Uiso   1.00
O331   O     0.18393   0.16667   0.54563   0.00000  Uiso   1.00
O332   O     0.31608   0.16667   0.45437   0.00000  Uiso   1.00
O333   O     0.31608   0.16667   0.54563   0.00000  Uiso   1.00
O334   O     0.18393   0.16667   0.45437   0.00000  Uiso   1.00
C335   C     0.16340   0.16683   0.49983   0.00000  Uiso   1.00
C336   C     0.33667   0.16642   0.50008   0.00000  Uiso   1.00
Zn337  Zn    0.25000   0.16667   0.56093   0.00000  Uiso   1.00
Zn338  Zn    0.25000   0.16667   0.43907   0.00000  Uiso   1.00
N339   N     0.25000   0.16667   0.35788   0.00000  Uiso   1.00
N340   N     0.25000   0.16667   0.64212   0.00000  Uiso   1.00
C341   C     0.40687   0.20470   0.52509   0.00000  Uiso   1.00
C342   C     0.09326   0.12738   0.47514   0.00000  Uiso   1.00
C343   C     0.40665   0.12777   0.47081   0.00000  Uiso   1.00
C344   C     0.09363   0.21124   0.51648   0.00000  Uiso   1.00
C345   C     0.38439   0.16553   0.49972   0.00000  Uiso   1.00
C346   C     0.11576   0.16801   0.49865   0.00000  Uiso   1.00
C347   C     0.45322   0.13039   0.46565   0.00000  Uiso   1.00
C348   C     0.04678   0.21277   0.51415   0.00000  Uiso   1.00
C349   C     0.45303   0.20973   0.51740   0.00000  Uiso   1.00
C350   C     0.04706   0.13045   0.46703   0.00000  Uiso   1.00
C351   C     0.47661   0.17068   0.49081   0.00000  Uiso   1.00
C352   C     0.02353   0.17150   0.49031   0.00000  Uiso   1.00
C353   C     0.47695   0.09377   0.43592   0.00000  Uiso   1.00
C354   C     0.02222   0.25495   0.53295   0.00000  Uiso   1.00
C355   C     0.47572   0.25347   0.53361   0.00000  Uiso   1.00
C356   C     0.02344   0.09339   0.43694   0.00000  Uiso   1.00
C357   C     0.24998   0.02175   0.50003   0.00000  Uiso   1.00
C358   C     0.25000   0.31159   0.49996   0.00000  Uiso   1.00
N359   N     0.45397   0.05652   0.40404   0.00000  Uiso   1.00
H360   H     0.46373   0.05987   0.36301   0.00000  Uiso   1.00
H361   H     0.46321   0.02109   0.41835   0.00000  Uiso   1.00
N362   N     0.04286   0.30046   0.55141   0.00000  Uiso   1.00
H363   H     0.06280   0.31534   0.52029   0.00000  Uiso   1.00
H364   H     0.06105   0.29378   0.58739   0.00000  Uiso   1.00
N365   N     0.45147   0.29792   0.54808   0.00000  Uiso   1.00
H366   H     0.46057   0.30847   0.58793   0.00000  Uiso   1.00
H367   H     0.46043   0.32665   0.52110   0.00000  Uiso   1.00
N368   N     0.04531   0.05579   0.40461   0.00000  Uiso   1.00
H369   H     0.05987   0.02902   0.43030   0.00000  Uiso   1.00
H370   H     0.06883   0.07246   0.37879   0.00000  Uiso   1.00
O371   O     0.38266   0.23723   0.55732   0.00000  Uiso   1.00
H372   H     0.39918   0.24089   0.59246   0.00000  Uiso   1.00
O373   O     0.11589   0.08412   0.46108   0.00000  Uiso   1.00
H374   H     0.14255   0.07981   0.48477   0.00000  Uiso   1.00
O375   O     0.38365   0.08731   0.44921   0.00000  Uiso   1.00
H376   H     0.35592   0.08139   0.47021   0.00000  Uiso   1.00
O377   O     0.11731   0.25126   0.53776   0.00000  Uiso   1.00
H378   H     0.14691   0.25377   0.52011   0.00000  Uiso   1.00
O379   O     0.75000   0.09512   0.54562   0.00000  Uiso   1.00
O380   O     0.75000   0.23822   0.45438   0.00000  Uiso   1.00
O381   O     0.75000   0.23822   0.54562   0.00000  Uiso   1.00
O382   O     0.75000   0.09512   0.45438   0.00000  Uiso   1.00
C383   C     0.74998   0.07269   0.50002   0.00000  Uiso   1.00
C384   C     0.75004   0.26064   0.49997   0.00000  Uiso   1.00
O385   O     0.68393   0.16667   0.54563   0.00000  Uiso   1.00
O386   O     0.81608   0.16667   0.45437   0.00000  Uiso   1.00
O387   O     0.81608   0.16667   0.54563   0.00000  Uiso   1.00
O388   O     0.68393   0.16667   0.45437   0.00000  Uiso   1.00
C389   C     0.66340   0.16683   0.49983   0.00000  Uiso   1.00
C390   C     0.83667   0.16642   0.50008   0.00000  Uiso   1.00
Zn391  Zn    0.75000   0.16667   0.56093   0.00000  Uiso   1.00
Zn392  Zn    0.75000   0.16667   0.43907   0.00000  Uiso   1.00
N393   N     0.75000   0.16667   0.35788   0.00000  Uiso   1.00
N394   N     0.75000   0.16667   0.64212   0.00000  Uiso   1.00
C395   C     0.90687   0.20470   0.52509   0.00000  Uiso   1.00
C396   C     0.59326   0.12738   0.47514   0.00000  Uiso   1.00
C397   C     0.90665   0.12777   0.47081   0.00000  Uiso   1.00
C398   C     0.59363   0.21124   0.51648   0.00000  Uiso   1.00
C399   C     0.88439   0.16553   0.49972   0.00000  Uiso   1.00
C400   C     0.61576   0.16801   0.49865   0.00000  Uiso   1.00
C401   C     0.95322   0.13039   0.46565   0.00000  Uiso   1.00
C402   C     0.54678   0.21277   0.51415   0.00000  Uiso   1.00
C403   C     0.95303   0.20973   0.51740   0.00000  Uiso   1.00
C404   C     0.54706   0.13045   0.46703   0.00000  Uiso   1.00
C405   C     0.97661   0.17068   0.49081   0.00000  Uiso   1.00
C406   C     0.52353   0.17150   0.49031   0.00000  Uiso   1.00
C407   C     0.97695   0.09377   0.43592   0.00000  Uiso   1.00
C408   C     0.52222   0.25495   0.53295   0.00000  Uiso   1.00
C409   C     0.97572   0.25347   0.53361   0.00000  Uiso   1.00
C410   C     0.52344   0.09339   0.43694   0.00000  Uiso   1.00
C411   C     0.74998   0.02175   0.50003   0.00000  Uiso   1.00
C412   C     0.75000   0.31159   0.49996   0.00000  Uiso   1.00
N413   N     0.95397   0.05652   0.40404   0.00000  Uiso   1.00
H414   H     0.96373   0.05987   0.36301   0.00000  Uiso   1.00
H415   H     0.96321   0.02109   0.41835   0.00000  Uiso   1.00
N416   N     0.54286   0.30046   0.55141   0.00000  Uiso   1.00
H417   H     0.56280   0.31534   0.52029   0.00000  Uiso   1.00
H418   H     0.56105   0.29378   0.58739   0.00000  Uiso   1.00
N419   N     0.95147   0.29792   0.54808   0.00000  Uiso   1.00
H420   H     0.96057   0.30847   0.58793   0.00000  Uiso   1.00
H421   H     0.96043   0.32665   0.52110   0.00000  Uiso   1.00
N422   N     0.54531   0.05579   0.40461   0.00000  Uiso   1.00
H423   H     0.55987   0.02902   0.43030   0.00000  Uiso   1.00
H424   H     0.56883   0.07246   0.37879   0.00000  Uiso   1.00
O425   O     0.88266   0.23723   0.55732   0.00000  Uiso   1.00
H426   H     0.89918   0.24089   0.59246   0.00000  Uiso   1.00
O427   O     0.61589   0.08412   0.46108   0.00000  Uiso   1.00
H428   H     0.64255   0.07981   0.48477   0.00000  Uiso   1.00
O429   O     0.88365   0.08731   0.44921   0.00000  Uiso   1.00
H430   H     0.85592   0.08139   0.47021   0.00000  Uiso   1.00
O431   O     0.61731   0.25126   0.53776   0.00000  Uiso   1.00
H432   H     0.64691   0.25377   0.52011   0.00000  Uiso   1.00
O433   O     0.25000   0.42845   0.54562   0.00000  Uiso   1.00
O434   O     0.25000   0.57155   0.45438   0.00000  Uiso   1.00
O435   O     0.25000   0.57155   0.54562   0.00000  Uiso   1.00
O436   O     0.25000   0.42845   0.45438   0.00000  Uiso   1.00
C437   C     0.24998   0.40602   0.50002   0.00000  Uiso   1.00
C438   C     0.25004   0.59398   0.49997   0.00000  Uiso   1.00
O439   O     0.18393   0.50000   0.54563   0.00000  Uiso   1.00
O440   O     0.31608   0.50000   0.45437   0.00000  Uiso   1.00
O441   O     0.31608   0.50000   0.54563   0.00000  Uiso   1.00
O442   O     0.18393   0.50000   0.45437   0.00000  Uiso   1.00
C443   C     0.16340   0.50016   0.49983   0.00000  Uiso   1.00
C444   C     0.33667   0.49976   0.50008   0.00000  Uiso   1.00
Zn445  Zn    0.25000   0.50000   0.56093   0.00000  Uiso   1.00
Zn446  Zn    0.25000   0.50000   0.43907   0.00000  Uiso   1.00
N447   N     0.25000   0.50000   0.35788   0.00000  Uiso   1.00
N448   N     0.25000   0.50000   0.64212   0.00000  Uiso   1.00
C449   C     0.40687   0.53804   0.52509   0.00000  Uiso   1.00
C450   C     0.09326   0.46071   0.47514   0.00000  Uiso   1.00
C451   C     0.40665   0.46110   0.47081   0.00000  Uiso   1.00
C452   C     0.09363   0.54457   0.51648   0.00000  Uiso   1.00
C453   C     0.38439   0.49886   0.49972   0.00000  Uiso   1.00
C454   C     0.11576   0.50134   0.49865   0.00000  Uiso   1.00
C455   C     0.45322   0.46373   0.46565   0.00000  Uiso   1.00
C456   C     0.04678   0.54610   0.51415   0.00000  Uiso   1.00
C457   C     0.45303   0.54306   0.51740   0.00000  Uiso   1.00
C458   C     0.04706   0.46378   0.46703   0.00000  Uiso   1.00
C459   C     0.47661   0.50402   0.49081   0.00000  Uiso   1.00
C460   C     0.02353   0.50483   0.49031   0.00000  Uiso   1.00
C461   C     0.47695   0.42711   0.43592   0.00000  Uiso   1.00
C462   C     0.02222   0.58829   0.53295   0.00000  Uiso   1.00
C463   C     0.47572   0.58681   0.53361   0.00000  Uiso   1.00
C464   C     0.02344   0.42672   0.43694   0.00000  Uiso   1.00
C465   C     0.24998   0.35508   0.50003   0.00000  Uiso   1.00
C466   C     0.25000   0.64492   0.49996   0.00000  Uiso   1.00
N467   N     0.45397   0.38985   0.40404   0.00000  Uiso   1.00
H468   H     0.46373   0.39321   0.36301   0.00000  Uiso   1.00
H469   H     0.46321   0.35442   0.41835   0.00000  Uiso   1.00
N470   N     0.04286   0.63379   0.55141   0.00000  Uiso   1.00
H471   H     0.06280   0.64867   0.52029   0.00000  Uiso   1.00
H472   H     0.06105   0.62711   0.58739   0.00000  Uiso   1.00
N473   N     0.45147   0.63125   0.54808   0.00000  Uiso   1.00
H474   H     0.46057   0.64180   0.58793   0.00000  Uiso   1.00
H475   H     0.46043   0.65998   0.52110   0.00000  Uiso   1.00
N476   N     0.04531   0.38913   0.40461   0.00000  Uiso   1.00
H477   H     0.05987   0.36235   0.43030   0.00000  Uiso   1.00
H478   H     0.06883   0.40580   0.37879   0.00000  Uiso   1.00
O479   O     0.38266   0.57056   0.55732   0.00000  Uiso   1.00
H480   H     0.39918   0.57422   0.59246   0.00000  Uiso   1.00
O481   O     0.11589   0.41745   0.46108   0.00000  Uiso   1.00
H482   H     0.14255   0.41314   0.48477   0.00000  Uiso   1.00
O483   O     0.38365   0.42064   0.44921   0.00000  Uiso   1.00
H484   H     0.35592   0.41472   0.47021   0.00000  Uiso   1.00
O485   O     0.11731   0.58459   0.53776   0.00000  Uiso   1.00
H486   H     0.14691   0.58710   0.52011   0.00000  Uiso   1.00
O487   O     0.75000   0.42845   0.54562   0.00000  Uiso   1.00
O488   O     0.75000   0.57155   0.45438   0.00000  Uiso   1.00
O489   O     0.75000   0.57155   0.54562   0.00000  Uiso   1.00
O490   O     0.75000   0.42845   0.45438   0.00000  Uiso   1.00
C491   C     0.74998   0.40602   0.50002   0.00000  Uiso   1.00
C492   C     0.75004   0.59398   0.49997   0.00000  Uiso   1.00
O493   O     0.68393   0.50000   0.54563   0.00000  Uiso   1.00
O494   O     0.81608   0.50000   0.45437   0.00000  Uiso   1.00
O495   O     0.81608   0.50000   0.54563   0.00000  Uiso   1.00
O496   O     0.68393   0.50000   0.45437   0.00000  Uiso   1.00
C497   C     0.66340   0.50016   0.49983   0.00000  Uiso   1.00
C498   C     0.83667   0.49976   0.50008   0.00000  Uiso   1.00
Zn499  Zn    0.75000   0.50000   0.56093   0.00000  Uiso   1.00
Zn500  Zn    0.75000   0.50000   0.43907   0.00000  Uiso   1.00
N501   N     0.75000   0.50000   0.35788   0.00000  Uiso   1.00
N502   N     0.75000   0.50000   0.64212   0.00000  Uiso   1.00
C503   C     0.90687   0.53804   0.52509   0.00000  Uiso   1.00
C504   C     0.59326   0.46071   0.47514   0.00000  Uiso   1.00
C505   C     0.90665   0.46110   0.47081   0.00000  Uiso   1.00
C506   C     0.59363   0.54457   0.51648   0.00000  Uiso   1.00
C507   C     0.88439   0.49886   0.49972   0.00000  Uiso   1.00
C508   C     0.61576   0.50134   0.49865   0.00000  Uiso   1.00
C509   C     0.95322   0.46373   0.46565   0.00000  Uiso   1.00
C510   C     0.54678   0.54610   0.51415   0.00000  Uiso   1.00
C511   C     0.95303   0.54306   0.51740   0.00000  Uiso   1.00
C512   C     0.54706   0.46378   0.46703   0.00000  Uiso   1.00
C513   C     0.97661   0.50402   0.49081   0.00000  Uiso   1.00
C514   C     0.52353   0.50483   0.49031   0.00000  Uiso   1.00
C515   C     0.97695   0.42711   0.43592   0.00000  Uiso   1.00
C516   C     0.52222   0.58829   0.53295   0.00000  Uiso   1.00
C517   C     0.97572   0.58681   0.53361   0.00000  Uiso   1.00
C518   C     0.52344   0.42672   0.43694   0.00000  Uiso   1.00
C519   C     0.74998   0.35508   0.50003   0.00000  Uiso   1.00
C520   C     0.75000   0.64492   0.49996   0.00000  Uiso   1.00
N521   N     0.95397   0.38985   0.40404   0.00000  Uiso   1.00
H522   H     0.96373   0.39321   0.36301   0.00000  Uiso   1.00
H523   H     0.96321   0.35442   0.41835   0.00000  Uiso   1.00
N524   N     0.54286   0.63379   0.55141   0.00000  Uiso   1.00
H525   H     0.56280   0.64867   0.52029   0.00000  Uiso   1.00
H526   H     0.56105   0.62711   0.58739   0.00000  Uiso   1.00
N527   N     0.95147   0.63125   0.54808   0.00000  Uiso   1.00
H528   H     0.96057   0.64180   0.58793   0.00000  Uiso   1.00
H529   H     0.96043   0.65998   0.52110   0.00000  Uiso   1.00
N530   N     0.54531   0.38913   0.40461   0.00000  Uiso   1.00
H531   H     0.55987   0.36235   0.43030   0.00000  Uiso   1.00
H532   H     0.56883   0.40580   0.37879   0.00000  Uiso   1.00
O533   O     0.88266   0.57056   0.55732   0.00000  Uiso   1.00
H534   H     0.89918   0.57422   0.59246   0.00000  Uiso   1.00
O535   O     0.61589   0.41745   0.46108   0.00000  Uiso   1.00
H536   H     0.64255   0.41314   0.48477   0.00000  Uiso   1.00
O537   O     0.88365   0.42064   0.44921   0.00000  Uiso   1.00
H538   H     0.85592   0.41472   0.47021   0.00000  Uiso   1.00
O539   O     0.61731   0.58459   0.53776   0.00000  Uiso   1.00
H540   H     0.64691   0.58710   0.52011   0.00000  Uiso   1.00
O541   O     0.25000   0.76178   0.54562   0.00000  Uiso   1.00
O542   O     0.25000   0.90488   0.45438   0.00000  Uiso   1.00
O543   O     0.25000   0.90488   0.54562   0.00000  Uiso   1.00
O544   O     0.25000   0.76178   0.45438   0.00000  Uiso   1.00
C545   C     0.24998   0.73936   0.50002   0.00000  Uiso   1.00
C546   C     0.25004   0.92731   0.49997   0.00000  Uiso   1.00
O547   O     0.18393   0.83333   0.54563   0.00000  Uiso   1.00
O548   O     0.31608   0.83333   0.45437   0.00000  Uiso   1.00
O549   O     0.31608   0.83333   0.54563   0.00000  Uiso   1.00
O550   O     0.18393   0.83333   0.45437   0.00000  Uiso   1.00
C551   C     0.16340   0.83350   0.49983   0.00000  Uiso   1.00
C552   C     0.33667   0.83309   0.50008   0.00000  Uiso   1.00
Zn553  Zn    0.25000   0.83333   0.56093   0.00000  Uiso   1.00
Zn554  Zn    0.25000   0.83333   0.43907   0.00000  Uiso   1.00
N555   N     0.25000   0.83333   0.35788   0.00000  Uiso   1.00
N556   N     0.25000   0.83333   0.64212   0.00000  Uiso   1.00
C557   C     0.40687   0.87137   0.52509   0.00000  Uiso   1.00
C558   C     0.09326   0.79404   0.47514   0.00000  Uiso   1.00
C559   C     0.40665   0.79443   0.47081   0.00000  Uiso   1.00
C560   C     0.09363   0.87791   0.51648   0.00000  Uiso   1.00
C561   C     0.38439   0.83220   0.49972   0.00000  Uiso   1.00
C562   C     0.11576   0.83468   0.49865   0.00000  Uiso   1.00
C563   C     0.45322   0.79706   0.46565   0.00000  Uiso   1.00
C564   C     0.04678   0.87944   0.51415   0.00000  Uiso   1.00
C565   C     0.45303   0.87640   0.51740   0.00000  Uiso   1.00
C566   C     0.04706   0.79711   0.46703   0.00000  Uiso   1.00
C567   C     0.47661   0.83735   0.49081   0.00000  Uiso   1.00
C568   C     0.02353   0.83817   0.49031   0.00000  Uiso   1.00
C569   C     0.47695   0.76044   0.43592   0.00000  Uiso   1.00
C570   C     0.02222   0.92162   0.53295   0.00000  Uiso   1.00
C571   C     0.47572   0.92014   0.53361   0.00000  Uiso   1.00
C572   C     0.02344   0.76006   0.43694   0.00000  Uiso   1.00
C573   C     0.24998   0.68842   0.50003   0.00000  Uiso   1.00
C574   C     0.25000   0.97825   0.49996   0.00000  Uiso   1.00
N575   N     0.45397   0.72318   0.40404   0.00000  Uiso   1.00
H576   H     0.46373   0.72654   0.36301   0.00000  Uiso   1.00
H577   H     0.46321   0.68776   0.41835   0.00000  Uiso   1.00
N578   N     0.04286   0.96712   0.55141   0.00000  Uiso   1.00
H579   H     0.06280   0.98201   0.52029   0.00000  Uiso   1.00
H580   H     0.06105   0.96045   0.58739   0.00000  Uiso   1.00
N581   N     0.45147   0.96459   0.54808   0.00000  Uiso   1.00
H582   H     0.46057   0.97514   0.58793   0.00000  Uiso   1.00
H583   H     0.46043   0.99332   0.52110   0.00000  Uiso   1.00
N584   N     0.04531   0.72246   0.40461   0.00000  Uiso   1.00
H585   H     0.05987   0.69568   0.43030   0.00000  Uiso   1.00
H586   H     0.06883   0.73913   0.37879   0.00000  Uiso   1.00
O587   O     0.38266   0.90389   0.55732   0.00000  Uiso   1.00
H588   H     0.39918   0.90755   0.59246   0.00000  Uiso   1.00
O589   O     0.11589   0.75079   0.46108   0.00000  Uiso   1.00
H590   H     0.14255   0.74648   0.48477   0.00000  Uiso   1.00
O591   O     0.38365   0.75397   0.44921   0.00000  Uiso   1.00
H592   H     0.35592   0.74805   0.47021   0.00000  Uiso   1.00
O593   O     0.11731   0.91793   0.53776   0.00000  Uiso   1.00
H594   H     0.14691   0.92044   0.52011   0.00000  Uiso   1.00
O595   O     0.75000   0.76178   0.54562   0.00000  Uiso   1.00
O596   O     0.75000   0.90488   0.45438   0.00000  Uiso   1.00
O597   O     0.75000   0.90488   0.54562   0.00000  Uiso   1.00
O598   O     0.75000   0.76178   0.45438   0.00000  Uiso   1.00
C599   C     0.74998   0.73936   0.50002   0.00000  Uiso   1.00
C600   C     0.75004   0.92731   0.49997   0.00000  Uiso   1.00
O601   O     0.68393   0.83333   0.54563   0.00000  Uiso   1.00
O602   O     0.81608   0.83333   0.45437   0.00000  Uiso   1.00
O603   O     0.81608   0.83333   0.54563   0.00000  Uiso   1.00
O604   O     0.68393   0.83333   0.45437   0.00000  Uiso   1.00
C605   C     0.66340   0.83350   0.49983   0.00000  Uiso   1.00
C606   C     0.83667   0.83309   0.50008   0.00000  Uiso   1.00
Zn607  Zn    0.75000   0.83333   0.56093   0.00000  Uiso   1.00
Zn608  Zn    0.75000   0.83333   0.43907   0.00000  Uiso   1.00
N609   N     0.75000   0.83333   0.35788   0.00000  Uiso   1.00
N610   N     0.75000   0.83333   0.64212   0.00000  Uiso   1.00
C611   C     0.90687   0.87137   0.52509   0.00000  Uiso   1.00
C612   C     0.59326   0.79404   0.47514   0.00000  Uiso   1.00
C613   C     0.90665   0.79443   0.47081   0.00000  Uiso   1.00
C614   C     0.59363   0.87791   0.51648   0.00000  Uiso   1.00
C615   C     0.88439   0.83220   0.49972   0.00000  Uiso   1.00
C616   C     0.61576   0.83468   0.49865   0.00000  Uiso   1.00
C617   C     0.95322   0.79706   0.46565   0.00000  Uiso   1.00
C618   C     0.54678   0.87944   0.51415   0.00000  Uiso   1.00
C619   C     0.95303   0.87640   0.51740   0.00000  Uiso   1.00
C620   C     0.54706   0.79711   0.46703   0.00000  Uiso   1.00
C621   C     0.97661   0.83735   0.49081   0.00000  Uiso   1.00
C622   C     0.52353   0.83817   0.49031   0.00000  Uiso   1.00
C623   C     0.97695   0.76044   0.43592   0.00000  Uiso   1.00
C624   C     0.52222   0.92162   0.53295   0.00000  Uiso   1.00
C625   C     0.97572   0.92014   0.53361   0.00000  Uiso   1.00
C626   C     0.52344   0.76006   0.43694   0.00000  Uiso   1.00
C627   C     0.74998   0.68842   0.50003   0.00000  Uiso   1.00
C628   C     0.75000   0.97825   0.49996   0.00000  Uiso   1.00
N629   N     0.95397   0.72318   0.40404   0.00000  Uiso   1.00
H630   H     0.96373   0.72654   0.36301   0.00000  Uiso   1.00
H631   H     0.96321   0.68776   0.41835   0.00000  Uiso   1.00
N632   N     0.54286   0.96712   0.55141   0.00000  Uiso   1.00
H633   H     0.56280   0.98201   0.52029   0.00000  Uiso   1.00
H634   H     0.56105   0.96045   0.58739   0.00000  Uiso   1.00
N635   N     0.95147   0.96459   0.54808   0.00000  Uiso   1.00
H636   H     0.96057   0.97514   0.58793   0.00000  Uiso   1.00
H637   H     0.96043   0.99332   0.52110   0.00000  Uiso   1.00
N638   N     0.54531   0.72246   0.40461   0.00000  Uiso   1.00
H639   H     0.55987   0.69568   0.43030   0.00000  Uiso   1.00
H640   H     0.56883   0.73913   0.37879   0.00000  Uiso   1.00
O641   O     0.88266   0.90389   0.55732   0.00000  Uiso   1.00
H642   H     0.89918   0.90755   0.59246   0.00000  Uiso   1.00
O643   O     0.61589   0.75079   0.46108   0.00000  Uiso   1.00
H644   H     0.64255   0.74648   0.48477   0.00000  Uiso   1.00
O645   O     0.88365   0.75397   0.44921   0.00000  Uiso   1.00
H646   H     0.85592   0.74805   0.47021   0.00000  Uiso   1.00
O647   O     0.61731   0.91793   0.53776   0.00000  Uiso   1.00
H648   H     0.64691   0.92044   0.52011   0.00000  Uiso   1.00
O649   O     0.25000   0.09512   0.87895   0.00000  Uiso   1.00
O650   O     0.25000   0.23822   0.78772   0.00000  Uiso   1.00
O651   O     0.25000   0.23822   0.87895   0.00000  Uiso   1.00
O652   O     0.25000   0.09512   0.78772   0.00000  Uiso   1.00
C653   C     0.24998   0.07269   0.83336   0.00000  Uiso   1.00
C654   C     0.25004   0.26064   0.83331   0.00000  Uiso   1.00
O655   O     0.18393   0.16667   0.87896   0.00000  Uiso   1.00
O656   O     0.31608   0.16667   0.78770   0.00000  Uiso   1.00
O657   O     0.31608   0.16667   0.87896   0.00000  Uiso   1.00
O658   O     0.18393   0.16667   0.78770   0.00000  Uiso   1.00
C659   C     0.16340   0.16683   0.83316   0.00000  Uiso   1.00
C660   C     0.33667   0.16642   0.83341   0.00000  Uiso   1.00
Zn661  Zn    0.25000   0.16667   0.89426   0.00000  Uiso   1.00
Zn662  Zn    0.25000   0.16667   0.77241   0.00000  Uiso   1.00
N663   N     0.25000   0.16667   0.69121   0.00000  Uiso   1.00
N664   N     0.25000   0.16667   0.97545   0.00000  Uiso   1.00
C665   C     0.40687   0.20470   0.85842   0.00000  Uiso   1.00
C666   C     0.09326   0.12738   0.80847   0.00000  Uiso   1.00
C667   C     0.40665   0.12777   0.80414   0.00000  Uiso   1.00
C668   C     0.09363   0.21124   0.84981   0.00000  Uiso   1.00
C669   C     0.38439   0.16553   0.83305   0.00000  Uiso   1.00
C670   C     0.11576   0.16801   0.83198   0.00000  Uiso   1.00
C671   C     0.45322   0.13039   0.79898   0.00000  Uiso   1.00
C672   C     0.04678   0.21277   0.84749   0.00000  Uiso   1.00
C673   C     0.45303   0.20973   0.85073   0.00000  Uiso   1.00
C674   C     0.04706   0.13045   0.80037   0.00000  Uiso   1.00
C675   C     0.47661   0.17068   0.82414   0.00000  Uiso   1.00
C676   C     0.02353   0.17150   0.82364   0.00000  Uiso   1.00
C677   C     0.47695   0.09377   0.76926   0.00000  Uiso   1.00
C678   C     0.02222   0.25495   0.86629   0.00000  Uiso   1.00
C679   C     0.47572   0.25347   0.86695   0.00000  Uiso   1.00
C680   C     0.02344   0.09339   0.77027   0.00000  Uiso   1.00
C681   C     0.24998   0.02175   0.83337   0.00000  Uiso   1.00
C682   C     0.25000   0.31159   0.83330   0.00000  Uiso   1.00
N683   N     0.45397   0.05652   0.73737   0.00000  Uiso   1.00
H684   H     0.46373   0.05987   0.69634   0.00000  Uiso   1.00
H685   H     0.46321   0.02109   0.75169   0.00000  Uiso   1.00
N686   N     0.04286   0.30046   0.88475   0.00000  Uiso   1.00
H687   H     0.06280   0.31534   0.85362   0.00000  Uiso   1.00
H688   H     0.06105   0.29378   0.92073   0.00000  Uiso   1.00
N689   N     0.45147   0.29792   0.88142   0.00000  Uiso   1.00
H690   H     0.46057   0.30847   0.92126   0.00000  Uiso   1.00
H691   H     0.46043   0.32665   0.85444   0.00000  Uiso   1.00
N692   N     0.04531   0.05579   0.73795   0.00000  Uiso   1.00
H693   H     0.05987   0.02902   0.76363   0.00000  Uiso   1.00
H694   H     0.06883   0.07246   0.71213   0.00000  Uiso   1.00
O695   O     0.38266   0.23723   0.89065   0.00000  Uiso   1.00
H696   H     0.39918   0.24089   0.92580   0.00000  Uiso   1.00
O697   O     0.11589   0.08412   0.79441   0.00000  Uiso   1.00
H698   H     0.14255   0.07981   0.81810   0.00000  Uiso   1.00
O699   O     0.38365   0.08731   0.78254   0.00000  Uiso   1.00
H700   H     0.35592   0.08139   0.80354   0.00000  Uiso   1.00
O701   O     0.11731   0.25126   0.87109   0.00000  Uiso   1.00
H702   H     0.14691   0.25377   0.85344   0.00000  Uiso   1.00
O703   O     0.75000   0.09512   0.87895   0.00000  Uiso   1.00
O704   O     0.75000   0.23822   0.78772   0.00000  Uiso   1.00
O705   O     0.75000   0.23822   0.87895   0.00000  Uiso   1.00
O706   O     0.75000   0.09512   0.78772   0.00000  Uiso   1.00
C707   C     0.74998   0.07269   0.83336   0.00000  Uiso   1.00
C708   C     0.75004   0.26064   0.83331   0.00000  Uiso   1.00
O709   O     0.68393   0.16667   0.87896   0.00000  Uiso   1.00
O710   O     0.81608   0.16667   0.78770   0.00000  Uiso   1.00
O711   O     0.81608   0.16667   0.87896   0.00000  Uiso   1.00
O712   O     0.68393   0.16667   0.78770   0.00000  Uiso   1.00
C713   C     0.66340   0.16683   0.83316   0.00000  Uiso   1.00
C714   C     0.83667   0.16642   0.83341   0.00000  Uiso   1.00
Zn715  Zn    0.75000   0.16667   0.89426   0.00000  Uiso   1.00
Zn716  Zn    0.75000   0.16667   0.77241   0.00000  Uiso   1.00
N717   N     0.75000   0.16667   0.69121   0.00000  Uiso   1.00
N718   N     0.75000   0.16667   0.97545   0.00000  Uiso   1.00
C719   C     0.90687   0.20470   0.85842   0.00000  Uiso   1.00
C720   C     0.59326   0.12738   0.80847   0.00000  Uiso   1.00
C721   C     0.90665   0.12777   0.80414   0.00000  Uiso   1.00
C722   C     0.59363   0.21124   0.84981   0.00000  Uiso   1.00
C723   C     0.88439   0.16553   0.83305   0.00000  Uiso   1.00
C724   C     0.61576   0.16801   0.83198   0.00000  Uiso   1.00
C725   C     0.95322   0.13039   0.79898   0.00000  Uiso   1.00
C726   C     0.54678   0.21277   0.84749   0.00000  Uiso   1.00
C727   C     0.95303   0.20973   0.85073   0.00000  Uiso   1.00
C728   C     0.54706   0.13045   0.80037   0.00000  Uiso   1.00
C729   C     0.97661   0.17068   0.82414   0.00000  Uiso   1.00
C730   C     0.52353   0.17150   0.82364   0.00000  Uiso   1.00
C731   C     0.97695   0.09377   0.76926   0.00000  Uiso   1.00
C732   C     0.52222   0.25495   0.86629   0.00000  Uiso   1.00
C733   C     0.97572   0.25347   0.86695   0.00000  Uiso   1.00
C734   C     0.52344   0.09339   0.77027   0.00000  Uiso   1.00
C735   C     0.74998   0.02175   0.83337   0.00000  Uiso   1.00
C736   C     0.75000   0.31159   0.83330   0.00000  Uiso   1.00
N737   N     0.95397   0.05652   0.73737   0.00000  Uiso   1.00
H738   H     0.96373   0.05987   0.69634   0.00000  Uiso   1.00
H739   H     0.96321   0.02109   0.75169   0.00000  Uiso   1.00
N740   N     0.54286   0.30046   0.88475   0.00000  Uiso   1.00
H741   H     0.56280   0.31534   0.85362   0.00000  Uiso   1.00
H742   H     0.56105   0.29378   0.92073   0.00000  Uiso   1.00
N743   N     0.95147   0.29792   0.88142   0.00000  Uiso   1.00
H744   H     0.96057   0.30847   0.92126   0.00000  Uiso   1.00
H745   H     0.96043   0.32665   0.85444   0.00000  Uiso   1.00
N746   N     0.54531   0.05579   0.73795   0.00000  Uiso   1.00
H747   H     0.55987   0.02902   0.76363   0.00000  Uiso   1.00
H748   H     0.56883   0.07246   0.71213   0.00000  Uiso   1.00
O749   O     0.88266   0.23723   0.89065   0.00000  Uiso   1.00
H750   H     0.89918   0.24089   0.92580   0.00000  Uiso   1.00
O751   O     0.61589   0.08412   0.79441   0.00000  Uiso   1.00
H752   H     0.64255   0.07981   0.81810   0.00000  Uiso   1.00
O753   O     0.88365   0.08731   0.78254   0.00000  Uiso   1.00
H754   H     0.85592   0.08139   0.80354   0.00000  Uiso   1.00
O755   O     0.61731   0.25126   0.87109   0.00000  Uiso   1.00
H756   H     0.64691   0.25377   0.85344   0.00000  Uiso   1.00
O757   O     0.25000   0.42845   0.87895   0.00000  Uiso   1.00
O758   O     0.25000   0.57155   0.78772   0.00000  Uiso   1.00
O759   O     0.25000   0.57155   0.87895   0.00000  Uiso   1.00
O760   O     0.25000   0.42845   0.78772   0.00000  Uiso   1.00
C761   C     0.24998   0.40602   0.83336   0.00000  Uiso   1.00
C762   C     0.25004   0.59398   0.83331   0.00000  Uiso   1.00
O763   O     0.18393   0.50000   0.87896   0.00000  Uiso   1.00
O764   O     0.31608   0.50000   0.78770   0.00000  Uiso   1.00
O765   O     0.31608   0.50000   0.87896   0.00000  Uiso   1.00
O766   O     0.18393   0.50000   0.78770   0.00000  Uiso   1.00
C767   C     0.16340   0.50016   0.83316   0.00000  Uiso   1.00
C768   C     0.33667   0.49976   0.83341   0.00000  Uiso   1.00
Zn769  Zn    0.25000   0.50000   0.89426   0.00000  Uiso   1.00
Zn770  Zn    0.25000   0.50000   0.77241   0.00000  Uiso   1.00
N771   N     0.25000   0.50000   0.69121   0.00000  Uiso   1.00
N772   N     0.25000   0.50000   0.97545   0.00000  Uiso   1.00
C773   C     0.40687   0.53804   0.85842   0.00000  Uiso   1.00
C774   C     0.09326   0.46071   0.80847   0.00000  Uiso   1.00
C775   C     0.40665   0.46110   0.80414   0.00000  Uiso   1.00
C776   C     0.09363   0.54457   0.84981   0.00000  Uiso   1.00
C777   C     0.38439   0.49886   0.83305   0.00000  Uiso   1.00
C778   C     0.11576   0.50134   0.83198   0.00000  Uiso   1.00
C779   C     0.45322   0.46373   0.79898   0.00000  Uiso   1.00
C780   C     0.04678   0.54610   0.84749   0.00000  Uiso   1.00
C781   C     0.45303   0.54306   0.85073   0.00000  Uiso   1.00
C782   C     0.04706   0.46378   0.80037   0.00000  Uiso   1.00
C783   C     0.47661   0.50402   0.82414   0.00000  Uiso   1.00
C784   C     0.02353   0.50483   0.82364   0.00000  Uiso   1.00
C785   C     0.47695   0.42711   0.76926   0.00000  Uiso   1.00
C786   C     0.02222   0.58829   0.86629   0.00000  Uiso   1.00
C787   C     0.47572   0.58681   0.86695   0.00000  Uiso   1.00
C788   C     0.02344   0.42672   0.77027   0.00000  Uiso   1.00
C789   C     0.24998   0.35508   0.83337   0.00000  Uiso   1.00
C790   C     0.25000   0.64492   0.83330   0.00000  Uiso   1.00
N791   N     0.45397   0.38985   0.73737   0.00000  Uiso   1.00
H792   H     0.46373   0.39321   0.69634   0.00000  Uiso   1.00
H793   H     0.46321   0.35442   0.75169   0.00000  Uiso   1.00
N794   N     0.04286   0.63379   0.88475   0.00000  Uiso   1.00
H795   H     0.06280   0.64867   0.85362   0.00000  Uiso   1.00
H796   H     0.06105   0.62711   0.92073   0.00000  Uiso   1.00
N797   N     0.45147   0.63125   0.88142   0.00000  Uiso   1.00
H798   H     0.46057   0.64180   0.92126   0.00000  Uiso   1.00
H799   H     0.46043   0.65998   0.85444   0.00000  Uiso   1.00
N800   N     0.04531   0.38913   0.73795   0.00000  Uiso   1.00
H801   H     0.05987   0.36235   0.76363   0.00000  Uiso   1.00
H802   H     0.06883   0.40580   0.71213   0.00000  Uiso   1.00
O803   O     0.38266   0.57056   0.89065   0.00000  Uiso   1.00
H804   H     0.39918   0.57422   0.92580   0.00000  Uiso   1.00
O805   O     0.11589   0.41745   0.79441   0.00000  Uiso   1.00
H806   H     0.14255   0.41314   0.81810   0.00000  Uiso   1.00
O807   O     0.38365   0.42064   0.78254   0.00000  Uiso   1.00
H808   H     0.35592   0.41472   0.80354   0.00000  Uiso   1.00
O809   O     0.11731   0.58459   0.87109   0.00000  Uiso   1.00
H810   H     0.14691   0.58710   0.85344   0.00000  Uiso   1.00
O811   O     0.75000   0.42845   0.87895   0.00000  Uiso   1.00
O812   O     0.75000   0.57155   0.78772   0.00000  Uiso   1.00
O813   O     0.75000   0.57155   0.87895   0.00000  Uiso   1.00
O814   O     0.75000   0.42845   0.78772   0.00000  Uiso   1.00
C815   C     0.74998   0.40602   0.83336   0.00000  Uiso   1.00
C816   C     0.75004   0.59398   0.83331   0.00000  Uiso   1.00
O817   O     0.68393   0.50000   0.87896   0.00000  Uiso   1.00
O818   O     0.81608   0.50000   0.78770   0.00000  Uiso   1.00
O819   O     0.81608   0.50000   0.87896   0.00000  Uiso   1.00
O820   O     0.68393   0.50000   0.78770   0.00000  Uiso   1.00
C821   C     0.66340   0.50016   0.83316   0.00000  Uiso   1.00
C822   C     0.83667   0.49976   0.83341   0.00000  Uiso   1.00
Zn823  Zn    0.75000   0.50000   0.89426   0.00000  Uiso   1.00
Zn824  Zn    0.75000   0.50000   0.77241   0.00000  Uiso   1.00
N825   N     0.75000   0.50000   0.69121   0.00000  Uiso   1.00
N826   N     0.75000   0.50000   0.97545   0.00000  Uiso   1.00
C827   C     0.90687   0.53804   0.85842   0.00000  Uiso   1.00
C828   C     0.59326   0.46071   0.80847   0.00000  Uiso   1.00
C829   C     0.90665   0.46110   0.80414   0.00000  Uiso   1.00
C830   C     0.59363   0.54457   0.84981   0.00000  Uiso   1.00
C831   C     0.88439   0.49886   0.83305   0.00000  Uiso   1.00
C832   C     0.61576   0.50134   0.83198   0.00000  Uiso   1.00
C833   C     0.95322   0.46373   0.79898   0.00000  Uiso   1.00
C834   C     0.54678   0.54610   0.84749   0.00000  Uiso   1.00
C835   C     0.95303   0.54306   0.85073   0.00000  Uiso   1.00
C836   C     0.54706   0.46378   0.80037   0.00000  Uiso   1.00
C837   C     0.97661   0.50402   0.82414   0.00000  Uiso   1.00
C838   C     0.52353   0.50483   0.82364   0.00000  Uiso   1.00
C839   C     0.97695   0.42711   0.76926   0.00000  Uiso   1.00
C840   C     0.52222   0.58829   0.86629   0.00000  Uiso   1.00
C841   C     0.97572   0.58681   0.86695   0.00000  Uiso   1.00
C842   C     0.52344   0.42672   0.77027   0.00000  Uiso   1.00
C843   C     0.74998   0.35508   0.83337   0.00000  Uiso   1.00
C844   C     0.75000   0.64492   0.83330   0.00000  Uiso   1.00
N845   N     0.95397   0.38985   0.73737   0.00000  Uiso   1.00
H846   H     0.96373   0.39321   0.69634   0.00000  Uiso   1.00
H847   H     0.96321   0.35442   0.75169   0.00000  Uiso   1.00
N848   N     0.54286   0.63379   0.88475   0.00000  Uiso   1.00
H849   H     0.56280   0.64867   0.85362   0.00000  Uiso   1.00
H850   H     0.56105   0.62711   0.92073   0.00000  Uiso   1.00
N851   N     0.95147   0.63125   0.88142   0.00000  Uiso   1.00
H852   H     0.96057   0.64180   0.92126   0.00000  Uiso   1.00
H853   H     0.96043   0.65998   0.85444   0.00000  Uiso   1.00
N854   N     0.54531   0.38913   0.73795   0.00000  Uiso   1.00
H855   H     0.55987   0.36235   0.76363   0.00000  Uiso   1.00
H856   H     0.56883   0.40580   0.71213   0.00000  Uiso   1.00
O857   O     0.88266   0.57056   0.89065   0.00000  Uiso   1.00
H858   H     0.89918   0.57422   0.92580   0.00000  Uiso   1.00
O859   O     0.61589   0.41745   0.79441   0.00000  Uiso   1.00
H860   H     0.64255   0.41314   0.81810   0.00000  Uiso   1.00
O861   O     0.88365   0.42064   0.78254   0.00000  Uiso   1.00
H862   H     0.85592   0.41472   0.80354   0.00000  Uiso   1.00
O863   O     0.61731   0.58459   0.87109   0.00000  Uiso   1.00
H864   H     0.64691   0.58710   0.85344   0.00000  Uiso   1.00
O865   O     0.25000   0.76178   0.87895   0.00000  Uiso   1.00
O866   O     0.25000   0.90488   0.78772   0.00000  Uiso   1.00
O867   O     0.25000   0.90488   0.87895   0.00000  Uiso   1.00
O868   O     0.25000   0.76178   0.78772   0.00000  Uiso   1.00
C869   C     0.24998   0.73936   0.83336   0.00000  Uiso   1.00
C870   C     0.25004   0.92731   0.83331   0.00000  Uiso   1.00
O871   O     0.18393   0.83333   0.87896   0.00000  Uiso   1.00
O872   O     0.31608   0.83333   0.78770   0.00000  Uiso   1.00
O873   O     0.31608   0.83333   0.87896   0.00000  Uiso   1.00
O874   O     0.18393   0.83333   0.78770   0.00000  Uiso   1.00
C875   C     0.16340   0.83350   0.83316   0.00000  Uiso   1.00
C876   C     0.33667   0.83309   0.83341   0.00000  Uiso   1.00
Zn877  Zn    0.25000   0.83333   0.89426   0.00000  Uiso   1.00
Zn878  Zn    0.25000   0.83333   0.77241   0.00000  Uiso   1.00
N879   N     0.25000   0.83333   0.69121   0.00000  Uiso   1.00
N880   N     0.25000   0.83333   0.97545   0.00000  Uiso   1.00
C881   C     0.40687   0.87137   0.85842   0.00000  Uiso   1.00
C882   C     0.09326   0.79404   0.80847   0.00000  Uiso   1.00
C883   C     0.40665   0.79443   0.80414   0.00000  Uiso   1.00
C884   C     0.09363   0.87791   0.84981   0.00000  Uiso   1.00
C885   C     0.38439   0.83220   0.83305   0.00000  Uiso   1.00
C886   C     0.11576   0.83468   0.83198   0.00000  Uiso   1.00
C887   C     0.45322   0.79706   0.79898   0.00000  Uiso   1.00
C888   C     0.04678   0.87944   0.84749   0.00000  Uiso   1.00
C889   C     0.45303   0.87640   0.85073   0.00000  Uiso   1.00
C890   C     0.04706   0.79711   0.80037   0.00000  Uiso   1.00
C891   C     0.47661   0.83735   0.82414   0.00000  Uiso   1.00
C892   C     0.02353   0.83817   0.82364   0.00000  Uiso   1.00
C893   C     0.47695   0.76044   0.76926   0.00000  Uiso   1.00
C894   C     0.02222   0.92162   0.86629   0.00000  Uiso   1.00
C895   C     0.47572   0.92014   0.86695   0.00000  Uiso   1.00
C896   C     0.02344   0.76006   0.77027   0.00000  Uiso   1.00
C897   C     0.24998   0.68842   0.83337   0.00000  Uiso   1.00
C898   C     0.25000   0.97825   0.83330   0.00000  Uiso   1.00
N899   N     0.45397   0.72318   0.73737   0.00000  Uiso   1.00
H900   H     0.46373   0.72654   0.69634   0.00000  Uiso   1.00
H901   H     0.46321   0.68776   0.75169   0.00000  Uiso   1.00
N902   N     0.04286   0.96712   0.88475   0.00000  Uiso   1.00
H903   H     0.06280   0.98201   0.85362   0.00000  Uiso   1.00
H904   H     0.06105   0.96045   0.92073   0.00000  Uiso   1.00
N905   N     0.45147   0.96459   0.88142   0.00000  Uiso   1.00
H906   H     0.46057   0.97514   0.92126   0.00000  Uiso   1.00
H907   H     0.46043   0.99332   0.85444   0.00000  Uiso   1.00
N908   N     0.04531   0.72246   0.73795   0.00000  Uiso   1.00
H909   H     0.05987   0.69568   0.76363   0.00000  Uiso   1.00
H910   H     0.06883   0.73913   0.71213   0.00000  Uiso   1.00
O911   O     0.38266   0.90389   0.89065   0.00000  Uiso   1.00
H912   H     0.39918   0.90755   0.92580   0.00000  Uiso   1.00
O913   O     0.11589   0.75079   0.79441   0.00000  Uiso   1.00
H914   H     0.14255   0.74648   0.81810   0.00000  Uiso   1.00
O915   O     0.38365   0.75397   0.78254   0.00000  Uiso   1.00
H916   H     0.35592   0.74805   0.80354   0.00000  Uiso   1.00
O917   O     0.11731   0.91793   0.87109   0.00000  Uiso   1.00
H918   H     0.14691   0.92044   0.85344   0.00000  Uiso   1.00
O919   O     0.75000   0.76178   0.87895   0.00000  Uiso   1.00
O920   O     0.75000   0.90488   0.78772   0.00000  Uiso   1.00
O921   O     0.75000   0.90488   0.87895   0.00000  Uiso   1.00
O922   O     0.75000   0.76178   0.78772   0.00000  Uiso   1.00
C923   C     0.74998   0.73936   0.83336   0.00000  Uiso   1.00
C924   C     0.75004   0.92731   0.83331   0.00000  Uiso   1.00
O925   O     0.68393   0.83333   0.87896   0.00000  Uiso   1.00
O926   O     0.81608   0.83333   0.78770   0.00000  Uiso   1.00
O927   O     0.81608   0.83333   0.87896   0.00000  Uiso   1.00
O928   O     0.68393   0.83333   0.78770   0.00000  Uiso   1.00
C929   C     0.66340   0.83350   0.83316   0.00000  Uiso   1.00
C930   C     0.83667   0.83309   0.83341   0.00000  Uiso   1.00
Zn931  Zn    0.75000   0.83333   0.89426   0.00000  Uiso   1.00
Zn932  Zn    0.75000   0.83333   0.77241   0.00000  Uiso   1.00
N933   N     0.75000   0.83333   0.69121   0.00000  Uiso   1.00
N934   N     0.75000   0.83333   0.97545   0.00000  Uiso   1.00
C935   C     0.90687   0.87137   0.85842   0.00000  Uiso   1.00
C936   C     0.59326   0.79404   0.80847   0.00000  Uiso   1.00
C937   C     0.90665   0.79443   0.80414   0.00000  Uiso   1.00
C938   C     0.59363   0.87791   0.84981   0.00000  Uiso   1.00
C939   C     0.88439   0.83220   0.83305   0.00000  Uiso   1.00
C940   C     0.61576   0.83468   0.83198   0.00000  Uiso   1.00
C941   C     0.95322   0.79706   0.79898   0.00000  Uiso   1.00
C942   C     0.54678   0.87944   0.84749   0.00000  Uiso   1.00
C943   C     0.95303   0.87640   0.85073   0.00000  Uiso   1.00
C944   C     0.54706   0.79711   0.80037   0.00000  Uiso   1.00
C945   C     0.97661   0.83735   0.82414   0.00000  Uiso   1.00
C946   C     0.52353   0.83817   0.82364   0.00000  Uiso   1.00
C947   C     0.97695   0.76044   0.76926   0.00000  Uiso   1.00
C948   C     0.52222   0.92162   0.86629   0.00000  Uiso   1.00
C949   C     0.97572   0.92014   0.86695   0.00000  Uiso   1.00
C950   C     0.52344   0.76006   0.77027   0.00000  Uiso   1.00
C951   C     0.74998   0.68842   0.83337   0.00000  Uiso   1.00
C952   C     0.75000   0.97825   0.83330   0.00000  Uiso   1.00
N953   N     0.95397   0.72318   0.73737   0.00000  Uiso   1.00
H954   H     0.96373   0.72654   0.69634   0.00000  Uiso   1.00
H955   H     0.96321   0.68776   0.75169   0.00000  Uiso   1.00
N956   N     0.54286   0.96712   0.88475   0.00000  Uiso   1.00
H957   H     0.56280   0.98201   0.85362   0.00000  Uiso   1.00
H958   H     0.56105   0.96045   0.92073   0.00000  Uiso   1.00
N959   N     0.95147   0.96459   0.88142   0.00000  Uiso   1.00
H960   H     0.96057   0.97514   0.92126   0.00000  Uiso   1.00
H961   H     0.96043   0.99332   0.85444   0.00000  Uiso   1.00
N962   N     0.54531   0.72246   0.73795   0.00000  Uiso   1.00
H963   H     0.55987   0.69568   0.76363   0.00000  Uiso   1.00
H964   H     0.56883   0.73913   0.71213   0.00000  Uiso   1.00
O965   O     0.88266   0.90389   0.89065   0.00000  Uiso   1.00
H966   H     0.89918   0.90755   0.92580   0.00000  Uiso   1.00
O967   O     0.61589   0.75079   0.79441   0.00000  Uiso   1.00
H968   H     0.64255   0.74648   0.81810   0.00000  Uiso   1.00
O969   O     0.88365   0.75397   0.78254   0.00000  Uiso   1.00
H970   H     0.85592   0.74805   0.80354   0.00000  Uiso   1.00
O971   O     0.61731   0.91793   0.87109   0.00000  Uiso   1.00
H972   H     0.64691   0.92044   0.85344   0.00000  Uiso   1.00
loop_
_geom_bond_atom_site_label_1
_geom_bond_atom_site_label_2
_geom_bond_distance
_geom_bond_site_symmetry_2
_ccdc_geom_bond_type
O1     C5      1.263   .     A
O1     Zn13    1.950   .     S
O2     C6      1.263   .     A
O2     Zn14    1.950   .     S
O3     Zn13    1.949   .     S
O3     C6      1.262   .     A
O4     Zn14    1.949   .     S
O4     C5      1.262   .     A
C5     C33     1.362   .     S
C6     C34     1.362   .     S
O7     C11     1.271   .     A
O7     Zn13    2.013   .     S
O8     C12     1.270   .     A
O8     Zn14    2.013   .     S
O9     C12     1.271   .     A
O9     Zn13    2.016   .     S
O10    C11     1.268   .     A
O10    Zn14    2.016   .     S
C11    C22     1.428   .     S
C12    C21     1.430   .     S
Zn13   N16     1.977   .     S
Zn14   N15     1.977   .     S
N15    N664    1.195   1_554 S
N16    N339    1.195   .     S
C17    C25     1.403   .     A
C17    C21     1.390   .     A
C17    O47     1.380   .     S
C18    C26     1.400   .     A
C18    C22     1.401   .     A
C18    O49     1.385   .     S
C19    O51     1.386   .     S
C19    C23     1.404   .     A
C19    C21     1.402   .     A
C20    C22     1.403   .     A
C20    C24     1.406   .     A
C20    O53     1.384   .     S
C23    C27     1.423   .     A
C23    C29     1.412   .     A
C24    C28     1.428   .     A
C24    C30     1.424   .     A
C25    C31     1.409   .     A
C25    C27     1.419   .     A
C26    C32     1.421   .     A
C26    C28     1.424   .     A
C27    C82     1.406   .     S
C28    C81     1.406   1_455 S
C29    N35     1.438   .     S
C29    C86     1.393   .     S
C30    N38     1.437   .     S
C30    C85     1.394   1_455 S
C31    N41     1.438   .     S
C31    C84     1.394   .     S
C32    N44     1.438   .     S
C32    C83     1.393   1_455 S
C33    C250    1.163   1_545 S
C34    C141    1.163   .     S
N35    H37     1.046   .     S
N35    H36     1.046   .     S
N38    H40     1.045   .     S
N38    H39     1.045   .     S
N41    H42     1.046   .     S
N41    H43     1.046   .     S
N44    H45     1.044   .     S
N44    H46     1.046   .     S
O47    H48     0.992   .     S
O49    H50     0.990   .     S
O51    H52     0.990   .     S
O53    H54     0.989   .     S
O55    C59     1.263   .     A
O55    Zn67    1.950   .     S
O56    C60     1.263   .     A
O56    Zn68    1.950   .     S
O57    Zn67    1.949   .     S
O57    C60     1.262   .     A
O58    Zn68    1.949   .     S
O58    C59     1.262   .     A
C59    C87     1.362   .     S
C60    C88     1.362   .     S
O61    C65     1.271   .     A
O61    Zn67    2.013   .     S
O62    C66     1.270   .     A
O62    Zn68    2.013   .     S
O63    C66     1.271   .     A
O63    Zn67    2.016   .     S
O64    C65     1.268   .     A
O64    Zn68    2.016   .     S
C65    C76     1.428   .     S
C66    C75     1.430   .     S
Zn67   N70     1.977   .     S
Zn68   N69     1.977   .     S
N69    N718    1.195   1_554 S
N70    N393    1.195   .     S
C71    C79     1.403   .     A
C71    C75     1.390   .     A
C71    O101    1.380   .     S
C72    C80     1.400   .     A
C72    C76     1.401   .     A
C72    O103    1.385   .     S
C73    O105    1.386   .     S
C73    C77     1.404   .     A
C73    C75     1.402   .     A
C74    C76     1.403   .     A
C74    C78     1.406   .     A
C74    O107    1.384   .     S
C77    C81     1.423   .     A
C77    C83     1.412   .     A
C78    C82     1.428   .     A
C78    C84     1.424   .     A
C79    C85     1.409   .     A
C79    C81     1.419   .     A
C80    C86     1.421   .     A
C80    C82     1.424   .     A
C81    C28     1.406   1_655 S
C83    N89     1.438   .     S
C83    C32     1.393   1_655 S
C84    N92     1.437   .     S
C85    N95     1.438   .     S
C85    C30     1.394   1_655 S
C86    N98     1.438   .     S
C87    C304    1.163   1_545 S
C88    C195    1.163   .     S
N89    H91     1.046   .     S
N89    H90     1.046   .     S
N92    H94     1.045   .     S
N92    H93     1.045   .     S
N95    H96     1.046   .     S
N95    H97     1.046   .     S
N98    H99     1.044   .     S
N98    H100    1.046   .     S
O101   H102    0.992   .     S
O103   H104    0.990   .     S
O105   H106    0.990   .     S
O107   H108    0.989   .     S
O109   C113    1.263   .     A
O109   Zn121   1.950   .     S
O110   C114    1.263   .     A
O110   Zn122   1.950   .     S
O111   Zn121   1.949   .     S
O111   C114    1.262   .     A
O112   Zn122   1.949   .     S
O112   C113    1.262   .     A
C113   C141    1.362   .     S
C114   C142    1.362   .     S
O115   C119    1.271   .     A
O115   Zn121   2.013   .     S
O116   C120    1.270   .     A
O116   Zn122   2.013   .     S
O117   C120    1.271   .     A
O117   Zn121   2.016   .     S
O118   C119    1.268   .     A
O118   Zn122   2.016   .     S
C119   C130    1.428   .     S
C120   C129    1.430   .     S
Zn121  N124    1.977   .     S
Zn122  N123    1.977   .     S
N123   N772    1.195   1_554 S
N124   N447    1.195   .     S
C125   C133    1.403   .     A
C125   C129    1.390   .     A
C125   O155    1.380   .     S
C126   C134    1.400   .     A
C126   C130    1.401   .     A
C126   O157    1.385   .     S
C127   O159    1.386   .     S
C127   C131    1.404   .     A
C127   C129    1.402   .     A
C128   C130    1.403   .     A
C128   C132    1.406   .     A
C128   O161    1.384   .     S
C131   C135    1.423   .     A
C131   C137    1.412   .     A
C132   C136    1.428   .     A
C132   C138    1.424   .     A
C133   C139    1.409   .     A
C133   C135    1.419   .     A
C134   C140    1.421   .     A
C134   C136    1.424   .     A
C135   C190    1.406   .     S
C136   C189    1.406   1_455 S
C137   N143    1.438   .     S
C137   C194    1.393   .     S
C138   N146    1.437   .     S
C138   C193    1.394   1_455 S
C139   N149    1.438   .     S
C139   C192    1.394   .     S
C140   N152    1.438   .     S
C140   C191    1.393   1_455 S
C142   C249    1.163   .     S
N143   H145    1.046   .     S
N143   H144    1.046   .     S
N146   H148    1.045   .     S
N146   H147    1.045   .     S
N149   H150    1.046   .     S
N149   H151    1.046   .     S
N152   H153    1.044   .     S
N152   H154    1.046   .     S
O155   H156    0.992   .     S
O157   H158    0.990   .     S
O159   H160    0.990   .     S
O161   H162    0.989   .     S
O163   C167    1.263   .     A
O163   Zn175   1.950   .     S
O164   C168    1.263   .     A
O164   Zn176   1.950   .     S
O165   Zn175   1.949   .     S
O165   C168    1.262   .     A
O166   Zn176   1.949   .     S
O166   C167    1.262   .     A
C167   C195    1.362   .     S
C168   C196    1.362   .     S
O169   C173    1.271   .     A
O169   Zn175   2.013   .     S
O170   C174    1.270   .     A
O170   Zn176   2.013   .     S
O171   C174    1.271   .     A
O171   Zn175   2.016   .     S
O172   C173    1.268   .     A
O172   Zn176   2.016   .     S
C173   C184    1.428   .     S
C174   C183    1.430   .     S
Zn175  N178    1.977   .     S
Zn176  N177    1.977   .     S
N177   N826    1.195   1_554 S
N178   N501    1.195   .     S
C179   C187    1.403   .     A
C179   C183    1.390   .     A
C179   O209    1.380   .     S
C180   C188    1.400   .     A
C180   C184    1.401   .     A
C180   O211    1.385   .     S
C181   O213    1.386   .     S
C181   C185    1.404   .     A
C181   C183    1.402   .     A
C182   C184    1.403   .     A
C182   C186    1.406   .     A
C182   O215    1.384   .     S
C185   C189    1.423   .     A
C185   C191    1.412   .     A
C186   C190    1.428   .     A
C186   C192    1.424   .     A
C187   C193    1.409   .     A
C187   C189    1.419   .     A
C188   C194    1.421   .     A
C188   C190    1.424   .     A
C189   C136    1.406   1_655 S
C191   N197    1.438   .     S
C191   C140    1.393   1_655 S
C192   N200    1.437   .     S
C193   N203    1.438   .     S
C193   C138    1.394   1_655 S
C194   N206    1.438   .     S
C196   C303    1.163   .     S
N197   H199    1.046   .     S
N197   H198    1.046   .     S
N200   H202    1.045   .     S
N200   H201    1.045   .     S
N203   H204    1.046   .     S
N203   H205    1.046   .     S
N206   H207    1.044   .     S
N206   H208    1.046   .     S
O209   H210    0.992   .     S
O211   H212    0.990   .     S
O213   H214    0.990   .     S
O215   H216    0.989   .     S
O217   C221    1.263   .     A
O217   Zn229   1.950   .     S
O218   C222    1.263   .     A
O218   Zn230   1.950   .     S
O219   Zn229   1.949   .     S
O219   C222    1.262   .     A
O220   Zn230   1.949   .     S
O220   C221    1.262   .     A
C221   C249    1.362   .     S
C222   C250    1.362   .     S
O223   C227    1.271   .     A
O223   Zn229   2.013   .     S
O224   C228    1.270   .     A
O224   Zn230   2.013   .     S
O225   C228    1.271   .     A
O225   Zn229   2.016   .     S
O226   C227    1.268   .     A
O226   Zn230   2.016   .     S
C227   C238    1.428   .     S
C228   C237    1.430   .     S
Zn229  N232    1.977   .     S
Zn230  N231    1.977   .     S
N231   N880    1.195   1_554 S
N232   N555    1.195   .     S
C233   C241    1.403   .     A
C233   C237    1.390   .     A
C233   O263    1.380   .     S
C234   C242    1.400   .     A
C234   C238    1.401   .     A
C234   O265    1.385   .     S
C235   O267    1.386   .     S
C235   C239    1.404   .     A
C235   C237    1.402   .     A
C236   C238    1.403   .     A
C236   C240    1.406   .     A
C236   O269    1.384   .     S
C239   C243    1.423   .     A
C239   C245    1.412   .     A
C240   C244    1.428   .     A
C240   C246    1.424   .     A
C241   C247    1.409   .     A
C241   C243    1.419   .     A
C242   C248    1.421   .     A
C242   C244    1.424   .     A
C243   C298    1.406   .     S
C244   C297    1.406   1_455 S
C245   N251    1.438   .     S
C245   C302    1.393   .     S
C246   N254    1.437   .     S
C246   C301    1.394   1_455 S
C247   N257    1.438   .     S
C247   C300    1.394   .     S
C248   N260    1.438   .     S
C248   C299    1.393   1_455 S
C250   C33     1.163   1_565 S
N251   H253    1.046   .     S
N251   H252    1.046   .     S
N254   H256    1.045   .     S
N254   H255    1.045   .     S
N257   H258    1.046   .     S
N257   H259    1.046   .     S
N260   H261    1.044   .     S
N260   H262    1.046   .     S
O263   H264    0.992   .     S
O265   H266    0.990   .     S
O267   H268    0.990   .     S
O269   H270    0.989   .     S
O271   C275    1.263   .     A
O271   Zn283   1.950   .     S
O272   C276    1.263   .     A
O272   Zn284   1.950   .     S
O273   Zn283   1.949   .     S
O273   C276    1.262   .     A
O274   Zn284   1.949   .     S
O274   C275    1.262   .     A
C275   C303    1.362   .     S
C276   C304    1.362   .     S
O277   C281    1.271   .     A
O277   Zn283   2.013   .     S
O278   C282    1.270   .     A
O278   Zn284   2.013   .     S
O279   C282    1.271   .     A
O279   Zn283   2.016   .     S
O280   C281    1.268   .     A
O280   Zn284   2.016   .     S
C281   C292    1.428   .     S
C282   C291    1.430   .     S
Zn283  N286    1.977   .     S
Zn284  N285    1.977   .     S
N285   N934    1.195   1_554 S
N286   N609    1.195   .     S
C287   C295    1.403   .     A
C287   C291    1.390   .     A
C287   O317    1.380   .     S
C288   C296    1.400   .     A
C288   C292    1.401   .     A
C288   O319    1.385   .     S
C289   O321    1.386   .     S
C289   C293    1.404   .     A
C289   C291    1.402   .     A
C290   C292    1.403   .     A
C290   C294    1.406   .     A
C290   O323    1.384   .     S
C293   C297    1.423   .     A
C293   C299    1.412   .     A
C294   C298    1.428   .     A
C294   C300    1.424   .     A
C295   C301    1.409   .     A
C295   C297    1.419   .     A
C296   C302    1.421   .     A
C296   C298    1.424   .     A
C297   C244    1.406   1_655 S
C299   N305    1.438   .     S
C299   C248    1.393   1_655 S
C300   N308    1.437   .     S
C301   N311    1.438   .     S
C301   C246    1.394   1_655 S
C302   N314    1.438   .     S
C304   C87     1.163   1_565 S
N305   H307    1.046   .     S
N305   H306    1.046   .     S
N308   H310    1.045   .     S
N308   H309    1.045   .     S
N311   H312    1.046   .     S
N311   H313    1.046   .     S
N314   H315    1.044   .     S
N314   H316    1.046   .     S
O317   H318    0.992   .     S
O319   H320    0.990   .     S
O321   H322    0.990   .     S
O323   H324    0.989   .     S
O325   C329    1.263   .     A
O325   Zn337   1.950   .     S
O326   C330    1.263   .     A
O326   Zn338   1.950   .     S
O327   Zn337   1.949   .     S
O327   C330    1.262   .     A
O328   Zn338   1.949   .     S
O328   C329    1.262   .     A
C329   C357    1.362   .     S
C330   C358    1.362   .     S
O331   C335    1.271   .     A
O331   Zn337   2.013   .     S
O332   C336    1.270   .     A
O332   Zn338   2.013   .     S
O333   C336    1.271   .     A
O333   Zn337   2.016   .     S
O334   C335    1.268   .     A
O334   Zn338   2.016   .     S
C335   C346    1.428   .     S
C336   C345    1.430   .     S
Zn337  N340    1.977   .     S
Zn338  N339    1.977   .     S
N340   N663    1.195   .     S
C341   C349    1.403   .     A
C341   C345    1.390   .     A
C341   O371    1.380   .     S
C342   C350    1.400   .     A
C342   C346    1.401   .     A
C342   O373    1.385   .     S
C343   O375    1.386   .     S
C343   C347    1.404   .     A
C343   C345    1.402   .     A
C344   C346    1.403   .     A
C344   C348    1.406   .     A
C344   O377    1.384   .     S
C347   C351    1.423   .     A
C347   C353    1.412   .     A
C348   C352    1.428   .     A
C348   C354    1.424   .     A
C349   C355    1.409   .     A
C349   C351    1.419   .     A
C350   C356    1.421   .     A
C350   C352    1.424   .     A
C351   C406    1.406   .     S
C352   C405    1.406   1_455 S
C353   N359    1.438   .     S
C353   C410    1.393   .     S
C354   N362    1.437   .     S
C354   C409    1.394   1_455 S
C355   N365    1.438   .     S
C355   C408    1.394   .     S
C356   N368    1.438   .     S
C356   C407    1.393   1_455 S
C357   C574    1.163   1_545 S
C358   C465    1.163   .     S
N359   H361    1.046   .     S
N359   H360    1.046   .     S
N362   H364    1.045   .     S
N362   H363    1.045   .     S
N365   H366    1.046   .     S
N365   H367    1.046   .     S
N368   H369    1.044   .     S
N368   H370    1.046   .     S
O371   H372    0.992   .     S
O373   H374    0.990   .     S
O375   H376    0.990   .     S
O377   H378    0.989   .     S
O379   C383    1.263   .     A
O379   Zn391   1.950   .     S
O380   C384    1.263   .     A
O380   Zn392   1.950   .     S
O381   Zn391   1.949   .     S
O381   C384    1.262   .     A
O382   Zn392   1.949   .     S
O382   C383    1.262   .     A
C383   C411    1.362   .     S
C384   C412    1.362   .     S
O385   C389    1.271   .     A
O385   Zn391   2.013   .     S
O386   C390    1.270   .     A
O386   Zn392   2.013   .     S
O387   C390    1.271   .     A
O387   Zn391   2.016   .     S
O388   C389    1.268   .     A
O388   Zn392   2.016   .     S
C389   C400    1.428   .     S
C390   C399    1.430   .     S
Zn391  N394    1.977   .     S
Zn392  N393    1.977   .     S
N394   N717    1.195   .     S
C395   C403    1.403   .     A
C395   C399    1.390   .     A
C395   O425    1.380   .     S
C396   C404    1.400   .     A
C396   C400    1.401   .     A
C396   O427    1.385   .     S
C397   O429    1.386   .     S
C397   C401    1.404   .     A
C397   C399    1.402   .     A
C398   C400    1.403   .     A
C398   C402    1.406   .     A
C398   O431    1.384   .     S
C401   C405    1.423   .     A
C401   C407    1.412   .     A
C402   C406    1.428   .     A
C402   C408    1.424   .     A
C403   C409    1.409   .     A
C403   C405    1.419   .     A
C404   C410    1.421   .     A
C404   C406    1.424   .     A
C405   C352    1.406   1_655 S
C407   N413    1.438   .     S
C407   C356    1.393   1_655 S
C408   N416    1.437   .     S
C409   N419    1.438   .     S
C409   C354    1.394   1_655 S
C410   N422    1.438   .     S
C411   C628    1.163   1_545 S
C412   C519    1.163   .     S
N413   H415    1.046   .     S
N413   H414    1.046   .     S
N416   H418    1.045   .     S
N416   H417    1.045   .     S
N419   H420    1.046   .     S
N419   H421    1.046   .     S
N422   H423    1.044   .     S
N422   H424    1.046   .     S
O425   H426    0.992   .     S
O427   H428    0.990   .     S
O429   H430    0.990   .     S
O431   H432    0.989   .     S
O433   C437    1.263   .     A
O433   Zn445   1.950   .     S
O434   C438    1.263   .     A
O434   Zn446   1.950   .     S
O435   Zn445   1.949   .     S
O435   C438    1.262   .     A
O436   Zn446   1.949   .     S
O436   C437    1.262   .     A
C437   C465    1.362   .     S
C438   C466    1.362   .     S
O439   C443    1.271   .     A
O439   Zn445   2.013   .     S
O440   C444    1.270   .     A
O440   Zn446   2.013   .     S
O441   C444    1.271   .     A
O441   Zn445   2.016   .     S
O442   C443    1.268   .     A
O442   Zn446   2.016   .     S
C443   C454    1.428   .     S
C444   C453    1.430   .     S
Zn445  N448    1.977   .     S
Zn446  N447    1.977   .     S
N448   N771    1.195   .     S
C449   C457    1.403   .     A
C449   C453    1.390   .     A
C449   O479    1.380   .     S
C450   C458    1.400   .     A
C450   C454    1.401   .     A
C450   O481    1.385   .     S
C451   O483    1.386   .     S
C451   C455    1.404   .     A
C451   C453    1.402   .     A
C452   C454    1.403   .     A
C452   C456    1.406   .     A
C452   O485    1.384   .     S
C455   C459    1.423   .     A
C455   C461    1.412   .     A
C456   C460    1.428   .     A
C456   C462    1.424   .     A
C457   C463    1.409   .     A
C457   C459    1.419   .     A
C458   C464    1.421   .     A
C458   C460    1.424   .     A
C459   C514    1.406   .     S
C460   C513    1.406   1_455 S
C461   N467    1.438   .     S
C461   C518    1.393   .     S
C462   N470    1.437   .     S
C462   C517    1.394   1_455 S
C463   N473    1.438   .     S
C463   C516    1.394   .     S
C464   N476    1.438   .     S
C464   C515    1.393   1_455 S
C466   C573    1.163   .     S
N467   H469    1.046   .     S
N467   H468    1.046   .     S
N470   H472    1.045   .     S
N470   H471    1.045   .     S
N473   H474    1.046   .     S
N473   H475    1.046   .     S
N476   H477    1.044   .     S
N476   H478    1.046   .     S
O479   H480    0.992   .     S
O481   H482    0.990   .     S
O483   H484    0.990   .     S
O485   H486    0.989   .     S
O487   C491    1.263   .     A
O487   Zn499   1.950   .     S
O488   C492    1.263   .     A
O488   Zn500   1.950   .     S
O489   Zn499   1.949   .     S
O489   C492    1.262   .     A
O490   Zn500   1.949   .     S
O490   C491    1.262   .     A
C491   C519    1.362   .     S
C492   C520    1.362   .     S
O493   C497    1.271   .     A
O493   Zn499   2.013   .     S
O494   C498    1.270   .     A
O494   Zn500   2.013   .     S
O495   C498    1.271   .     A
O495   Zn499   2.016   .     S
O496   C497    1.268   .     A
O496   Zn500   2.016   .     S
C497   C508    1.428   .     S
C498   C507    1.430   .     S
Zn499  N502    1.977   .     S
Zn500  N501    1.977   .     S
N502   N825    1.195   .     S
C503   C511    1.403   .     A
C503   C507    1.390   .     A
C503   O533    1.380   .     S
C504   C512    1.400   .     A
C504   C508    1.401   .     A
C504   O535    1.385   .     S
C505   O537    1.386   .     S
C505   C509    1.404   .     A
C505   C507    1.402   .     A
C506   C508    1.403   .     A
C506   C510    1.406   .     A
C506   O539    1.384   .     S
C509   C513    1.423   .     A
C509   C515    1.412   .     A
C510   C514    1.428   .     A
C510   C516    1.424   .     A
C511   C517    1.409   .     A
C511   C513    1.419   .     A
C512   C518    1.421   .     A
C512   C514    1.424   .     A
C513   C460    1.406   1_655 S
C515   N521    1.438   .     S
C515   C464    1.393   1_655 S
C516   N524    1.437   .     S
C517   N527    1.438   .     S
C517   C462    1.394   1_655 S
C518   N530    1.438   .     S
C520   C627    1.163   .     S
N521   H523    1.046   .     S
N521   H522    1.046   .     S
N524   H526    1.045   .     S
N524   H525    1.045   .     S
N527   H528    1.046   .     S
N527   H529    1.046   .     S
N530   H531    1.044   .     S
N530   H532    1.046   .     S
O533   H534    0.992   .     S
O535   H536    0.990   .     S
O537   H538    0.990   .     S
O539   H540    0.989   .     S
O541   C545    1.263   .     A
O541   Zn553   1.950   .     S
O542   C546    1.263   .     A
O542   Zn554   1.950   .     S
O543   Zn553   1.949   .     S
O543   C546    1.262   .     A
O544   Zn554   1.949   .     S
O544   C545    1.262   .     A
C545   C573    1.362   .     S
C546   C574    1.362   .     S
O547   C551    1.271   .     A
O547   Zn553   2.013   .     S
O548   C552    1.270   .     A
O548   Zn554   2.013   .     S
O549   C552    1.271   .     A
O549   Zn553   2.016   .     S
O550   C551    1.268   .     A
O550   Zn554   2.016   .     S
C551   C562    1.428   .     S
C552   C561    1.430   .     S
Zn553  N556    1.977   .     S
Zn554  N555    1.977   .     S
N556   N879    1.195   .     S
C557   C565    1.403   .     A
C557   C561    1.390   .     A
C557   O587    1.380   .     S
C558   C566    1.400   .     A
C558   C562    1.401   .     A
C558   O589    1.385   .     S
C559   O591    1.386   .     S
C559   C563    1.404   .     A
C559   C561    1.402   .     A
C560   C562    1.403   .     A
C560   C564    1.406   .     A
C560   O593    1.384   .     S
C563   C567    1.423   .     A
C563   C569    1.412   .     A
C564   C568    1.428   .     A
C564   C570    1.424   .     A
C565   C571    1.409   .     A
C565   C567    1.419   .     A
C566   C572    1.421   .     A
C566   C568    1.424   .     A
C567   C622    1.406   .     S
C568   C621    1.406   1_455 S
C569   N575    1.438   .     S
C569   C626    1.393   .     S
C570   N578    1.437   .     S
C570   C625    1.394   1_455 S
C571   N581    1.438   .     S
C571   C624    1.394   .     S
C572   N584    1.438   .     S
C572   C623    1.393   1_455 S
C574   C357    1.163   1_565 S
N575   H577    1.046   .     S
N575   H576    1.046   .     S
N578   H580    1.045   .     S
N578   H579    1.045   .     S
N581   H582    1.046   .     S
N581   H583    1.046   .     S
N584   H585    1.044   .     S
N584   H586    1.046   .     S
O587   H588    0.992   .     S
O589   H590    0.990   .     S
O591   H592    0.990   .     S
O593   H594    0.989   .     S
O595   C599    1.263   .     A
O595   Zn607   1.950   .     S
O596   C600    1.263   .     A
O596   Zn608   1.950   .     S
O597   Zn607   1.949   .     S
O597   C600    1.262   .     A
O598   Zn608   1.949   .     S
O598   C599    1.262   .     A
C599   C627    1.362   .     S
C600   C628    1.362   .     S
O601   C605    1.271   .     A
O601   Zn607   2.013   .     S
O602   C606    1.270   .     A
O602   Zn608   2.013   .     S
O603   C606    1.271   .     A
O603   Zn607   2.016   .     S
O604   C605    1.268   .     A
O604   Zn608   2.016   .     S
C605   C616    1.428   .     S
C606   C615    1.430   .     S
Zn607  N610    1.977   .     S
Zn608  N609    1.977   .     S
N610   N933    1.195   .     S
C611   C619    1.403   .     A
C611   C615    1.390   .     A
C611   O641    1.380   .     S
C612   C620    1.400   .     A
C612   C616    1.401   .     A
C612   O643    1.385   .     S
C613   O645    1.386   .     S
C613   C617    1.404   .     A
C613   C615    1.402   .     A
C614   C616    1.403   .     A
C614   C618    1.406   .     A
C614   O647    1.384   .     S
C617   C621    1.423   .     A
C617   C623    1.412   .     A
C618   C622    1.428   .     A
C618   C624    1.424   .     A
C619   C625    1.409   .     A
C619   C621    1.419   .     A
C620   C626    1.421   .     A
C620   C622    1.424   .     A
C621   C568    1.406   1_655 S
C623   N629    1.438   .     S
C623   C572    1.393   1_655 S
C624   N632    1.437   .     S
C625   N635    1.438   .     S
C625   C570    1.394   1_655 S
C626   N638    1.438   .     S
C628   C411    1.163   1_565 S
N629   H631    1.046   .     S
N629   H630    1.046   .     S
N632   H634    1.045   .     S
N632   H633    1.045   .     S
N635   H636    1.046   .     S
N635   H637    1.046   .     S
N638   H639    1.044   .     S
N638   H640    1.046   .     S
O641   H642    0.992   .     S
O643   H644    0.990   .     S
O645   H646    0.990   .     S
O647   H648    0.989   .     S
O649   C653    1.263   .     A
O649   Zn661   1.950   .     S
O650   C654    1.263   .     A
O650   Zn662   1.950   .     S
O651   Zn661   1.949   .     S
O651   C654    1.262   .     A
O652   Zn662   1.949   .     S
O652   C653    1.262   .     A
C653   C681    1.362   .     S
C654   C682    1.362   .     S
O655   C659    1.271   .     A
O655   Zn661   2.013   .     S
O656   C660    1.270   .     A
O656   Zn662   2.013   .     S
O657   C660    1.271   .     A
O657   Zn661   2.016   .     S
O658   C659    1.268   .     A
O658   Zn662   2.016   .     S
C659   C670    1.428   .     S
C660   C669    1.430   .     S
Zn661  N664    1.977   .     S
Zn662  N663    1.977   .     S
N664   N15     1.195   1_556 S
C665   C673    1.403   .     A
C665   C669    1.390   .     A
C665   O695    1.380   .     S
C666   C674    1.400   .     A
C666   C670    1.401   .     A
C666   O697    1.385   .     S
C667   O699    1.386   .     S
C667   C671    1.404   .     A
C667   C669    1.402   .     A
C668   C670    1.403   .     A
C668   C672    1.406   .     A
C668   O701    1.384   .     S
C671   C675    1.423   .     A
C671   C677    1.412   .     A
C672   C676    1.428   .     A
C672   C678    1.424   .     A
C673   C679    1.409   .     A
C673   C675    1.419   .     A
C674   C680    1.421   .     A
C674   C676    1.424   .     A
C675   C730    1.406   .     S
C676   C729    1.406   1_455 S
C677   N683    1.438   .     S
C677   C734    1.393   .     S
C678   N686    1.437   .     S
C678   C733    1.394   1_455 S
C679   N689    1.438   .     S
C679   C732    1.394   .     S
C680   N692    1.438   .     S
C680   C731    1.393   1_455 S
C681   C898    1.163   1_545 S
C682   C789    1.163   .     S
N683   H685    1.046   .     S
N683   H684    1.046   .     S
N686   H688    1.045   .     S
N686   H687    1.045   .     S
N689   H690    1.046   .     S
N689   H691    1.046   .     S
N692   H693    1.044   .     S
N692   H694    1.046   .     S
O695   H696    0.992   .     S
O697   H698    0.990   .     S
O699   H700    0.990   .     S
O701   H702    0.989   .     S
O703   C707    1.263   .     A
O703   Zn715   1.950   .     S
O704   C708    1.263   .     A
O704   Zn716   1.950   .     S
O705   Zn715   1.949   .     S
O705   C708    1.262   .     A
O706   Zn716   1.949   .     S
O706   C707    1.262   .     A
C707   C735    1.362   .     S
C708   C736    1.362   .     S
O709   C713    1.271   .     A
O709   Zn715   2.013   .     S
O710   C714    1.270   .     A
O710   Zn716   2.013   .     S
O711   C714    1.271   .     A
O711   Zn715   2.016   .     S
O712   C713    1.268   .     A
O712   Zn716   2.016   .     S
C713   C724    1.428   .     S
C714   C723    1.430   .     S
Zn715  N718    1.977   .     S
Zn716  N717    1.977   .     S
N718   N69     1.195   1_556 S
C719   C727    1.403   .     A
C719   C723    1.390   .     A
C719   O749    1.380   .     S
C720   C728    1.400   .     A
C720   C724    1.401   .     A
C720   O751    1.385   .     S
C721   O753    1.386   .     S
C721   C725    1.404   .     A
C721   C723    1.402   .     A
C722   C724    1.403   .     A
C722   C726    1.406   .     A
C722   O755    1.384   .     S
C725   C729    1.423   .     A
C725   C731    1.412   .     A
C726   C730    1.428   .     A
C726   C732    1.424   .     A
C727   C733    1.409   .     A
C727   C729    1.419   .     A
C728   C734    1.421   .     A
C728   C730    1.424   .     A
C729   C676    1.406   1_655 S
C731   N737    1.438   .     S
C731   C680    1.393   1_655 S
C732   N740    1.437   .     S
C733   N743    1.438   .     S
C733   C678    1.394   1_655 S
C734   N746    1.438   .     S
C735   C952    1.163   1_545 S
C736   C843    1.163   .     S
N737   H739    1.046   .     S
N737   H738    1.046   .     S
N740   H742    1.045   .     S
N740   H741    1.045   .     S
N743   H744    1.046   .     S
N743   H745    1.046   .     S
N746   H747    1.044   .     S
N746   H748    1.046   .     S
O749   H750    0.992   .     S
O751   H752    0.990   .     S
O753   H754    0.990   .     S
O755   H756    0.989   .     S
O757   C761    1.263   .     A
O757   Zn769   1.950   .     S
O758   C762    1.263   .     A
O758   Zn770   1.950   .     S
O759   Zn769   1.949   .     S
O759   C762    1.262   .     A
O760   Zn770   1.949   .     S
O760   C761    1.262   .     A
C761   C789    1.362   .     S
C762   C790    1.362   .     S
O763   C767    1.271   .     A
O763   Zn769   2.013   .     S
O764   C768    1.270   .     A
O764   Zn770   2.013   .     S
O765   C768    1.271   .     A
O765   Zn769   2.016   .     S
O766   C767    1.268   .     A
O766   Zn770   2.016   .     S
C767   C778    1.428   .     S
C768   C777    1.430   .     S
Zn769  N772    1.977   .     S
Zn770  N771    1.977   .     S
N772   N123    1.195   1_556 S
C773   C781    1.403   .     A
C773   C777    1.390   .     A
C773   O803    1.380   .     S
C774   C782    1.400   .     A
C774   C778    1.401   .     A
C774   O805    1.385   .     S
C775   O807    1.386   .     S
C775   C779    1.404   .     A
C775   C777    1.402   .     A
C776   C778    1.403   .     A
C776   C780    1.406   .     A
C776   O809    1.384   .     S
C779   C783    1.423   .     A
C779   C785    1.412   .     A
C780   C784    1.428   .     A
C780   C786    1.424   .     A
C781   C787    1.409   .     A
C781   C783    1.419   .     A
C782   C788    1.421   .     A
C782   C784    1.424   .     A
C783   C838    1.406   .     S
C784   C837    1.406   1_455 S
C785   N791    1.438   .     S
C785   C842    1.393   .     S
C786   N794    1.437   .     S
C786   C841    1.394   1_455 S
C787   N797    1.438   .     S
C787   C840    1.394   .     S
C788   N800    1.438   .     S
C788   C839    1.393   1_455 S
C790   C897    1.163   .     S
N791   H793    1.046   .     S
N791   H792    1.046   .     S
N794   H796    1.045   .     S
N794   H795    1.045   .     S
N797   H798    1.046   .     S
N797   H799    1.046   .     S
N800   H801    1.044   .     S
N800   H802    1.046   .     S
O803   H804    0.992   .     S
O805   H806    0.990   .     S
O807   H808    0.990   .     S
O809   H810    0.989   .     S
O811   C815    1.263   .     A
O811   Zn823   1.950   .     S
O812   C816    1.263   .     A
O812   Zn824   1.950   .     S
O813   Zn823   1.949   .     S
O813   C816    1.262   .     A
O814   Zn824   1.949   .     S
O814   C815    1.262   .     A
C815   C843    1.362   .     S
C816   C844    1.362   .     S
O817   C821    1.271   .     A
O817   Zn823   2.013   .     S
O818   C822    1.270   .     A
O818   Zn824   2.013   .     S
O819   C822    1.271   .     A
O819   Zn823   2.016   .     S
O820   C821    1.268   .     A
O820   Zn824   2.016   .     S
C821   C832    1.428   .     S
C822   C831    1.430   .     S
Zn823  N826    1.977   .     S
Zn824  N825    1.977   .     S
N826   N177    1.195   1_556 S
C827   C835    1.403   .     A
C827   C831    1.390   .     A
C827   O857    1.380   .     S
C828   C836    1.400   .     A
C828   C832    1.401   .     A
C828   O859    1.385   .     S
C829   O861    1.386   .     S
C829   C833    1.404   .     A
C829   C831    1.402   .     A
C830   C832    1.403   .     A
C830   C834    1.406   .     A
C830   O863    1.384   .     S
C833   C837    1.423   .     A
C833   C839    1.412   .     A
C834   C838    1.428   .     A
C834   C840    1.424   .     A
C835   C841    1.409   .     A
C835   C837    1.419   .     A
C836   C842    1.421   .     A
C836   C838    1.424   .     A
C837   C784    1.406   1_655 S
C839   N845    1.438   .     S
C839   C788    1.393   1_655 S
C840   N848    1.437   .     S
C841   N851    1.438   .     S
C841   C786    1.394   1_655 S
C842   N854    1.438   .     S
C844   C951    1.163   .     S
N845   H847    1.046   .     S
N845   H846    1.046   .     S
N848   H850    1.045   .     S
N848   H849    1.045   .     S
N851   H852    1.046   .     S
N851   H853    1.046   .     S
N854   H855    1.044   .     S
N854   H856    1.046   .     S
O857   H858    0.992   .     S
O859   H860    0.990   .     S
O861   H862    0.990   .     S
O863   H864    0.989   .     S
O865   C869    1.263   .     A
O865   Zn877   1.950   .     S
O866   C870    1.263   .     A
O866   Zn878   1.950   .     S
O867   Zn877   1.949   .     S
O867   C870    1.262   .     A
O868   Zn878   1.949   .     S
O868   C869    1.262   .     A
C869   C897    1.362   .     S
C870   C898    1.362   .     S
O871   C875    1.271   .     A
O871   Zn877   2.013   .     S
O872   C876    1.270   .     A
O872   Zn878   2.013   .     S
O873   C876    1.271   .     A
O873   Zn877   2.016   .     S
O874   C875    1.268   .     A
O874   Zn878   2.016   .     S
C875   C886    1.428   .     S
C876   C885    1.430   .     S
Zn877  N880    1.977   .     S
Zn878  N879    1.977   .     S
N880   N231    1.195   1_556 S
C881   C889    1.403   .     A
C881   C885    1.390   .     A
C881   O911    1.380   .     S
C882   C890    1.400   .     A
C882   C886    1.401   .     A
C882   O913    1.385   .     S
C883   O915    1.386   .     S
C883   C887    1.404   .     A
C883   C885    1.402   .     A
C884   C886    1.403   .     A
C884   C888    1.406   .     A
C884   O917    1.384   .     S
C887   C891    1.423   .     A
C887   C893    1.412   .     A
C888   C892    1.428   .     A
C888   C894    1.424   .     A
C889   C895    1.409   .     A
C889   C891    1.419   .     A
C890   C896    1.421   .     A
C890   C892    1.424   .     A
C891   C946    1.406   .     S
C892   C945    1.406   1_455 S
C893   N899    1.438   .     S
C893   C950    1.393   .     S
C894   N902    1.437   .     S
C894   C949    1.394   1_455 S
C895   N905    1.438   .     S
C895   C948    1.394   .     S
C896   N908    1.438   .     S
C896   C947    1.393   1_455 S
C898   C681    1.163   1_565 S
N899   H901    1.046   .     S
N899   H900    1.046   .     S
N902   H904    1.045   .     S
N902   H903    1.045   .     S
N905   H906    1.046   .     S
N905   H907    1.046   .     S
N908   H909    1.044   .     S
N908   H910    1.046   .     S
O911   H912    0.992   .     S
O913   H914    0.990   .     S
O915   H916    0.990   .     S
O917   H918    0.989   .     S
O919   C923    1.263   .     A
O919   Zn931   1.950   .     S
O920   C924    1.263   .     A
O920   Zn932   1.950   .     S
O921   Zn931   1.949   .     S
O921   C924    1.262   .     A
O922   Zn932   1.949   .     S
O922   C923    1.262   .     A
C923   C951    1.362   .     S
C924   C952    1.362   .     S
O925   C929    1.271   .     A
O925   Zn931   2.013   .     S
O926   C930    1.270   .     A
O926   Zn932   2.013   .     S
O927   C930    1.271   .     A
O927   Zn931   2.016   .     S
O928   C929    1.268   .     A
O928   Zn932   2.016   .     S
C929   C940    1.428   .     S
C930   C939    1.430   .     S
Zn931  N934    1.977   .     S
Zn932  N933    1.977   .     S
N934   N285    1.195   1_556 S
C935   C943    1.403   .     A
C935   C939    1.390   .     A
C935   O965    1.380   .     S
C936   C944    1.400   .     A
C936   C940    1.401   .     A
C936   O967    1.385   .     S
C937   O969    1.386   .     S
C937   C941    1.404   .     A
C937   C939    1.402   .     A
C938   C940    1.403   .     A
C938   C942    1.406   .     A
C938   O971    1.384   .     S
C941   C945    1.423   .     A
C941   C947    1.412   .     A
C942   C946    1.428   .     A
C942   C948    1.424   .     A
C943   C949    1.409   .     A
C943   C945    1.419   .     A
C944   C950    1.421   .     A
C944   C946    1.424   .     A
C945   C892    1.406   1_655 S
C947   N953    1.438   .     S
C947   C896    1.393   1_655 S
C948   N956    1.437   .     S
C949   N959    1.438   .     S
C949   C894    1.394   1_655 S
C950   N962    1.438   .     S
C952   C735    1.163   1_565 S
N953   H955    1.046   .     S
N953   H954    1.046   .     S
N956   H958    1.045   .     S
N956   H957    1.045   .     S
N959   H960    1.046   .     S
N959   H961    1.046   .     S
N962   H963    1.044   .     S
N962   H964    1.046   .     S
O965   H966    0.992   .     S
O967   H968    0.990   .     S
O969   H970    0.990   .     S
O971   H972    0.989   .     S
