data_str_m2_o1_o18_pcu_sym.92
_audit_creation_date              2020-01-03
_audit_creation_method            'Materials Studio'
_symmetry_space_group_name_H-M    'P1'
_symmetry_Int_Tables_number       1
_symmetry_cell_setting            triclinic
loop_
_symmetry_equiv_pos_as_xyz
  x,y,z
_cell_length_a                    28.6752
_cell_length_b                    32.4873
_cell_length_c                    30.8424
_cell_angle_alpha                 89.1253
_cell_angle_beta                  74.4764
_cell_angle_gamma                 89.6753
loop_
_atom_site_label
_atom_site_type_symbol
_atom_site_fract_x
_atom_site_fract_y
_atom_site_fract_z
_atom_site_U_iso_or_equiv
_atom_site_adp_type
_atom_site_occupancy
C1     C     0.00006   0.08740   0.25003   0.00000  Uiso   1.00
C2     C     0.04252   0.02107   0.24964   0.00000  Uiso   1.00
C3     C     0.33325   0.29057   0.24999   0.00000  Uiso   1.00
C4     C     0.00009   0.04276   0.25001   0.00000  Uiso   1.00
C5     C     0.18408   0.14005   0.27702   0.00000  Uiso   1.00
C6     C     0.14926   0.19328   0.22298   0.00000  Uiso   1.00
C7     C     0.13449   0.14020   0.27742   0.00000  Uiso   1.00
C8     C     0.19884   0.19313   0.22258   0.00000  Uiso   1.00
C9     C     0.30617   0.16824   0.33610   0.00000  Uiso   1.00
C10    C     0.02716   0.16509   0.16391   0.00000  Uiso   1.00
C11    C     0.29133   0.17343   0.38530   0.00000  Uiso   1.00
C12    C     0.33328   0.24594   0.24997   0.00000  Uiso   1.00
C13    C     0.04200   0.15990   0.11470   0.00000  Uiso   1.00
C14    C     0.30360   0.19742   0.45551   0.00000  Uiso   1.00
C15    C     0.02973   0.13592   0.04449   0.00000  Uiso   1.00
C16    C     0.32010   0.19401   0.40878   0.00000  Uiso   1.00
C17    C     0.01323   0.13932   0.09122   0.00000  Uiso   1.00
C18    C     0.24489   0.16050   0.40870   0.00000  Uiso   1.00
C19    C     0.08844   0.17284   0.09130   0.00000  Uiso   1.00
C20    C     0.22454   0.17101   0.45384   0.00000  Uiso   1.00
C21    C     0.10879   0.16233   0.04616   0.00000  Uiso   1.00
C22    C     0.25637   0.18533   0.47818   0.00000  Uiso   1.00
C23    C     0.19494   0.17311   0.04778   0.00000  Uiso   1.00
C24    C     0.07696   0.14800   0.02182   0.00000  Uiso   1.00
C25    C     0.17430   0.16580   0.47599   0.00000  Uiso   1.00
C26    C     0.15903   0.16753   0.02401   0.00000  Uiso   1.00
C27    C     0.30212   0.11889   0.11431   0.00000  Uiso   1.00
C28    C     0.03122   0.21444   0.38569   0.00000  Uiso   1.00
C29    C     0.18781   0.16100   0.09430   0.00000  Uiso   1.00
C30    C     0.14552   0.17234   0.40570   0.00000  Uiso   1.00
C31    C     0.10227   0.11255   0.30803   0.00000  Uiso   1.00
C32    C     0.23106   0.22078   0.19197   0.00000  Uiso   1.00
C33    C     0.13840   0.16022   0.45222   0.00000  Uiso   1.00
C34    C     0.24156   0.18546   0.02492   0.00000  Uiso   1.00
C35    C     0.09177   0.14787   0.47508   0.00000  Uiso   1.00
C36    C     0.29089   0.02152   0.25036   0.00000  Uiso   1.00
C37    C     0.04244   0.31182   0.24964   0.00000  Uiso   1.00
C38    C     0.29081   0.31227   0.25036   0.00000  Uiso   1.00
Cu39   Cu    0.04689   0.16667   0.25000   0.00000  Uiso   1.00
Cu40   Cu    0.28645   0.16666   0.25000   0.00000  Uiso   1.00
H41    H     0.26760   0.19224   0.04371   0.00000  Uiso   1.00
H42    H     0.07576   0.03689   0.24932   0.00000  Uiso   1.00
H43    H     0.19694   0.11897   0.29882   0.00000  Uiso   1.00
H44    H     0.13640   0.21437   0.20118   0.00000  Uiso   1.00
H45    H     0.06573   0.14109   0.45629   0.00000  Uiso   1.00
H46    H     0.10801   0.19185   0.10880   0.00000  Uiso   1.00
H47    H     0.22532   0.14148   0.39120   0.00000  Uiso   1.00
H48    H     0.32697   0.21071   0.47404   0.00000  Uiso   1.00
H49    H     0.00636   0.12262   0.02596   0.00000  Uiso   1.00
H50    H     0.25768   0.03770   0.25065   0.00000  Uiso   1.00
H51    H     0.07566   0.29563   0.24935   0.00000  Uiso   1.00
H52    H     0.25757   0.29644   0.25068   0.00000  Uiso   1.00
N53    N     0.11736   0.16668   0.24999   0.00000  Uiso   1.00
N54    N     0.21597   0.16666   0.25001   0.00000  Uiso   1.00
N55    N     0.26693   0.10196   0.13300   0.00000  Uiso   1.00
N56    N     0.06640   0.23137   0.36700   0.00000  Uiso   1.00
N57    N     0.18183   0.15098   0.13152   0.00000  Uiso   1.00
N58    N     0.15150   0.18235   0.36848   0.00000  Uiso   1.00
N59    N     0.07658   0.09027   0.33284   0.00000  Uiso   1.00
N60    N     0.25676   0.24306   0.16716   0.00000  Uiso   1.00
O61    O     0.03958   0.10655   0.25000   0.00000  Uiso   1.00
O62    O     0.29375   0.22678   0.25000   0.00000  Uiso   1.00
O63    O     0.29372   0.10654   0.25001   0.00000  Uiso   1.00
O64    O     0.03961   0.22679   0.25000   0.00000  Uiso   1.00
O65    O     0.01852   0.16668   0.31492   0.00000  Uiso   1.00
O66    O     0.31481   0.16666   0.18509   0.00000  Uiso   1.00
O67    O     0.27267   0.16667   0.31492   0.00000  Uiso   1.00
O68    O     0.06067   0.16667   0.18508   0.00000  Uiso   1.00
C69    C     0.33339   0.08740   0.25003   0.00000  Uiso   1.00
C70    C     0.37586   0.02107   0.24964   0.00000  Uiso   1.00
C71    C     0.66658   0.29057   0.24999   0.00000  Uiso   1.00
C72    C     0.33342   0.04276   0.25001   0.00000  Uiso   1.00
C73    C     0.51741   0.14005   0.27702   0.00000  Uiso   1.00
C74    C     0.48259   0.19328   0.22298   0.00000  Uiso   1.00
C75    C     0.46783   0.14020   0.27742   0.00000  Uiso   1.00
C76    C     0.53217   0.19313   0.22258   0.00000  Uiso   1.00
C77    C     0.63951   0.16824   0.33610   0.00000  Uiso   1.00
C78    C     0.36049   0.16509   0.16391   0.00000  Uiso   1.00
C79    C     0.62467   0.17343   0.38530   0.00000  Uiso   1.00
C80    C     0.66661   0.24594   0.24997   0.00000  Uiso   1.00
C81    C     0.37533   0.15990   0.11470   0.00000  Uiso   1.00
C82    C     0.63693   0.19742   0.45551   0.00000  Uiso   1.00
C83    C     0.36307   0.13592   0.04449   0.00000  Uiso   1.00
C84    C     0.65343   0.19401   0.40878   0.00000  Uiso   1.00
C85    C     0.34657   0.13932   0.09122   0.00000  Uiso   1.00
C86    C     0.57823   0.16050   0.40870   0.00000  Uiso   1.00
C87    C     0.42177   0.17284   0.09130   0.00000  Uiso   1.00
C88    C     0.55788   0.17101   0.45384   0.00000  Uiso   1.00
C89    C     0.44212   0.16233   0.04616   0.00000  Uiso   1.00
C90    C     0.58971   0.18533   0.47818   0.00000  Uiso   1.00
C91    C     0.52827   0.17311   0.04778   0.00000  Uiso   1.00
C92    C     0.41029   0.14800   0.02182   0.00000  Uiso   1.00
C93    C     0.50764   0.16580   0.47599   0.00000  Uiso   1.00
C94    C     0.49236   0.16753   0.02401   0.00000  Uiso   1.00
C95    C     0.63545   0.11889   0.11431   0.00000  Uiso   1.00
C96    C     0.36455   0.21444   0.38569   0.00000  Uiso   1.00
C97    C     0.52115   0.16100   0.09430   0.00000  Uiso   1.00
C98    C     0.47885   0.17234   0.40570   0.00000  Uiso   1.00
C99    C     0.43561   0.11255   0.30803   0.00000  Uiso   1.00
C100   C     0.56439   0.22078   0.19197   0.00000  Uiso   1.00
C101   C     0.47173   0.16022   0.45222   0.00000  Uiso   1.00
C102   C     0.57489   0.18546   0.02492   0.00000  Uiso   1.00
C103   C     0.42511   0.14787   0.47508   0.00000  Uiso   1.00
C104   C     0.62423   0.02152   0.25036   0.00000  Uiso   1.00
C105   C     0.37577   0.31182   0.24964   0.00000  Uiso   1.00
C106   C     0.62414   0.31227   0.25036   0.00000  Uiso   1.00
Cu107  Cu    0.38022   0.16667   0.25000   0.00000  Uiso   1.00
Cu108  Cu    0.61978   0.16666   0.25000   0.00000  Uiso   1.00
H109   H     0.60094   0.19224   0.04371   0.00000  Uiso   1.00
H110   H     0.40910   0.03689   0.24932   0.00000  Uiso   1.00
H111   H     0.53027   0.11897   0.29882   0.00000  Uiso   1.00
H112   H     0.46973   0.21437   0.20118   0.00000  Uiso   1.00
H113   H     0.39906   0.14109   0.45629   0.00000  Uiso   1.00
H114   H     0.44134   0.19185   0.10880   0.00000  Uiso   1.00
H115   H     0.55866   0.14148   0.39120   0.00000  Uiso   1.00
H116   H     0.66030   0.21071   0.47404   0.00000  Uiso   1.00
H117   H     0.33970   0.12262   0.02596   0.00000  Uiso   1.00
H118   H     0.59101   0.03770   0.25065   0.00000  Uiso   1.00
H119   H     0.40899   0.29563   0.24935   0.00000  Uiso   1.00
H120   H     0.59090   0.29644   0.25068   0.00000  Uiso   1.00
N121   N     0.45069   0.16668   0.24999   0.00000  Uiso   1.00
N122   N     0.54931   0.16666   0.25001   0.00000  Uiso   1.00
N123   N     0.60026   0.10196   0.13300   0.00000  Uiso   1.00
N124   N     0.39974   0.23137   0.36700   0.00000  Uiso   1.00
N125   N     0.51516   0.15098   0.13152   0.00000  Uiso   1.00
N126   N     0.48484   0.18235   0.36848   0.00000  Uiso   1.00
N127   N     0.40991   0.09027   0.33284   0.00000  Uiso   1.00
N128   N     0.59009   0.24306   0.16716   0.00000  Uiso   1.00
O129   O     0.37291   0.10655   0.25000   0.00000  Uiso   1.00
O130   O     0.62709   0.22678   0.25000   0.00000  Uiso   1.00
O131   O     0.62706   0.10654   0.25001   0.00000  Uiso   1.00
O132   O     0.37294   0.22679   0.25000   0.00000  Uiso   1.00
O133   O     0.35186   0.16668   0.31492   0.00000  Uiso   1.00
O134   O     0.64814   0.16666   0.18509   0.00000  Uiso   1.00
O135   O     0.60600   0.16667   0.31492   0.00000  Uiso   1.00
O136   O     0.39400   0.16667   0.18508   0.00000  Uiso   1.00
C137   C     0.66672   0.08740   0.25003   0.00000  Uiso   1.00
C138   C     0.70919   0.02107   0.24964   0.00000  Uiso   1.00
C139   C     0.99992   0.29057   0.24999   0.00000  Uiso   1.00
C140   C     0.66675   0.04276   0.25001   0.00000  Uiso   1.00
C141   C     0.85074   0.14005   0.27702   0.00000  Uiso   1.00
C142   C     0.81592   0.19328   0.22298   0.00000  Uiso   1.00
C143   C     0.80116   0.14020   0.27742   0.00000  Uiso   1.00
C144   C     0.86551   0.19313   0.22258   0.00000  Uiso   1.00
C145   C     0.97284   0.16824   0.33610   0.00000  Uiso   1.00
C146   C     0.69383   0.16509   0.16391   0.00000  Uiso   1.00
C147   C     0.95800   0.17343   0.38530   0.00000  Uiso   1.00
C148   C     0.99994   0.24594   0.24997   0.00000  Uiso   1.00
C149   C     0.70867   0.15990   0.11470   0.00000  Uiso   1.00
C150   C     0.97027   0.19742   0.45551   0.00000  Uiso   1.00
C151   C     0.69640   0.13592   0.04449   0.00000  Uiso   1.00
C152   C     0.98677   0.19401   0.40878   0.00000  Uiso   1.00
C153   C     0.67990   0.13932   0.09122   0.00000  Uiso   1.00
C154   C     0.91156   0.16050   0.40870   0.00000  Uiso   1.00
C155   C     0.75511   0.17284   0.09130   0.00000  Uiso   1.00
C156   C     0.89121   0.17101   0.45384   0.00000  Uiso   1.00
C157   C     0.77546   0.16233   0.04616   0.00000  Uiso   1.00
C158   C     0.92304   0.18533   0.47818   0.00000  Uiso   1.00
C159   C     0.86160   0.17311   0.04778   0.00000  Uiso   1.00
C160   C     0.74363   0.14800   0.02182   0.00000  Uiso   1.00
C161   C     0.84097   0.16580   0.47599   0.00000  Uiso   1.00
C162   C     0.82570   0.16753   0.02401   0.00000  Uiso   1.00
C163   C     0.96878   0.11889   0.11431   0.00000  Uiso   1.00
C164   C     0.69788   0.21444   0.38569   0.00000  Uiso   1.00
C165   C     0.85448   0.16100   0.09430   0.00000  Uiso   1.00
C166   C     0.81219   0.17234   0.40570   0.00000  Uiso   1.00
C167   C     0.76894   0.11255   0.30803   0.00000  Uiso   1.00
C168   C     0.89773   0.22078   0.19197   0.00000  Uiso   1.00
C169   C     0.80506   0.16022   0.45222   0.00000  Uiso   1.00
C170   C     0.90823   0.18546   0.02492   0.00000  Uiso   1.00
C171   C     0.75844   0.14787   0.47508   0.00000  Uiso   1.00
C172   C     0.95756   0.02152   0.25036   0.00000  Uiso   1.00
C173   C     0.70911   0.31182   0.24964   0.00000  Uiso   1.00
C174   C     0.95748   0.31227   0.25036   0.00000  Uiso   1.00
Cu175  Cu    0.71355   0.16667   0.25000   0.00000  Uiso   1.00
Cu176  Cu    0.95311   0.16666   0.25000   0.00000  Uiso   1.00
H177   H     0.93427   0.19224   0.04371   0.00000  Uiso   1.00
H178   H     0.74243   0.03689   0.24932   0.00000  Uiso   1.00
H179   H     0.86360   0.11897   0.29882   0.00000  Uiso   1.00
H180   H     0.80306   0.21437   0.20118   0.00000  Uiso   1.00
H181   H     0.73240   0.14109   0.45629   0.00000  Uiso   1.00
H182   H     0.77468   0.19185   0.10880   0.00000  Uiso   1.00
H183   H     0.89199   0.14148   0.39120   0.00000  Uiso   1.00
H184   H     0.99364   0.21071   0.47404   0.00000  Uiso   1.00
H185   H     0.67303   0.12262   0.02596   0.00000  Uiso   1.00
H186   H     0.92434   0.03770   0.25065   0.00000  Uiso   1.00
H187   H     0.74232   0.29563   0.24935   0.00000  Uiso   1.00
H188   H     0.92424   0.29644   0.25068   0.00000  Uiso   1.00
N189   N     0.78403   0.16668   0.24999   0.00000  Uiso   1.00
N190   N     0.88264   0.16666   0.25001   0.00000  Uiso   1.00
N191   N     0.93360   0.10196   0.13300   0.00000  Uiso   1.00
N192   N     0.73307   0.23137   0.36700   0.00000  Uiso   1.00
N193   N     0.84850   0.15098   0.13152   0.00000  Uiso   1.00
N194   N     0.81817   0.18235   0.36848   0.00000  Uiso   1.00
N195   N     0.74324   0.09027   0.33284   0.00000  Uiso   1.00
N196   N     0.92342   0.24306   0.16716   0.00000  Uiso   1.00
O197   O     0.70625   0.10655   0.25000   0.00000  Uiso   1.00
O198   O     0.96042   0.22678   0.25000   0.00000  Uiso   1.00
O199   O     0.96039   0.10654   0.25001   0.00000  Uiso   1.00
O200   O     0.70628   0.22679   0.25000   0.00000  Uiso   1.00
O201   O     0.68519   0.16668   0.31492   0.00000  Uiso   1.00
O202   O     0.98148   0.16666   0.18509   0.00000  Uiso   1.00
O203   O     0.93933   0.16667   0.31492   0.00000  Uiso   1.00
O204   O     0.72733   0.16667   0.18508   0.00000  Uiso   1.00
C205   C     0.00006   0.42073   0.25003   0.00000  Uiso   1.00
C206   C     0.04252   0.35440   0.24964   0.00000  Uiso   1.00
C207   C     0.33325   0.62391   0.24999   0.00000  Uiso   1.00
C208   C     0.00009   0.37609   0.25001   0.00000  Uiso   1.00
C209   C     0.18408   0.47339   0.27702   0.00000  Uiso   1.00
C210   C     0.14926   0.52661   0.22298   0.00000  Uiso   1.00
C211   C     0.13449   0.47353   0.27742   0.00000  Uiso   1.00
C212   C     0.19884   0.52647   0.22258   0.00000  Uiso   1.00
C213   C     0.30617   0.50158   0.33610   0.00000  Uiso   1.00
C214   C     0.02716   0.49842   0.16391   0.00000  Uiso   1.00
C215   C     0.29133   0.50677   0.38530   0.00000  Uiso   1.00
C216   C     0.33328   0.57927   0.24997   0.00000  Uiso   1.00
C217   C     0.04200   0.49323   0.11470   0.00000  Uiso   1.00
C218   C     0.30360   0.53075   0.45551   0.00000  Uiso   1.00
C219   C     0.02973   0.46925   0.04449   0.00000  Uiso   1.00
C220   C     0.32010   0.52735   0.40878   0.00000  Uiso   1.00
C221   C     0.01323   0.47265   0.09122   0.00000  Uiso   1.00
C222   C     0.24489   0.49383   0.40870   0.00000  Uiso   1.00
C223   C     0.08844   0.50617   0.09130   0.00000  Uiso   1.00
C224   C     0.22454   0.50434   0.45384   0.00000  Uiso   1.00
C225   C     0.10879   0.49566   0.04616   0.00000  Uiso   1.00
C226   C     0.25637   0.51866   0.47818   0.00000  Uiso   1.00
C227   C     0.19494   0.50645   0.04778   0.00000  Uiso   1.00
C228   C     0.07696   0.48134   0.02182   0.00000  Uiso   1.00
C229   C     0.17430   0.49914   0.47599   0.00000  Uiso   1.00
C230   C     0.15903   0.50086   0.02401   0.00000  Uiso   1.00
C231   C     0.30212   0.45223   0.11431   0.00000  Uiso   1.00
C232   C     0.03122   0.54777   0.38569   0.00000  Uiso   1.00
C233   C     0.18781   0.49433   0.09430   0.00000  Uiso   1.00
C234   C     0.14552   0.50567   0.40570   0.00000  Uiso   1.00
C235   C     0.10227   0.44588   0.30803   0.00000  Uiso   1.00
C236   C     0.23106   0.55412   0.19197   0.00000  Uiso   1.00
C237   C     0.13840   0.49355   0.45222   0.00000  Uiso   1.00
C238   C     0.24156   0.51879   0.02492   0.00000  Uiso   1.00
C239   C     0.09177   0.48121   0.47508   0.00000  Uiso   1.00
C240   C     0.29089   0.35485   0.25036   0.00000  Uiso   1.00
C241   C     0.04244   0.64515   0.24964   0.00000  Uiso   1.00
C242   C     0.29081   0.64560   0.25036   0.00000  Uiso   1.00
Cu243  Cu    0.04689   0.50001   0.25000   0.00000  Uiso   1.00
Cu244  Cu    0.28645   0.49999   0.25000   0.00000  Uiso   1.00
H245   H     0.26760   0.52557   0.04371   0.00000  Uiso   1.00
H246   H     0.07576   0.37022   0.24932   0.00000  Uiso   1.00
H247   H     0.19694   0.45230   0.29882   0.00000  Uiso   1.00
H248   H     0.13640   0.54770   0.20118   0.00000  Uiso   1.00
H249   H     0.06573   0.47443   0.45629   0.00000  Uiso   1.00
H250   H     0.10801   0.52519   0.10880   0.00000  Uiso   1.00
H251   H     0.22532   0.47481   0.39120   0.00000  Uiso   1.00
H252   H     0.32697   0.54404   0.47404   0.00000  Uiso   1.00
H253   H     0.00636   0.45596   0.02596   0.00000  Uiso   1.00
H254   H     0.25768   0.37103   0.25065   0.00000  Uiso   1.00
H255   H     0.07566   0.62897   0.24935   0.00000  Uiso   1.00
H256   H     0.25757   0.62978   0.25068   0.00000  Uiso   1.00
N257   N     0.11736   0.50001   0.24999   0.00000  Uiso   1.00
N258   N     0.21597   0.49999   0.25001   0.00000  Uiso   1.00
N259   N     0.26693   0.43529   0.13300   0.00000  Uiso   1.00
N260   N     0.06640   0.56470   0.36700   0.00000  Uiso   1.00
N261   N     0.18183   0.48432   0.13152   0.00000  Uiso   1.00
N262   N     0.15150   0.51568   0.36848   0.00000  Uiso   1.00
N263   N     0.07658   0.42360   0.33284   0.00000  Uiso   1.00
N264   N     0.25676   0.57640   0.16716   0.00000  Uiso   1.00
O265   O     0.03958   0.43989   0.25000   0.00000  Uiso   1.00
O266   O     0.29375   0.56011   0.25000   0.00000  Uiso   1.00
O267   O     0.29372   0.43988   0.25001   0.00000  Uiso   1.00
O268   O     0.03961   0.56012   0.25000   0.00000  Uiso   1.00
O269   O     0.01852   0.50001   0.31492   0.00000  Uiso   1.00
O270   O     0.31481   0.49999   0.18509   0.00000  Uiso   1.00
O271   O     0.27267   0.50000   0.31492   0.00000  Uiso   1.00
O272   O     0.06067   0.50000   0.18508   0.00000  Uiso   1.00
C273   C     0.33339   0.42073   0.25003   0.00000  Uiso   1.00
C274   C     0.37586   0.35440   0.24964   0.00000  Uiso   1.00
C275   C     0.66658   0.62391   0.24999   0.00000  Uiso   1.00
C276   C     0.33342   0.37609   0.25001   0.00000  Uiso   1.00
C277   C     0.51741   0.47339   0.27702   0.00000  Uiso   1.00
C278   C     0.48259   0.52661   0.22298   0.00000  Uiso   1.00
C279   C     0.46783   0.47353   0.27742   0.00000  Uiso   1.00
C280   C     0.53217   0.52647   0.22258   0.00000  Uiso   1.00
C281   C     0.63951   0.50158   0.33610   0.00000  Uiso   1.00
C282   C     0.36049   0.49842   0.16391   0.00000  Uiso   1.00
C283   C     0.62467   0.50677   0.38530   0.00000  Uiso   1.00
C284   C     0.66661   0.57927   0.24997   0.00000  Uiso   1.00
C285   C     0.37533   0.49323   0.11470   0.00000  Uiso   1.00
C286   C     0.63693   0.53075   0.45551   0.00000  Uiso   1.00
C287   C     0.36307   0.46925   0.04449   0.00000  Uiso   1.00
C288   C     0.65343   0.52735   0.40878   0.00000  Uiso   1.00
C289   C     0.34657   0.47265   0.09122   0.00000  Uiso   1.00
C290   C     0.57823   0.49383   0.40870   0.00000  Uiso   1.00
C291   C     0.42177   0.50617   0.09130   0.00000  Uiso   1.00
C292   C     0.55788   0.50434   0.45384   0.00000  Uiso   1.00
C293   C     0.44212   0.49566   0.04616   0.00000  Uiso   1.00
C294   C     0.58971   0.51866   0.47818   0.00000  Uiso   1.00
C295   C     0.52827   0.50645   0.04778   0.00000  Uiso   1.00
C296   C     0.41029   0.48134   0.02182   0.00000  Uiso   1.00
C297   C     0.50764   0.49914   0.47599   0.00000  Uiso   1.00
C298   C     0.49236   0.50086   0.02401   0.00000  Uiso   1.00
C299   C     0.63545   0.45223   0.11431   0.00000  Uiso   1.00
C300   C     0.36455   0.54777   0.38569   0.00000  Uiso   1.00
C301   C     0.52115   0.49433   0.09430   0.00000  Uiso   1.00
C302   C     0.47885   0.50567   0.40570   0.00000  Uiso   1.00
C303   C     0.43561   0.44588   0.30803   0.00000  Uiso   1.00
C304   C     0.56439   0.55412   0.19197   0.00000  Uiso   1.00
C305   C     0.47173   0.49355   0.45222   0.00000  Uiso   1.00
C306   C     0.57489   0.51879   0.02492   0.00000  Uiso   1.00
C307   C     0.42511   0.48121   0.47508   0.00000  Uiso   1.00
C308   C     0.62423   0.35485   0.25036   0.00000  Uiso   1.00
C309   C     0.37577   0.64515   0.24964   0.00000  Uiso   1.00
C310   C     0.62414   0.64560   0.25036   0.00000  Uiso   1.00
Cu311  Cu    0.38022   0.50001   0.25000   0.00000  Uiso   1.00
Cu312  Cu    0.61978   0.49999   0.25000   0.00000  Uiso   1.00
H313   H     0.60094   0.52557   0.04371   0.00000  Uiso   1.00
H314   H     0.40910   0.37022   0.24932   0.00000  Uiso   1.00
H315   H     0.53027   0.45230   0.29882   0.00000  Uiso   1.00
H316   H     0.46973   0.54770   0.20118   0.00000  Uiso   1.00
H317   H     0.39906   0.47443   0.45629   0.00000  Uiso   1.00
H318   H     0.44134   0.52519   0.10880   0.00000  Uiso   1.00
H319   H     0.55866   0.47481   0.39120   0.00000  Uiso   1.00
H320   H     0.66030   0.54404   0.47404   0.00000  Uiso   1.00
H321   H     0.33970   0.45596   0.02596   0.00000  Uiso   1.00
H322   H     0.59101   0.37103   0.25065   0.00000  Uiso   1.00
H323   H     0.40899   0.62897   0.24935   0.00000  Uiso   1.00
H324   H     0.59090   0.62978   0.25068   0.00000  Uiso   1.00
N325   N     0.45069   0.50001   0.24999   0.00000  Uiso   1.00
N326   N     0.54931   0.49999   0.25001   0.00000  Uiso   1.00
N327   N     0.60026   0.43529   0.13300   0.00000  Uiso   1.00
N328   N     0.39974   0.56470   0.36700   0.00000  Uiso   1.00
N329   N     0.51516   0.48432   0.13152   0.00000  Uiso   1.00
N330   N     0.48484   0.51568   0.36848   0.00000  Uiso   1.00
N331   N     0.40991   0.42360   0.33284   0.00000  Uiso   1.00
N332   N     0.59009   0.57640   0.16716   0.00000  Uiso   1.00
O333   O     0.37291   0.43989   0.25000   0.00000  Uiso   1.00
O334   O     0.62709   0.56011   0.25000   0.00000  Uiso   1.00
O335   O     0.62706   0.43988   0.25001   0.00000  Uiso   1.00
O336   O     0.37294   0.56012   0.25000   0.00000  Uiso   1.00
O337   O     0.35186   0.50001   0.31492   0.00000  Uiso   1.00
O338   O     0.64814   0.49999   0.18509   0.00000  Uiso   1.00
O339   O     0.60600   0.50000   0.31492   0.00000  Uiso   1.00
O340   O     0.39400   0.50000   0.18508   0.00000  Uiso   1.00
C341   C     0.66672   0.42073   0.25003   0.00000  Uiso   1.00
C342   C     0.70919   0.35440   0.24964   0.00000  Uiso   1.00
C343   C     0.99992   0.62391   0.24999   0.00000  Uiso   1.00
C344   C     0.66675   0.37609   0.25001   0.00000  Uiso   1.00
C345   C     0.85074   0.47339   0.27702   0.00000  Uiso   1.00
C346   C     0.81592   0.52661   0.22298   0.00000  Uiso   1.00
C347   C     0.80116   0.47353   0.27742   0.00000  Uiso   1.00
C348   C     0.86551   0.52647   0.22258   0.00000  Uiso   1.00
C349   C     0.97284   0.50158   0.33610   0.00000  Uiso   1.00
C350   C     0.69383   0.49842   0.16391   0.00000  Uiso   1.00
C351   C     0.95800   0.50677   0.38530   0.00000  Uiso   1.00
C352   C     0.99994   0.57927   0.24997   0.00000  Uiso   1.00
C353   C     0.70867   0.49323   0.11470   0.00000  Uiso   1.00
C354   C     0.97027   0.53075   0.45551   0.00000  Uiso   1.00
C355   C     0.69640   0.46925   0.04449   0.00000  Uiso   1.00
C356   C     0.98677   0.52735   0.40878   0.00000  Uiso   1.00
C357   C     0.67990   0.47265   0.09122   0.00000  Uiso   1.00
C358   C     0.91156   0.49383   0.40870   0.00000  Uiso   1.00
C359   C     0.75511   0.50617   0.09130   0.00000  Uiso   1.00
C360   C     0.89121   0.50434   0.45384   0.00000  Uiso   1.00
C361   C     0.77546   0.49566   0.04616   0.00000  Uiso   1.00
C362   C     0.92304   0.51866   0.47818   0.00000  Uiso   1.00
C363   C     0.86160   0.50645   0.04778   0.00000  Uiso   1.00
C364   C     0.74363   0.48134   0.02182   0.00000  Uiso   1.00
C365   C     0.84097   0.49914   0.47599   0.00000  Uiso   1.00
C366   C     0.82570   0.50086   0.02401   0.00000  Uiso   1.00
C367   C     0.96878   0.45223   0.11431   0.00000  Uiso   1.00
C368   C     0.69788   0.54777   0.38569   0.00000  Uiso   1.00
C369   C     0.85448   0.49433   0.09430   0.00000  Uiso   1.00
C370   C     0.81219   0.50567   0.40570   0.00000  Uiso   1.00
C371   C     0.76894   0.44588   0.30803   0.00000  Uiso   1.00
C372   C     0.89773   0.55412   0.19197   0.00000  Uiso   1.00
C373   C     0.80506   0.49355   0.45222   0.00000  Uiso   1.00
C374   C     0.90823   0.51879   0.02492   0.00000  Uiso   1.00
C375   C     0.75844   0.48121   0.47508   0.00000  Uiso   1.00
C376   C     0.95756   0.35485   0.25036   0.00000  Uiso   1.00
C377   C     0.70911   0.64515   0.24964   0.00000  Uiso   1.00
C378   C     0.95748   0.64560   0.25036   0.00000  Uiso   1.00
Cu379  Cu    0.71355   0.50001   0.25000   0.00000  Uiso   1.00
Cu380  Cu    0.95311   0.49999   0.25000   0.00000  Uiso   1.00
H381   H     0.93427   0.52557   0.04371   0.00000  Uiso   1.00
H382   H     0.74243   0.37022   0.24932   0.00000  Uiso   1.00
H383   H     0.86360   0.45230   0.29882   0.00000  Uiso   1.00
H384   H     0.80306   0.54770   0.20118   0.00000  Uiso   1.00
H385   H     0.73240   0.47443   0.45629   0.00000  Uiso   1.00
H386   H     0.77468   0.52519   0.10880   0.00000  Uiso   1.00
H387   H     0.89199   0.47481   0.39120   0.00000  Uiso   1.00
H388   H     0.99364   0.54404   0.47404   0.00000  Uiso   1.00
H389   H     0.67303   0.45596   0.02596   0.00000  Uiso   1.00
H390   H     0.92434   0.37103   0.25065   0.00000  Uiso   1.00
H391   H     0.74232   0.62897   0.24935   0.00000  Uiso   1.00
H392   H     0.92424   0.62978   0.25068   0.00000  Uiso   1.00
N393   N     0.78403   0.50001   0.24999   0.00000  Uiso   1.00
N394   N     0.88264   0.49999   0.25001   0.00000  Uiso   1.00
N395   N     0.93360   0.43529   0.13300   0.00000  Uiso   1.00
N396   N     0.73307   0.56470   0.36700   0.00000  Uiso   1.00
N397   N     0.84850   0.48432   0.13152   0.00000  Uiso   1.00
N398   N     0.81817   0.51568   0.36848   0.00000  Uiso   1.00
N399   N     0.74324   0.42360   0.33284   0.00000  Uiso   1.00
N400   N     0.92342   0.57640   0.16716   0.00000  Uiso   1.00
O401   O     0.70625   0.43989   0.25000   0.00000  Uiso   1.00
O402   O     0.96042   0.56011   0.25000   0.00000  Uiso   1.00
O403   O     0.96039   0.43988   0.25001   0.00000  Uiso   1.00
O404   O     0.70628   0.56012   0.25000   0.00000  Uiso   1.00
O405   O     0.68519   0.50001   0.31492   0.00000  Uiso   1.00
O406   O     0.98148   0.49999   0.18509   0.00000  Uiso   1.00
O407   O     0.93933   0.50000   0.31492   0.00000  Uiso   1.00
O408   O     0.72733   0.50000   0.18508   0.00000  Uiso   1.00
C409   C     0.00006   0.75406   0.25003   0.00000  Uiso   1.00
C410   C     0.04252   0.68773   0.24964   0.00000  Uiso   1.00
C411   C     0.33325   0.95724   0.24999   0.00000  Uiso   1.00
C412   C     0.00009   0.70943   0.25001   0.00000  Uiso   1.00
C413   C     0.18408   0.80672   0.27702   0.00000  Uiso   1.00
C414   C     0.14926   0.85995   0.22298   0.00000  Uiso   1.00
C415   C     0.13449   0.80687   0.27742   0.00000  Uiso   1.00
C416   C     0.19884   0.85980   0.22258   0.00000  Uiso   1.00
C417   C     0.30617   0.83491   0.33610   0.00000  Uiso   1.00
C418   C     0.02716   0.83176   0.16391   0.00000  Uiso   1.00
C419   C     0.29133   0.84010   0.38530   0.00000  Uiso   1.00
C420   C     0.33328   0.91260   0.24997   0.00000  Uiso   1.00
C421   C     0.04200   0.82657   0.11470   0.00000  Uiso   1.00
C422   C     0.30360   0.86408   0.45551   0.00000  Uiso   1.00
C423   C     0.02973   0.80258   0.04449   0.00000  Uiso   1.00
C424   C     0.32010   0.86068   0.40878   0.00000  Uiso   1.00
C425   C     0.01323   0.80599   0.09122   0.00000  Uiso   1.00
C426   C     0.24489   0.82716   0.40870   0.00000  Uiso   1.00
C427   C     0.08844   0.83950   0.09130   0.00000  Uiso   1.00
C428   C     0.22454   0.83767   0.45384   0.00000  Uiso   1.00
C429   C     0.10879   0.82899   0.04616   0.00000  Uiso   1.00
C430   C     0.25637   0.85200   0.47818   0.00000  Uiso   1.00
C431   C     0.19494   0.83978   0.04778   0.00000  Uiso   1.00
C432   C     0.07696   0.81467   0.02182   0.00000  Uiso   1.00
C433   C     0.17430   0.83247   0.47599   0.00000  Uiso   1.00
C434   C     0.15903   0.83419   0.02401   0.00000  Uiso   1.00
C435   C     0.30212   0.78556   0.11431   0.00000  Uiso   1.00
C436   C     0.03122   0.88111   0.38569   0.00000  Uiso   1.00
C437   C     0.18781   0.82766   0.09430   0.00000  Uiso   1.00
C438   C     0.14552   0.83900   0.40570   0.00000  Uiso   1.00
C439   C     0.10227   0.77922   0.30803   0.00000  Uiso   1.00
C440   C     0.23106   0.88745   0.19197   0.00000  Uiso   1.00
C441   C     0.13840   0.82689   0.45222   0.00000  Uiso   1.00
C442   C     0.24156   0.85213   0.02492   0.00000  Uiso   1.00
C443   C     0.09177   0.81454   0.47508   0.00000  Uiso   1.00
C444   C     0.29089   0.68818   0.25036   0.00000  Uiso   1.00
C445   C     0.04244   0.97848   0.24964   0.00000  Uiso   1.00
C446   C     0.29081   0.97893   0.25036   0.00000  Uiso   1.00
Cu447  Cu    0.04689   0.83334   0.25000   0.00000  Uiso   1.00
Cu448  Cu    0.28645   0.83333   0.25000   0.00000  Uiso   1.00
H449   H     0.26760   0.85891   0.04371   0.00000  Uiso   1.00
H450   H     0.07576   0.70356   0.24932   0.00000  Uiso   1.00
H451   H     0.19694   0.78563   0.29882   0.00000  Uiso   1.00
H452   H     0.13640   0.88103   0.20118   0.00000  Uiso   1.00
H453   H     0.06573   0.80776   0.45629   0.00000  Uiso   1.00
H454   H     0.10801   0.85852   0.10880   0.00000  Uiso   1.00
H455   H     0.22532   0.80815   0.39120   0.00000  Uiso   1.00
H456   H     0.32697   0.87738   0.47404   0.00000  Uiso   1.00
H457   H     0.00636   0.78929   0.02596   0.00000  Uiso   1.00
H458   H     0.25768   0.70437   0.25065   0.00000  Uiso   1.00
H459   H     0.07566   0.96230   0.24935   0.00000  Uiso   1.00
H460   H     0.25757   0.96311   0.25068   0.00000  Uiso   1.00
N461   N     0.11736   0.83334   0.24999   0.00000  Uiso   1.00
N462   N     0.21597   0.83332   0.25001   0.00000  Uiso   1.00
N463   N     0.26693   0.76863   0.13300   0.00000  Uiso   1.00
N464   N     0.06640   0.89804   0.36700   0.00000  Uiso   1.00
N465   N     0.18183   0.81765   0.13152   0.00000  Uiso   1.00
N466   N     0.15150   0.84902   0.36848   0.00000  Uiso   1.00
N467   N     0.07658   0.75694   0.33284   0.00000  Uiso   1.00
N468   N     0.25676   0.90973   0.16716   0.00000  Uiso   1.00
O469   O     0.03958   0.77322   0.25000   0.00000  Uiso   1.00
O470   O     0.29375   0.89345   0.25000   0.00000  Uiso   1.00
O471   O     0.29372   0.77321   0.25001   0.00000  Uiso   1.00
O472   O     0.03961   0.89346   0.25000   0.00000  Uiso   1.00
O473   O     0.01852   0.83334   0.31492   0.00000  Uiso   1.00
O474   O     0.31481   0.83332   0.18509   0.00000  Uiso   1.00
O475   O     0.27267   0.83333   0.31492   0.00000  Uiso   1.00
O476   O     0.06067   0.83333   0.18508   0.00000  Uiso   1.00
C477   C     0.33339   0.75406   0.25003   0.00000  Uiso   1.00
C478   C     0.37586   0.68773   0.24964   0.00000  Uiso   1.00
C479   C     0.66658   0.95724   0.24999   0.00000  Uiso   1.00
C480   C     0.33342   0.70943   0.25001   0.00000  Uiso   1.00
C481   C     0.51741   0.80672   0.27702   0.00000  Uiso   1.00
C482   C     0.48259   0.85995   0.22298   0.00000  Uiso   1.00
C483   C     0.46783   0.80687   0.27742   0.00000  Uiso   1.00
C484   C     0.53217   0.85980   0.22258   0.00000  Uiso   1.00
C485   C     0.63951   0.83491   0.33610   0.00000  Uiso   1.00
C486   C     0.36049   0.83176   0.16391   0.00000  Uiso   1.00
C487   C     0.62467   0.84010   0.38530   0.00000  Uiso   1.00
C488   C     0.66661   0.91260   0.24997   0.00000  Uiso   1.00
C489   C     0.37533   0.82657   0.11470   0.00000  Uiso   1.00
C490   C     0.63693   0.86408   0.45551   0.00000  Uiso   1.00
C491   C     0.36307   0.80258   0.04449   0.00000  Uiso   1.00
C492   C     0.65343   0.86068   0.40878   0.00000  Uiso   1.00
C493   C     0.34657   0.80599   0.09122   0.00000  Uiso   1.00
C494   C     0.57823   0.82716   0.40870   0.00000  Uiso   1.00
C495   C     0.42177   0.83950   0.09130   0.00000  Uiso   1.00
C496   C     0.55788   0.83767   0.45384   0.00000  Uiso   1.00
C497   C     0.44212   0.82899   0.04616   0.00000  Uiso   1.00
C498   C     0.58971   0.85200   0.47818   0.00000  Uiso   1.00
C499   C     0.52827   0.83978   0.04778   0.00000  Uiso   1.00
C500   C     0.41029   0.81467   0.02182   0.00000  Uiso   1.00
C501   C     0.50764   0.83247   0.47599   0.00000  Uiso   1.00
C502   C     0.49236   0.83419   0.02401   0.00000  Uiso   1.00
C503   C     0.63545   0.78556   0.11431   0.00000  Uiso   1.00
C504   C     0.36455   0.88111   0.38569   0.00000  Uiso   1.00
C505   C     0.52115   0.82766   0.09430   0.00000  Uiso   1.00
C506   C     0.47885   0.83900   0.40570   0.00000  Uiso   1.00
C507   C     0.43561   0.77922   0.30803   0.00000  Uiso   1.00
C508   C     0.56439   0.88745   0.19197   0.00000  Uiso   1.00
C509   C     0.47173   0.82689   0.45222   0.00000  Uiso   1.00
C510   C     0.57489   0.85213   0.02492   0.00000  Uiso   1.00
C511   C     0.42511   0.81454   0.47508   0.00000  Uiso   1.00
C512   C     0.62423   0.68818   0.25036   0.00000  Uiso   1.00
C513   C     0.37577   0.97848   0.24964   0.00000  Uiso   1.00
C514   C     0.62414   0.97893   0.25036   0.00000  Uiso   1.00
Cu515  Cu    0.38022   0.83334   0.25000   0.00000  Uiso   1.00
Cu516  Cu    0.61978   0.83333   0.25000   0.00000  Uiso   1.00
H517   H     0.60094   0.85891   0.04371   0.00000  Uiso   1.00
H518   H     0.40910   0.70356   0.24932   0.00000  Uiso   1.00
H519   H     0.53027   0.78563   0.29882   0.00000  Uiso   1.00
H520   H     0.46973   0.88103   0.20118   0.00000  Uiso   1.00
H521   H     0.39906   0.80776   0.45629   0.00000  Uiso   1.00
H522   H     0.44134   0.85852   0.10880   0.00000  Uiso   1.00
H523   H     0.55866   0.80815   0.39120   0.00000  Uiso   1.00
H524   H     0.66030   0.87738   0.47404   0.00000  Uiso   1.00
H525   H     0.33970   0.78929   0.02596   0.00000  Uiso   1.00
H526   H     0.59101   0.70437   0.25065   0.00000  Uiso   1.00
H527   H     0.40899   0.96230   0.24935   0.00000  Uiso   1.00
H528   H     0.59090   0.96311   0.25068   0.00000  Uiso   1.00
N529   N     0.45069   0.83334   0.24999   0.00000  Uiso   1.00
N530   N     0.54931   0.83332   0.25001   0.00000  Uiso   1.00
N531   N     0.60026   0.76863   0.13300   0.00000  Uiso   1.00
N532   N     0.39974   0.89804   0.36700   0.00000  Uiso   1.00
N533   N     0.51516   0.81765   0.13152   0.00000  Uiso   1.00
N534   N     0.48484   0.84902   0.36848   0.00000  Uiso   1.00
N535   N     0.40991   0.75694   0.33284   0.00000  Uiso   1.00
N536   N     0.59009   0.90973   0.16716   0.00000  Uiso   1.00
O537   O     0.37291   0.77322   0.25000   0.00000  Uiso   1.00
O538   O     0.62709   0.89345   0.25000   0.00000  Uiso   1.00
O539   O     0.62706   0.77321   0.25001   0.00000  Uiso   1.00
O540   O     0.37294   0.89346   0.25000   0.00000  Uiso   1.00
O541   O     0.35186   0.83334   0.31492   0.00000  Uiso   1.00
O542   O     0.64814   0.83332   0.18509   0.00000  Uiso   1.00
O543   O     0.60600   0.83333   0.31492   0.00000  Uiso   1.00
O544   O     0.39400   0.83333   0.18508   0.00000  Uiso   1.00
C545   C     0.66672   0.75406   0.25003   0.00000  Uiso   1.00
C546   C     0.70919   0.68773   0.24964   0.00000  Uiso   1.00
C547   C     0.99992   0.95724   0.24999   0.00000  Uiso   1.00
C548   C     0.66675   0.70943   0.25001   0.00000  Uiso   1.00
C549   C     0.85074   0.80672   0.27702   0.00000  Uiso   1.00
C550   C     0.81592   0.85995   0.22298   0.00000  Uiso   1.00
C551   C     0.80116   0.80687   0.27742   0.00000  Uiso   1.00
C552   C     0.86551   0.85980   0.22258   0.00000  Uiso   1.00
C553   C     0.97284   0.83491   0.33610   0.00000  Uiso   1.00
C554   C     0.69383   0.83176   0.16391   0.00000  Uiso   1.00
C555   C     0.95800   0.84010   0.38530   0.00000  Uiso   1.00
C556   C     0.99994   0.91260   0.24997   0.00000  Uiso   1.00
C557   C     0.70867   0.82657   0.11470   0.00000  Uiso   1.00
C558   C     0.97027   0.86408   0.45551   0.00000  Uiso   1.00
C559   C     0.69640   0.80258   0.04449   0.00000  Uiso   1.00
C560   C     0.98677   0.86068   0.40878   0.00000  Uiso   1.00
C561   C     0.67990   0.80599   0.09122   0.00000  Uiso   1.00
C562   C     0.91156   0.82716   0.40870   0.00000  Uiso   1.00
C563   C     0.75511   0.83950   0.09130   0.00000  Uiso   1.00
C564   C     0.89121   0.83767   0.45384   0.00000  Uiso   1.00
C565   C     0.77546   0.82899   0.04616   0.00000  Uiso   1.00
C566   C     0.92304   0.85200   0.47818   0.00000  Uiso   1.00
C567   C     0.86160   0.83978   0.04778   0.00000  Uiso   1.00
C568   C     0.74363   0.81467   0.02182   0.00000  Uiso   1.00
C569   C     0.84097   0.83247   0.47599   0.00000  Uiso   1.00
C570   C     0.82570   0.83419   0.02401   0.00000  Uiso   1.00
C571   C     0.96878   0.78556   0.11431   0.00000  Uiso   1.00
C572   C     0.69788   0.88111   0.38569   0.00000  Uiso   1.00
C573   C     0.85448   0.82766   0.09430   0.00000  Uiso   1.00
C574   C     0.81219   0.83900   0.40570   0.00000  Uiso   1.00
C575   C     0.76894   0.77922   0.30803   0.00000  Uiso   1.00
C576   C     0.89773   0.88745   0.19197   0.00000  Uiso   1.00
C577   C     0.80506   0.82689   0.45222   0.00000  Uiso   1.00
C578   C     0.90823   0.85213   0.02492   0.00000  Uiso   1.00
C579   C     0.75844   0.81454   0.47508   0.00000  Uiso   1.00
C580   C     0.95756   0.68818   0.25036   0.00000  Uiso   1.00
C581   C     0.70911   0.97848   0.24964   0.00000  Uiso   1.00
C582   C     0.95748   0.97893   0.25036   0.00000  Uiso   1.00
Cu583  Cu    0.71355   0.83334   0.25000   0.00000  Uiso   1.00
Cu584  Cu    0.95311   0.83333   0.25000   0.00000  Uiso   1.00
H585   H     0.93427   0.85891   0.04371   0.00000  Uiso   1.00
H586   H     0.74243   0.70356   0.24932   0.00000  Uiso   1.00
H587   H     0.86360   0.78563   0.29882   0.00000  Uiso   1.00
H588   H     0.80306   0.88103   0.20118   0.00000  Uiso   1.00
H589   H     0.73240   0.80776   0.45629   0.00000  Uiso   1.00
H590   H     0.77468   0.85852   0.10880   0.00000  Uiso   1.00
H591   H     0.89199   0.80815   0.39120   0.00000  Uiso   1.00
H592   H     0.99364   0.87738   0.47404   0.00000  Uiso   1.00
H593   H     0.67303   0.78929   0.02596   0.00000  Uiso   1.00
H594   H     0.92434   0.70437   0.25065   0.00000  Uiso   1.00
H595   H     0.74232   0.96230   0.24935   0.00000  Uiso   1.00
H596   H     0.92424   0.96311   0.25068   0.00000  Uiso   1.00
N597   N     0.78403   0.83334   0.24999   0.00000  Uiso   1.00
N598   N     0.88264   0.83332   0.25001   0.00000  Uiso   1.00
N599   N     0.93360   0.76863   0.13300   0.00000  Uiso   1.00
N600   N     0.73307   0.89804   0.36700   0.00000  Uiso   1.00
N601   N     0.84850   0.81765   0.13152   0.00000  Uiso   1.00
N602   N     0.81817   0.84902   0.36848   0.00000  Uiso   1.00
N603   N     0.74324   0.75694   0.33284   0.00000  Uiso   1.00
N604   N     0.92342   0.90973   0.16716   0.00000  Uiso   1.00
O605   O     0.70625   0.77322   0.25000   0.00000  Uiso   1.00
O606   O     0.96042   0.89345   0.25000   0.00000  Uiso   1.00
O607   O     0.96039   0.77321   0.25001   0.00000  Uiso   1.00
O608   O     0.70628   0.89346   0.25000   0.00000  Uiso   1.00
O609   O     0.68519   0.83334   0.31492   0.00000  Uiso   1.00
O610   O     0.98148   0.83332   0.18509   0.00000  Uiso   1.00
O611   O     0.93933   0.83333   0.31492   0.00000  Uiso   1.00
O612   O     0.72733   0.83333   0.18508   0.00000  Uiso   1.00
C613   C     0.00006   0.08740   0.75003   0.00000  Uiso   1.00
C614   C     0.04252   0.02107   0.74964   0.00000  Uiso   1.00
C615   C     0.33325   0.29057   0.74999   0.00000  Uiso   1.00
C616   C     0.00009   0.04276   0.75001   0.00000  Uiso   1.00
C617   C     0.18408   0.14005   0.77702   0.00000  Uiso   1.00
C618   C     0.14926   0.19328   0.72298   0.00000  Uiso   1.00
C619   C     0.13449   0.14020   0.77742   0.00000  Uiso   1.00
C620   C     0.19884   0.19313   0.72258   0.00000  Uiso   1.00
C621   C     0.30617   0.16824   0.83610   0.00000  Uiso   1.00
C622   C     0.02716   0.16509   0.66391   0.00000  Uiso   1.00
C623   C     0.29133   0.17343   0.88530   0.00000  Uiso   1.00
C624   C     0.33328   0.24594   0.74997   0.00000  Uiso   1.00
C625   C     0.04200   0.15990   0.61470   0.00000  Uiso   1.00
C626   C     0.30360   0.19742   0.95551   0.00000  Uiso   1.00
C627   C     0.02973   0.13592   0.54449   0.00000  Uiso   1.00
C628   C     0.32010   0.19401   0.90878   0.00000  Uiso   1.00
C629   C     0.01323   0.13932   0.59122   0.00000  Uiso   1.00
C630   C     0.24489   0.16050   0.90870   0.00000  Uiso   1.00
C631   C     0.08844   0.17284   0.59130   0.00000  Uiso   1.00
C632   C     0.22454   0.17101   0.95384   0.00000  Uiso   1.00
C633   C     0.10879   0.16233   0.54616   0.00000  Uiso   1.00
C634   C     0.25637   0.18533   0.97818   0.00000  Uiso   1.00
C635   C     0.19494   0.17311   0.54778   0.00000  Uiso   1.00
C636   C     0.07696   0.14800   0.52182   0.00000  Uiso   1.00
C637   C     0.17430   0.16580   0.97599   0.00000  Uiso   1.00
C638   C     0.15903   0.16753   0.52401   0.00000  Uiso   1.00
C639   C     0.30212   0.11889   0.61431   0.00000  Uiso   1.00
C640   C     0.03122   0.21444   0.88569   0.00000  Uiso   1.00
C641   C     0.18781   0.16100   0.59430   0.00000  Uiso   1.00
C642   C     0.14552   0.17234   0.90570   0.00000  Uiso   1.00
C643   C     0.10227   0.11255   0.80803   0.00000  Uiso   1.00
C644   C     0.23106   0.22078   0.69197   0.00000  Uiso   1.00
C645   C     0.13840   0.16022   0.95222   0.00000  Uiso   1.00
C646   C     0.24156   0.18546   0.52492   0.00000  Uiso   1.00
C647   C     0.09177   0.14787   0.97508   0.00000  Uiso   1.00
C648   C     0.29089   0.02152   0.75036   0.00000  Uiso   1.00
C649   C     0.04244   0.31182   0.74964   0.00000  Uiso   1.00
C650   C     0.29081   0.31227   0.75036   0.00000  Uiso   1.00
Cu651  Cu    0.04689   0.16667   0.75000   0.00000  Uiso   1.00
Cu652  Cu    0.28645   0.16666   0.75000   0.00000  Uiso   1.00
H653   H     0.26760   0.19224   0.54371   0.00000  Uiso   1.00
H654   H     0.07576   0.03689   0.74932   0.00000  Uiso   1.00
H655   H     0.19694   0.11897   0.79882   0.00000  Uiso   1.00
H656   H     0.13640   0.21437   0.70118   0.00000  Uiso   1.00
H657   H     0.06573   0.14109   0.95629   0.00000  Uiso   1.00
H658   H     0.10801   0.19185   0.60880   0.00000  Uiso   1.00
H659   H     0.22532   0.14148   0.89120   0.00000  Uiso   1.00
H660   H     0.32697   0.21071   0.97404   0.00000  Uiso   1.00
H661   H     0.00636   0.12262   0.52596   0.00000  Uiso   1.00
H662   H     0.25768   0.03770   0.75065   0.00000  Uiso   1.00
H663   H     0.07566   0.29563   0.74935   0.00000  Uiso   1.00
H664   H     0.25757   0.29644   0.75068   0.00000  Uiso   1.00
N665   N     0.11736   0.16668   0.74999   0.00000  Uiso   1.00
N666   N     0.21597   0.16666   0.75001   0.00000  Uiso   1.00
N667   N     0.26693   0.10196   0.63300   0.00000  Uiso   1.00
N668   N     0.06640   0.23137   0.86700   0.00000  Uiso   1.00
N669   N     0.18183   0.15098   0.63152   0.00000  Uiso   1.00
N670   N     0.15150   0.18235   0.86848   0.00000  Uiso   1.00
N671   N     0.07658   0.09027   0.83284   0.00000  Uiso   1.00
N672   N     0.25676   0.24306   0.66716   0.00000  Uiso   1.00
O673   O     0.03958   0.10655   0.75000   0.00000  Uiso   1.00
O674   O     0.29375   0.22678   0.75000   0.00000  Uiso   1.00
O675   O     0.29372   0.10654   0.75001   0.00000  Uiso   1.00
O676   O     0.03961   0.22679   0.75000   0.00000  Uiso   1.00
O677   O     0.01852   0.16668   0.81492   0.00000  Uiso   1.00
O678   O     0.31481   0.16666   0.68509   0.00000  Uiso   1.00
O679   O     0.27267   0.16667   0.81492   0.00000  Uiso   1.00
O680   O     0.06067   0.16667   0.68508   0.00000  Uiso   1.00
C681   C     0.33339   0.08740   0.75003   0.00000  Uiso   1.00
C682   C     0.37586   0.02107   0.74964   0.00000  Uiso   1.00
C683   C     0.66658   0.29057   0.74999   0.00000  Uiso   1.00
C684   C     0.33342   0.04276   0.75001   0.00000  Uiso   1.00
C685   C     0.51741   0.14005   0.77702   0.00000  Uiso   1.00
C686   C     0.48259   0.19328   0.72298   0.00000  Uiso   1.00
C687   C     0.46783   0.14020   0.77742   0.00000  Uiso   1.00
C688   C     0.53217   0.19313   0.72258   0.00000  Uiso   1.00
C689   C     0.63951   0.16824   0.83610   0.00000  Uiso   1.00
C690   C     0.36049   0.16509   0.66391   0.00000  Uiso   1.00
C691   C     0.62467   0.17343   0.88530   0.00000  Uiso   1.00
C692   C     0.66661   0.24594   0.74997   0.00000  Uiso   1.00
C693   C     0.37533   0.15990   0.61470   0.00000  Uiso   1.00
C694   C     0.63693   0.19742   0.95551   0.00000  Uiso   1.00
C695   C     0.36307   0.13592   0.54449   0.00000  Uiso   1.00
C696   C     0.65343   0.19401   0.90878   0.00000  Uiso   1.00
C697   C     0.34657   0.13932   0.59122   0.00000  Uiso   1.00
C698   C     0.57823   0.16050   0.90870   0.00000  Uiso   1.00
C699   C     0.42177   0.17284   0.59130   0.00000  Uiso   1.00
C700   C     0.55788   0.17101   0.95384   0.00000  Uiso   1.00
C701   C     0.44212   0.16233   0.54616   0.00000  Uiso   1.00
C702   C     0.58971   0.18533   0.97818   0.00000  Uiso   1.00
C703   C     0.52827   0.17311   0.54778   0.00000  Uiso   1.00
C704   C     0.41029   0.14800   0.52182   0.00000  Uiso   1.00
C705   C     0.50764   0.16580   0.97599   0.00000  Uiso   1.00
C706   C     0.49236   0.16753   0.52401   0.00000  Uiso   1.00
C707   C     0.63545   0.11889   0.61431   0.00000  Uiso   1.00
C708   C     0.36455   0.21444   0.88569   0.00000  Uiso   1.00
C709   C     0.52115   0.16100   0.59430   0.00000  Uiso   1.00
C710   C     0.47885   0.17234   0.90570   0.00000  Uiso   1.00
C711   C     0.43561   0.11255   0.80803   0.00000  Uiso   1.00
C712   C     0.56439   0.22078   0.69197   0.00000  Uiso   1.00
C713   C     0.47173   0.16022   0.95222   0.00000  Uiso   1.00
C714   C     0.57489   0.18546   0.52492   0.00000  Uiso   1.00
C715   C     0.42511   0.14787   0.97508   0.00000  Uiso   1.00
C716   C     0.62423   0.02152   0.75036   0.00000  Uiso   1.00
C717   C     0.37577   0.31182   0.74964   0.00000  Uiso   1.00
C718   C     0.62414   0.31227   0.75036   0.00000  Uiso   1.00
Cu719  Cu    0.38022   0.16667   0.75000   0.00000  Uiso   1.00
Cu720  Cu    0.61978   0.16666   0.75000   0.00000  Uiso   1.00
H721   H     0.60094   0.19224   0.54371   0.00000  Uiso   1.00
H722   H     0.40910   0.03689   0.74932   0.00000  Uiso   1.00
H723   H     0.53027   0.11897   0.79882   0.00000  Uiso   1.00
H724   H     0.46973   0.21437   0.70118   0.00000  Uiso   1.00
H725   H     0.39906   0.14109   0.95629   0.00000  Uiso   1.00
H726   H     0.44134   0.19185   0.60880   0.00000  Uiso   1.00
H727   H     0.55866   0.14148   0.89120   0.00000  Uiso   1.00
H728   H     0.66030   0.21071   0.97404   0.00000  Uiso   1.00
H729   H     0.33970   0.12262   0.52596   0.00000  Uiso   1.00
H730   H     0.59101   0.03770   0.75065   0.00000  Uiso   1.00
H731   H     0.40899   0.29563   0.74935   0.00000  Uiso   1.00
H732   H     0.59090   0.29644   0.75068   0.00000  Uiso   1.00
N733   N     0.45069   0.16668   0.74999   0.00000  Uiso   1.00
N734   N     0.54931   0.16666   0.75001   0.00000  Uiso   1.00
N735   N     0.60026   0.10196   0.63300   0.00000  Uiso   1.00
N736   N     0.39974   0.23137   0.86700   0.00000  Uiso   1.00
N737   N     0.51516   0.15098   0.63152   0.00000  Uiso   1.00
N738   N     0.48484   0.18235   0.86848   0.00000  Uiso   1.00
N739   N     0.40991   0.09027   0.83284   0.00000  Uiso   1.00
N740   N     0.59009   0.24306   0.66716   0.00000  Uiso   1.00
O741   O     0.37291   0.10655   0.75000   0.00000  Uiso   1.00
O742   O     0.62709   0.22678   0.75000   0.00000  Uiso   1.00
O743   O     0.62706   0.10654   0.75001   0.00000  Uiso   1.00
O744   O     0.37294   0.22679   0.75000   0.00000  Uiso   1.00
O745   O     0.35186   0.16668   0.81492   0.00000  Uiso   1.00
O746   O     0.64814   0.16666   0.68509   0.00000  Uiso   1.00
O747   O     0.60600   0.16667   0.81492   0.00000  Uiso   1.00
O748   O     0.39400   0.16667   0.68508   0.00000  Uiso   1.00
C749   C     0.66672   0.08740   0.75003   0.00000  Uiso   1.00
C750   C     0.70919   0.02107   0.74964   0.00000  Uiso   1.00
C751   C     0.99992   0.29057   0.74999   0.00000  Uiso   1.00
C752   C     0.66675   0.04276   0.75001   0.00000  Uiso   1.00
C753   C     0.85074   0.14005   0.77702   0.00000  Uiso   1.00
C754   C     0.81592   0.19328   0.72298   0.00000  Uiso   1.00
C755   C     0.80116   0.14020   0.77742   0.00000  Uiso   1.00
C756   C     0.86551   0.19313   0.72258   0.00000  Uiso   1.00
C757   C     0.97284   0.16824   0.83610   0.00000  Uiso   1.00
C758   C     0.69383   0.16509   0.66391   0.00000  Uiso   1.00
C759   C     0.95800   0.17343   0.88530   0.00000  Uiso   1.00
C760   C     0.99994   0.24594   0.74997   0.00000  Uiso   1.00
C761   C     0.70867   0.15990   0.61470   0.00000  Uiso   1.00
C762   C     0.97027   0.19742   0.95551   0.00000  Uiso   1.00
C763   C     0.69640   0.13592   0.54449   0.00000  Uiso   1.00
C764   C     0.98677   0.19401   0.90878   0.00000  Uiso   1.00
C765   C     0.67990   0.13932   0.59122   0.00000  Uiso   1.00
C766   C     0.91156   0.16050   0.90870   0.00000  Uiso   1.00
C767   C     0.75511   0.17284   0.59130   0.00000  Uiso   1.00
C768   C     0.89121   0.17101   0.95384   0.00000  Uiso   1.00
C769   C     0.77546   0.16233   0.54616   0.00000  Uiso   1.00
C770   C     0.92304   0.18533   0.97818   0.00000  Uiso   1.00
C771   C     0.86160   0.17311   0.54778   0.00000  Uiso   1.00
C772   C     0.74363   0.14800   0.52182   0.00000  Uiso   1.00
C773   C     0.84097   0.16580   0.97599   0.00000  Uiso   1.00
C774   C     0.82570   0.16753   0.52401   0.00000  Uiso   1.00
C775   C     0.96878   0.11889   0.61431   0.00000  Uiso   1.00
C776   C     0.69788   0.21444   0.88569   0.00000  Uiso   1.00
C777   C     0.85448   0.16100   0.59430   0.00000  Uiso   1.00
C778   C     0.81219   0.17234   0.90570   0.00000  Uiso   1.00
C779   C     0.76894   0.11255   0.80803   0.00000  Uiso   1.00
C780   C     0.89773   0.22078   0.69197   0.00000  Uiso   1.00
C781   C     0.80506   0.16022   0.95222   0.00000  Uiso   1.00
C782   C     0.90823   0.18546   0.52492   0.00000  Uiso   1.00
C783   C     0.75844   0.14787   0.97508   0.00000  Uiso   1.00
C784   C     0.95756   0.02152   0.75036   0.00000  Uiso   1.00
C785   C     0.70911   0.31182   0.74964   0.00000  Uiso   1.00
C786   C     0.95748   0.31227   0.75036   0.00000  Uiso   1.00
Cu787  Cu    0.71355   0.16667   0.75000   0.00000  Uiso   1.00
Cu788  Cu    0.95311   0.16666   0.75000   0.00000  Uiso   1.00
H789   H     0.93427   0.19224   0.54371   0.00000  Uiso   1.00
H790   H     0.74243   0.03689   0.74932   0.00000  Uiso   1.00
H791   H     0.86360   0.11897   0.79882   0.00000  Uiso   1.00
H792   H     0.80306   0.21437   0.70118   0.00000  Uiso   1.00
H793   H     0.73240   0.14109   0.95629   0.00000  Uiso   1.00
H794   H     0.77468   0.19185   0.60880   0.00000  Uiso   1.00
H795   H     0.89199   0.14148   0.89120   0.00000  Uiso   1.00
H796   H     0.99364   0.21071   0.97404   0.00000  Uiso   1.00
H797   H     0.67303   0.12262   0.52596   0.00000  Uiso   1.00
H798   H     0.92434   0.03770   0.75065   0.00000  Uiso   1.00
H799   H     0.74232   0.29563   0.74935   0.00000  Uiso   1.00
H800   H     0.92424   0.29644   0.75068   0.00000  Uiso   1.00
N801   N     0.78403   0.16668   0.74999   0.00000  Uiso   1.00
N802   N     0.88264   0.16666   0.75001   0.00000  Uiso   1.00
N803   N     0.93360   0.10196   0.63300   0.00000  Uiso   1.00
N804   N     0.73307   0.23137   0.86700   0.00000  Uiso   1.00
N805   N     0.84850   0.15098   0.63152   0.00000  Uiso   1.00
N806   N     0.81817   0.18235   0.86848   0.00000  Uiso   1.00
N807   N     0.74324   0.09027   0.83284   0.00000  Uiso   1.00
N808   N     0.92342   0.24306   0.66716   0.00000  Uiso   1.00
O809   O     0.70625   0.10655   0.75000   0.00000  Uiso   1.00
O810   O     0.96042   0.22678   0.75000   0.00000  Uiso   1.00
O811   O     0.96039   0.10654   0.75001   0.00000  Uiso   1.00
O812   O     0.70628   0.22679   0.75000   0.00000  Uiso   1.00
O813   O     0.68519   0.16668   0.81492   0.00000  Uiso   1.00
O814   O     0.98148   0.16666   0.68509   0.00000  Uiso   1.00
O815   O     0.93933   0.16667   0.81492   0.00000  Uiso   1.00
O816   O     0.72733   0.16667   0.68508   0.00000  Uiso   1.00
C817   C     0.00006   0.42073   0.75003   0.00000  Uiso   1.00
C818   C     0.04252   0.35440   0.74964   0.00000  Uiso   1.00
C819   C     0.33325   0.62391   0.74999   0.00000  Uiso   1.00
C820   C     0.00009   0.37609   0.75001   0.00000  Uiso   1.00
C821   C     0.18408   0.47339   0.77702   0.00000  Uiso   1.00
C822   C     0.14926   0.52661   0.72298   0.00000  Uiso   1.00
C823   C     0.13449   0.47353   0.77742   0.00000  Uiso   1.00
C824   C     0.19884   0.52647   0.72258   0.00000  Uiso   1.00
C825   C     0.30617   0.50158   0.83610   0.00000  Uiso   1.00
C826   C     0.02716   0.49842   0.66391   0.00000  Uiso   1.00
C827   C     0.29133   0.50677   0.88530   0.00000  Uiso   1.00
C828   C     0.33328   0.57927   0.74997   0.00000  Uiso   1.00
C829   C     0.04200   0.49323   0.61470   0.00000  Uiso   1.00
C830   C     0.30360   0.53075   0.95551   0.00000  Uiso   1.00
C831   C     0.02973   0.46925   0.54449   0.00000  Uiso   1.00
C832   C     0.32010   0.52735   0.90878   0.00000  Uiso   1.00
C833   C     0.01323   0.47265   0.59122   0.00000  Uiso   1.00
C834   C     0.24489   0.49383   0.90870   0.00000  Uiso   1.00
C835   C     0.08844   0.50617   0.59130   0.00000  Uiso   1.00
C836   C     0.22454   0.50434   0.95384   0.00000  Uiso   1.00
C837   C     0.10879   0.49566   0.54616   0.00000  Uiso   1.00
C838   C     0.25637   0.51866   0.97818   0.00000  Uiso   1.00
C839   C     0.19494   0.50645   0.54778   0.00000  Uiso   1.00
C840   C     0.07696   0.48134   0.52182   0.00000  Uiso   1.00
C841   C     0.17430   0.49914   0.97599   0.00000  Uiso   1.00
C842   C     0.15903   0.50086   0.52401   0.00000  Uiso   1.00
C843   C     0.30212   0.45223   0.61431   0.00000  Uiso   1.00
C844   C     0.03122   0.54777   0.88569   0.00000  Uiso   1.00
C845   C     0.18781   0.49433   0.59430   0.00000  Uiso   1.00
C846   C     0.14552   0.50567   0.90570   0.00000  Uiso   1.00
C847   C     0.10227   0.44588   0.80803   0.00000  Uiso   1.00
C848   C     0.23106   0.55412   0.69197   0.00000  Uiso   1.00
C849   C     0.13840   0.49355   0.95222   0.00000  Uiso   1.00
C850   C     0.24156   0.51879   0.52492   0.00000  Uiso   1.00
C851   C     0.09177   0.48121   0.97508   0.00000  Uiso   1.00
C852   C     0.29089   0.35485   0.75036   0.00000  Uiso   1.00
C853   C     0.04244   0.64515   0.74964   0.00000  Uiso   1.00
C854   C     0.29081   0.64560   0.75036   0.00000  Uiso   1.00
Cu855  Cu    0.04689   0.50001   0.75000   0.00000  Uiso   1.00
Cu856  Cu    0.28645   0.49999   0.75000   0.00000  Uiso   1.00
H857   H     0.26760   0.52557   0.54371   0.00000  Uiso   1.00
H858   H     0.07576   0.37022   0.74932   0.00000  Uiso   1.00
H859   H     0.19694   0.45230   0.79882   0.00000  Uiso   1.00
H860   H     0.13640   0.54770   0.70118   0.00000  Uiso   1.00
H861   H     0.06573   0.47443   0.95629   0.00000  Uiso   1.00
H862   H     0.10801   0.52519   0.60880   0.00000  Uiso   1.00
H863   H     0.22532   0.47481   0.89120   0.00000  Uiso   1.00
H864   H     0.32697   0.54404   0.97404   0.00000  Uiso   1.00
H865   H     0.00636   0.45596   0.52596   0.00000  Uiso   1.00
H866   H     0.25768   0.37103   0.75065   0.00000  Uiso   1.00
H867   H     0.07566   0.62897   0.74935   0.00000  Uiso   1.00
H868   H     0.25757   0.62978   0.75068   0.00000  Uiso   1.00
N869   N     0.11736   0.50001   0.74999   0.00000  Uiso   1.00
N870   N     0.21597   0.49999   0.75001   0.00000  Uiso   1.00
N871   N     0.26693   0.43529   0.63300   0.00000  Uiso   1.00
N872   N     0.06640   0.56470   0.86700   0.00000  Uiso   1.00
N873   N     0.18183   0.48432   0.63152   0.00000  Uiso   1.00
N874   N     0.15150   0.51568   0.86848   0.00000  Uiso   1.00
N875   N     0.07658   0.42360   0.83284   0.00000  Uiso   1.00
N876   N     0.25676   0.57640   0.66716   0.00000  Uiso   1.00
O877   O     0.03958   0.43989   0.75000   0.00000  Uiso   1.00
O878   O     0.29375   0.56011   0.75000   0.00000  Uiso   1.00
O879   O     0.29372   0.43988   0.75001   0.00000  Uiso   1.00
O880   O     0.03961   0.56012   0.75000   0.00000  Uiso   1.00
O881   O     0.01852   0.50001   0.81492   0.00000  Uiso   1.00
O882   O     0.31481   0.49999   0.68509   0.00000  Uiso   1.00
O883   O     0.27267   0.50000   0.81492   0.00000  Uiso   1.00
O884   O     0.06067   0.50000   0.68508   0.00000  Uiso   1.00
C885   C     0.33339   0.42073   0.75003   0.00000  Uiso   1.00
C886   C     0.37586   0.35440   0.74964   0.00000  Uiso   1.00
C887   C     0.66658   0.62391   0.74999   0.00000  Uiso   1.00
C888   C     0.33342   0.37609   0.75001   0.00000  Uiso   1.00
C889   C     0.51741   0.47339   0.77702   0.00000  Uiso   1.00
C890   C     0.48259   0.52661   0.72298   0.00000  Uiso   1.00
C891   C     0.46783   0.47353   0.77742   0.00000  Uiso   1.00
C892   C     0.53217   0.52647   0.72258   0.00000  Uiso   1.00
C893   C     0.63951   0.50158   0.83610   0.00000  Uiso   1.00
C894   C     0.36049   0.49842   0.66391   0.00000  Uiso   1.00
C895   C     0.62467   0.50677   0.88530   0.00000  Uiso   1.00
C896   C     0.66661   0.57927   0.74997   0.00000  Uiso   1.00
C897   C     0.37533   0.49323   0.61470   0.00000  Uiso   1.00
C898   C     0.63693   0.53075   0.95551   0.00000  Uiso   1.00
C899   C     0.36307   0.46925   0.54449   0.00000  Uiso   1.00
C900   C     0.65343   0.52735   0.90878   0.00000  Uiso   1.00
C901   C     0.34657   0.47265   0.59122   0.00000  Uiso   1.00
C902   C     0.57823   0.49383   0.90870   0.00000  Uiso   1.00
C903   C     0.42177   0.50617   0.59130   0.00000  Uiso   1.00
C904   C     0.55788   0.50434   0.95384   0.00000  Uiso   1.00
C905   C     0.44212   0.49566   0.54616   0.00000  Uiso   1.00
C906   C     0.58971   0.51866   0.97818   0.00000  Uiso   1.00
C907   C     0.52827   0.50645   0.54778   0.00000  Uiso   1.00
C908   C     0.41029   0.48134   0.52182   0.00000  Uiso   1.00
C909   C     0.50764   0.49914   0.97599   0.00000  Uiso   1.00
C910   C     0.49236   0.50086   0.52401   0.00000  Uiso   1.00
C911   C     0.63545   0.45223   0.61431   0.00000  Uiso   1.00
C912   C     0.36455   0.54777   0.88569   0.00000  Uiso   1.00
C913   C     0.52115   0.49433   0.59430   0.00000  Uiso   1.00
C914   C     0.47885   0.50567   0.90570   0.00000  Uiso   1.00
C915   C     0.43561   0.44588   0.80803   0.00000  Uiso   1.00
C916   C     0.56439   0.55412   0.69197   0.00000  Uiso   1.00
C917   C     0.47173   0.49355   0.95222   0.00000  Uiso   1.00
C918   C     0.57489   0.51879   0.52492   0.00000  Uiso   1.00
C919   C     0.42511   0.48121   0.97508   0.00000  Uiso   1.00
C920   C     0.62423   0.35485   0.75036   0.00000  Uiso   1.00
C921   C     0.37577   0.64515   0.74964   0.00000  Uiso   1.00
C922   C     0.62414   0.64560   0.75036   0.00000  Uiso   1.00
Cu923  Cu    0.38022   0.50001   0.75000   0.00000  Uiso   1.00
Cu924  Cu    0.61978   0.49999   0.75000   0.00000  Uiso   1.00
H925   H     0.60094   0.52557   0.54371   0.00000  Uiso   1.00
H926   H     0.40910   0.37022   0.74932   0.00000  Uiso   1.00
H927   H     0.53027   0.45230   0.79882   0.00000  Uiso   1.00
H928   H     0.46973   0.54770   0.70118   0.00000  Uiso   1.00
H929   H     0.39906   0.47443   0.95629   0.00000  Uiso   1.00
H930   H     0.44134   0.52519   0.60880   0.00000  Uiso   1.00
H931   H     0.55866   0.47481   0.89120   0.00000  Uiso   1.00
H932   H     0.66030   0.54404   0.97404   0.00000  Uiso   1.00
H933   H     0.33970   0.45596   0.52596   0.00000  Uiso   1.00
H934   H     0.59101   0.37103   0.75065   0.00000  Uiso   1.00
H935   H     0.40899   0.62897   0.74935   0.00000  Uiso   1.00
H936   H     0.59090   0.62978   0.75068   0.00000  Uiso   1.00
N937   N     0.45069   0.50001   0.74999   0.00000  Uiso   1.00
N938   N     0.54931   0.49999   0.75001   0.00000  Uiso   1.00
N939   N     0.60026   0.43529   0.63300   0.00000  Uiso   1.00
N940   N     0.39974   0.56470   0.86700   0.00000  Uiso   1.00
N941   N     0.51516   0.48432   0.63152   0.00000  Uiso   1.00
N942   N     0.48484   0.51568   0.86848   0.00000  Uiso   1.00
N943   N     0.40991   0.42360   0.83284   0.00000  Uiso   1.00
N944   N     0.59009   0.57640   0.66716   0.00000  Uiso   1.00
O945   O     0.37291   0.43989   0.75000   0.00000  Uiso   1.00
O946   O     0.62709   0.56011   0.75000   0.00000  Uiso   1.00
O947   O     0.62706   0.43988   0.75001   0.00000  Uiso   1.00
O948   O     0.37294   0.56012   0.75000   0.00000  Uiso   1.00
O949   O     0.35186   0.50001   0.81492   0.00000  Uiso   1.00
O950   O     0.64814   0.49999   0.68509   0.00000  Uiso   1.00
O951   O     0.60600   0.50000   0.81492   0.00000  Uiso   1.00
O952   O     0.39400   0.50000   0.68508   0.00000  Uiso   1.00
C953   C     0.66672   0.42073   0.75003   0.00000  Uiso   1.00
C954   C     0.70919   0.35440   0.74964   0.00000  Uiso   1.00
C955   C     0.99992   0.62391   0.74999   0.00000  Uiso   1.00
C956   C     0.66675   0.37609   0.75001   0.00000  Uiso   1.00
C957   C     0.85074   0.47339   0.77702   0.00000  Uiso   1.00
C958   C     0.81592   0.52661   0.72298   0.00000  Uiso   1.00
C959   C     0.80116   0.47353   0.77742   0.00000  Uiso   1.00
C960   C     0.86551   0.52647   0.72258   0.00000  Uiso   1.00
C961   C     0.97284   0.50158   0.83610   0.00000  Uiso   1.00
C962   C     0.69383   0.49842   0.66391   0.00000  Uiso   1.00
C963   C     0.95800   0.50677   0.88530   0.00000  Uiso   1.00
C964   C     0.99994   0.57927   0.74997   0.00000  Uiso   1.00
C965   C     0.70867   0.49323   0.61470   0.00000  Uiso   1.00
C966   C     0.97027   0.53075   0.95551   0.00000  Uiso   1.00
C967   C     0.69640   0.46925   0.54449   0.00000  Uiso   1.00
C968   C     0.98677   0.52735   0.90878   0.00000  Uiso   1.00
C969   C     0.67990   0.47265   0.59122   0.00000  Uiso   1.00
C970   C     0.91156   0.49383   0.90870   0.00000  Uiso   1.00
C971   C     0.75511   0.50617   0.59130   0.00000  Uiso   1.00
C972   C     0.89121   0.50434   0.95384   0.00000  Uiso   1.00
C973   C     0.77546   0.49566   0.54616   0.00000  Uiso   1.00
C974   C     0.92304   0.51866   0.97818   0.00000  Uiso   1.00
C975   C     0.86160   0.50645   0.54778   0.00000  Uiso   1.00
C976   C     0.74363   0.48134   0.52182   0.00000  Uiso   1.00
C977   C     0.84097   0.49914   0.97599   0.00000  Uiso   1.00
C978   C     0.82570   0.50086   0.52401   0.00000  Uiso   1.00
C979   C     0.96878   0.45223   0.61431   0.00000  Uiso   1.00
C980   C     0.69788   0.54777   0.88569   0.00000  Uiso   1.00
C981   C     0.85448   0.49433   0.59430   0.00000  Uiso   1.00
C982   C     0.81219   0.50567   0.90570   0.00000  Uiso   1.00
C983   C     0.76894   0.44588   0.80803   0.00000  Uiso   1.00
C984   C     0.89773   0.55412   0.69197   0.00000  Uiso   1.00
C985   C     0.80506   0.49355   0.95222   0.00000  Uiso   1.00
C986   C     0.90823   0.51879   0.52492   0.00000  Uiso   1.00
C987   C     0.75844   0.48121   0.97508   0.00000  Uiso   1.00
C988   C     0.95756   0.35485   0.75036   0.00000  Uiso   1.00
C989   C     0.70911   0.64515   0.74964   0.00000  Uiso   1.00
C990   C     0.95748   0.64560   0.75036   0.00000  Uiso   1.00
Cu991  Cu    0.71355   0.50001   0.75000   0.00000  Uiso   1.00
Cu992  Cu    0.95311   0.49999   0.75000   0.00000  Uiso   1.00
H993   H     0.93427   0.52557   0.54371   0.00000  Uiso   1.00
H994   H     0.74243   0.37022   0.74932   0.00000  Uiso   1.00
H995   H     0.86360   0.45230   0.79882   0.00000  Uiso   1.00
H996   H     0.80306   0.54770   0.70118   0.00000  Uiso   1.00
H997   H     0.73240   0.47443   0.95629   0.00000  Uiso   1.00
H998   H     0.77468   0.52519   0.60880   0.00000  Uiso   1.00
H999   H     0.89199   0.47481   0.89120   0.00000  Uiso   1.00
H1000  H     0.99364   0.54404   0.97404   0.00000  Uiso   1.00
H1001  H     0.67303   0.45596   0.52596   0.00000  Uiso   1.00
H1002  H     0.92434   0.37103   0.75065   0.00000  Uiso   1.00
H1003  H     0.74232   0.62897   0.74935   0.00000  Uiso   1.00
H1004  H     0.92424   0.62978   0.75068   0.00000  Uiso   1.00
N1005  N     0.78403   0.50001   0.74999   0.00000  Uiso   1.00
N1006  N     0.88264   0.49999   0.75001   0.00000  Uiso   1.00
N1007  N     0.93360   0.43529   0.63300   0.00000  Uiso   1.00
N1008  N     0.73307   0.56470   0.86700   0.00000  Uiso   1.00
N1009  N     0.84850   0.48432   0.63152   0.00000  Uiso   1.00
N1010  N     0.81817   0.51568   0.86848   0.00000  Uiso   1.00
N1011  N     0.74324   0.42360   0.83284   0.00000  Uiso   1.00
N1012  N     0.92342   0.57640   0.66716   0.00000  Uiso   1.00
O1013  O     0.70625   0.43989   0.75000   0.00000  Uiso   1.00
O1014  O     0.96042   0.56011   0.75000   0.00000  Uiso   1.00
O1015  O     0.96039   0.43988   0.75001   0.00000  Uiso   1.00
O1016  O     0.70628   0.56012   0.75000   0.00000  Uiso   1.00
O1017  O     0.68519   0.50001   0.81492   0.00000  Uiso   1.00
O1018  O     0.98148   0.49999   0.68509   0.00000  Uiso   1.00
O1019  O     0.93933   0.50000   0.81492   0.00000  Uiso   1.00
O1020  O     0.72733   0.50000   0.68508   0.00000  Uiso   1.00
C1021  C     0.00006   0.75406   0.75003   0.00000  Uiso   1.00
C1022  C     0.04252   0.68773   0.74964   0.00000  Uiso   1.00
C1023  C     0.33325   0.95724   0.74999   0.00000  Uiso   1.00
C1024  C     0.00009   0.70943   0.75001   0.00000  Uiso   1.00
C1025  C     0.18408   0.80672   0.77702   0.00000  Uiso   1.00
C1026  C     0.14926   0.85995   0.72298   0.00000  Uiso   1.00
C1027  C     0.13449   0.80687   0.77742   0.00000  Uiso   1.00
C1028  C     0.19884   0.85980   0.72258   0.00000  Uiso   1.00
C1029  C     0.30617   0.83491   0.83610   0.00000  Uiso   1.00
C1030  C     0.02716   0.83176   0.66391   0.00000  Uiso   1.00
C1031  C     0.29133   0.84010   0.88530   0.00000  Uiso   1.00
C1032  C     0.33328   0.91260   0.74997   0.00000  Uiso   1.00
C1033  C     0.04200   0.82657   0.61470   0.00000  Uiso   1.00
C1034  C     0.30360   0.86408   0.95551   0.00000  Uiso   1.00
C1035  C     0.02973   0.80258   0.54449   0.00000  Uiso   1.00
C1036  C     0.32010   0.86068   0.90878   0.00000  Uiso   1.00
C1037  C     0.01323   0.80599   0.59122   0.00000  Uiso   1.00
C1038  C     0.24489   0.82716   0.90870   0.00000  Uiso   1.00
C1039  C     0.08844   0.83950   0.59130   0.00000  Uiso   1.00
C1040  C     0.22454   0.83767   0.95384   0.00000  Uiso   1.00
C1041  C     0.10879   0.82899   0.54616   0.00000  Uiso   1.00
C1042  C     0.25637   0.85200   0.97818   0.00000  Uiso   1.00
C1043  C     0.19494   0.83978   0.54778   0.00000  Uiso   1.00
C1044  C     0.07696   0.81467   0.52182   0.00000  Uiso   1.00
C1045  C     0.17430   0.83247   0.97599   0.00000  Uiso   1.00
C1046  C     0.15903   0.83419   0.52401   0.00000  Uiso   1.00
C1047  C     0.30212   0.78556   0.61431   0.00000  Uiso   1.00
C1048  C     0.03122   0.88111   0.88569   0.00000  Uiso   1.00
C1049  C     0.18781   0.82766   0.59430   0.00000  Uiso   1.00
C1050  C     0.14552   0.83900   0.90570   0.00000  Uiso   1.00
C1051  C     0.10227   0.77922   0.80803   0.00000  Uiso   1.00
C1052  C     0.23106   0.88745   0.69197   0.00000  Uiso   1.00
C1053  C     0.13840   0.82689   0.95222   0.00000  Uiso   1.00
C1054  C     0.24156   0.85213   0.52492   0.00000  Uiso   1.00
C1055  C     0.09177   0.81454   0.97508   0.00000  Uiso   1.00
C1056  C     0.29089   0.68818   0.75036   0.00000  Uiso   1.00
C1057  C     0.04244   0.97848   0.74964   0.00000  Uiso   1.00
C1058  C     0.29081   0.97893   0.75036   0.00000  Uiso   1.00
Cu1059 Cu    0.04689   0.83334   0.75000   0.00000  Uiso   1.00
Cu1060 Cu    0.28645   0.83333   0.75000   0.00000  Uiso   1.00
H1061  H     0.26760   0.85891   0.54371   0.00000  Uiso   1.00
H1062  H     0.07576   0.70356   0.74932   0.00000  Uiso   1.00
H1063  H     0.19694   0.78563   0.79882   0.00000  Uiso   1.00
H1064  H     0.13640   0.88103   0.70118   0.00000  Uiso   1.00
H1065  H     0.06573   0.80776   0.95629   0.00000  Uiso   1.00
H1066  H     0.10801   0.85852   0.60880   0.00000  Uiso   1.00
H1067  H     0.22532   0.80815   0.89120   0.00000  Uiso   1.00
H1068  H     0.32697   0.87738   0.97404   0.00000  Uiso   1.00
H1069  H     0.00636   0.78929   0.52596   0.00000  Uiso   1.00
H1070  H     0.25768   0.70437   0.75065   0.00000  Uiso   1.00
H1071  H     0.07566   0.96230   0.74935   0.00000  Uiso   1.00
H1072  H     0.25757   0.96311   0.75068   0.00000  Uiso   1.00
N1073  N     0.11736   0.83334   0.74999   0.00000  Uiso   1.00
N1074  N     0.21597   0.83332   0.75001   0.00000  Uiso   1.00
N1075  N     0.26693   0.76863   0.63300   0.00000  Uiso   1.00
N1076  N     0.06640   0.89804   0.86700   0.00000  Uiso   1.00
N1077  N     0.18183   0.81765   0.63152   0.00000  Uiso   1.00
N1078  N     0.15150   0.84902   0.86848   0.00000  Uiso   1.00
N1079  N     0.07658   0.75694   0.83284   0.00000  Uiso   1.00
N1080  N     0.25676   0.90973   0.66716   0.00000  Uiso   1.00
O1081  O     0.03958   0.77322   0.75000   0.00000  Uiso   1.00
O1082  O     0.29375   0.89345   0.75000   0.00000  Uiso   1.00
O1083  O     0.29372   0.77321   0.75001   0.00000  Uiso   1.00
O1084  O     0.03961   0.89346   0.75000   0.00000  Uiso   1.00
O1085  O     0.01852   0.83334   0.81492   0.00000  Uiso   1.00
O1086  O     0.31481   0.83332   0.68509   0.00000  Uiso   1.00
O1087  O     0.27267   0.83333   0.81492   0.00000  Uiso   1.00
O1088  O     0.06067   0.83333   0.68508   0.00000  Uiso   1.00
C1089  C     0.33339   0.75406   0.75003   0.00000  Uiso   1.00
C1090  C     0.37586   0.68773   0.74964   0.00000  Uiso   1.00
C1091  C     0.66658   0.95724   0.74999   0.00000  Uiso   1.00
C1092  C     0.33342   0.70943   0.75001   0.00000  Uiso   1.00
C1093  C     0.51741   0.80672   0.77702   0.00000  Uiso   1.00
C1094  C     0.48259   0.85995   0.72298   0.00000  Uiso   1.00
C1095  C     0.46783   0.80687   0.77742   0.00000  Uiso   1.00
C1096  C     0.53217   0.85980   0.72258   0.00000  Uiso   1.00
C1097  C     0.63951   0.83491   0.83610   0.00000  Uiso   1.00
C1098  C     0.36049   0.83176   0.66391   0.00000  Uiso   1.00
C1099  C     0.62467   0.84010   0.88530   0.00000  Uiso   1.00
C1100  C     0.66661   0.91260   0.74997   0.00000  Uiso   1.00
C1101  C     0.37533   0.82657   0.61470   0.00000  Uiso   1.00
C1102  C     0.63693   0.86408   0.95551   0.00000  Uiso   1.00
C1103  C     0.36307   0.80258   0.54449   0.00000  Uiso   1.00
C1104  C     0.65343   0.86068   0.90878   0.00000  Uiso   1.00
C1105  C     0.34657   0.80599   0.59122   0.00000  Uiso   1.00
C1106  C     0.57823   0.82716   0.90870   0.00000  Uiso   1.00
C1107  C     0.42177   0.83950   0.59130   0.00000  Uiso   1.00
C1108  C     0.55788   0.83767   0.95384   0.00000  Uiso   1.00
C1109  C     0.44212   0.82899   0.54616   0.00000  Uiso   1.00
C1110  C     0.58971   0.85200   0.97818   0.00000  Uiso   1.00
C1111  C     0.52827   0.83978   0.54778   0.00000  Uiso   1.00
C1112  C     0.41029   0.81467   0.52182   0.00000  Uiso   1.00
C1113  C     0.50764   0.83247   0.97599   0.00000  Uiso   1.00
C1114  C     0.49236   0.83419   0.52401   0.00000  Uiso   1.00
C1115  C     0.63545   0.78556   0.61431   0.00000  Uiso   1.00
C1116  C     0.36455   0.88111   0.88569   0.00000  Uiso   1.00
C1117  C     0.52115   0.82766   0.59430   0.00000  Uiso   1.00
C1118  C     0.47885   0.83900   0.90570   0.00000  Uiso   1.00
C1119  C     0.43561   0.77922   0.80803   0.00000  Uiso   1.00
C1120  C     0.56439   0.88745   0.69197   0.00000  Uiso   1.00
C1121  C     0.47173   0.82689   0.95222   0.00000  Uiso   1.00
C1122  C     0.57489   0.85213   0.52492   0.00000  Uiso   1.00
C1123  C     0.42511   0.81454   0.97508   0.00000  Uiso   1.00
C1124  C     0.62423   0.68818   0.75036   0.00000  Uiso   1.00
C1125  C     0.37577   0.97848   0.74964   0.00000  Uiso   1.00
C1126  C     0.62414   0.97893   0.75036   0.00000  Uiso   1.00
Cu1127 Cu    0.38022   0.83334   0.75000   0.00000  Uiso   1.00
Cu1128 Cu    0.61978   0.83333   0.75000   0.00000  Uiso   1.00
H1129  H     0.60094   0.85891   0.54371   0.00000  Uiso   1.00
H1130  H     0.40910   0.70356   0.74932   0.00000  Uiso   1.00
H1131  H     0.53027   0.78563   0.79882   0.00000  Uiso   1.00
H1132  H     0.46973   0.88103   0.70118   0.00000  Uiso   1.00
H1133  H     0.39906   0.80776   0.95629   0.00000  Uiso   1.00
H1134  H     0.44134   0.85852   0.60880   0.00000  Uiso   1.00
H1135  H     0.55866   0.80815   0.89120   0.00000  Uiso   1.00
H1136  H     0.66030   0.87738   0.97404   0.00000  Uiso   1.00
H1137  H     0.33970   0.78929   0.52596   0.00000  Uiso   1.00
H1138  H     0.59101   0.70437   0.75065   0.00000  Uiso   1.00
H1139  H     0.40899   0.96230   0.74935   0.00000  Uiso   1.00
H1140  H     0.59090   0.96311   0.75068   0.00000  Uiso   1.00
N1141  N     0.45069   0.83334   0.74999   0.00000  Uiso   1.00
N1142  N     0.54931   0.83332   0.75001   0.00000  Uiso   1.00
N1143  N     0.60026   0.76863   0.63300   0.00000  Uiso   1.00
N1144  N     0.39974   0.89804   0.86700   0.00000  Uiso   1.00
N1145  N     0.51516   0.81765   0.63152   0.00000  Uiso   1.00
N1146  N     0.48484   0.84902   0.86848   0.00000  Uiso   1.00
N1147  N     0.40991   0.75694   0.83284   0.00000  Uiso   1.00
N1148  N     0.59009   0.90973   0.66716   0.00000  Uiso   1.00
O1149  O     0.37291   0.77322   0.75000   0.00000  Uiso   1.00
O1150  O     0.62709   0.89345   0.75000   0.00000  Uiso   1.00
O1151  O     0.62706   0.77321   0.75001   0.00000  Uiso   1.00
O1152  O     0.37294   0.89346   0.75000   0.00000  Uiso   1.00
O1153  O     0.35186   0.83334   0.81492   0.00000  Uiso   1.00
O1154  O     0.64814   0.83332   0.68509   0.00000  Uiso   1.00
O1155  O     0.60600   0.83333   0.81492   0.00000  Uiso   1.00
O1156  O     0.39400   0.83333   0.68508   0.00000  Uiso   1.00
C1157  C     0.66672   0.75406   0.75003   0.00000  Uiso   1.00
C1158  C     0.70919   0.68773   0.74964   0.00000  Uiso   1.00
C1159  C     0.99992   0.95724   0.74999   0.00000  Uiso   1.00
C1160  C     0.66675   0.70943   0.75001   0.00000  Uiso   1.00
C1161  C     0.85074   0.80672   0.77702   0.00000  Uiso   1.00
C1162  C     0.81592   0.85995   0.72298   0.00000  Uiso   1.00
C1163  C     0.80116   0.80687   0.77742   0.00000  Uiso   1.00
C1164  C     0.86551   0.85980   0.72258   0.00000  Uiso   1.00
C1165  C     0.97284   0.83491   0.83610   0.00000  Uiso   1.00
C1166  C     0.69383   0.83176   0.66391   0.00000  Uiso   1.00
C1167  C     0.95800   0.84010   0.88530   0.00000  Uiso   1.00
C1168  C     0.99994   0.91260   0.74997   0.00000  Uiso   1.00
C1169  C     0.70867   0.82657   0.61470   0.00000  Uiso   1.00
C1170  C     0.97027   0.86408   0.95551   0.00000  Uiso   1.00
C1171  C     0.69640   0.80258   0.54449   0.00000  Uiso   1.00
C1172  C     0.98677   0.86068   0.90878   0.00000  Uiso   1.00
C1173  C     0.67990   0.80599   0.59122   0.00000  Uiso   1.00
C1174  C     0.91156   0.82716   0.90870   0.00000  Uiso   1.00
C1175  C     0.75511   0.83950   0.59130   0.00000  Uiso   1.00
C1176  C     0.89121   0.83767   0.95384   0.00000  Uiso   1.00
C1177  C     0.77546   0.82899   0.54616   0.00000  Uiso   1.00
C1178  C     0.92304   0.85200   0.97818   0.00000  Uiso   1.00
C1179  C     0.86160   0.83978   0.54778   0.00000  Uiso   1.00
C1180  C     0.74363   0.81467   0.52182   0.00000  Uiso   1.00
C1181  C     0.84097   0.83247   0.97599   0.00000  Uiso   1.00
C1182  C     0.82570   0.83419   0.52401   0.00000  Uiso   1.00
C1183  C     0.96878   0.78556   0.61431   0.00000  Uiso   1.00
C1184  C     0.69788   0.88111   0.88569   0.00000  Uiso   1.00
C1185  C     0.85448   0.82766   0.59430   0.00000  Uiso   1.00
C1186  C     0.81219   0.83900   0.90570   0.00000  Uiso   1.00
C1187  C     0.76894   0.77922   0.80803   0.00000  Uiso   1.00
C1188  C     0.89773   0.88745   0.69197   0.00000  Uiso   1.00
C1189  C     0.80506   0.82689   0.95222   0.00000  Uiso   1.00
C1190  C     0.90823   0.85213   0.52492   0.00000  Uiso   1.00
C1191  C     0.75844   0.81454   0.97508   0.00000  Uiso   1.00
C1192  C     0.95756   0.68818   0.75036   0.00000  Uiso   1.00
C1193  C     0.70911   0.97848   0.74964   0.00000  Uiso   1.00
C1194  C     0.95748   0.97893   0.75036   0.00000  Uiso   1.00
Cu1195 Cu    0.71355   0.83334   0.75000   0.00000  Uiso   1.00
Cu1196 Cu    0.95311   0.83333   0.75000   0.00000  Uiso   1.00
H1197  H     0.93427   0.85891   0.54371   0.00000  Uiso   1.00
H1198  H     0.74243   0.70356   0.74932   0.00000  Uiso   1.00
H1199  H     0.86360   0.78563   0.79882   0.00000  Uiso   1.00
H1200  H     0.80306   0.88103   0.70118   0.00000  Uiso   1.00
H1201  H     0.73240   0.80776   0.95629   0.00000  Uiso   1.00
H1202  H     0.77468   0.85852   0.60880   0.00000  Uiso   1.00
H1203  H     0.89199   0.80815   0.89120   0.00000  Uiso   1.00
H1204  H     0.99364   0.87738   0.97404   0.00000  Uiso   1.00
H1205  H     0.67303   0.78929   0.52596   0.00000  Uiso   1.00
H1206  H     0.92434   0.70437   0.75065   0.00000  Uiso   1.00
H1207  H     0.74232   0.96230   0.74935   0.00000  Uiso   1.00
H1208  H     0.92424   0.96311   0.75068   0.00000  Uiso   1.00
N1209  N     0.78403   0.83334   0.74999   0.00000  Uiso   1.00
N1210  N     0.88264   0.83332   0.75001   0.00000  Uiso   1.00
N1211  N     0.93360   0.76863   0.63300   0.00000  Uiso   1.00
N1212  N     0.73307   0.89804   0.86700   0.00000  Uiso   1.00
N1213  N     0.84850   0.81765   0.63152   0.00000  Uiso   1.00
N1214  N     0.81817   0.84902   0.86848   0.00000  Uiso   1.00
N1215  N     0.74324   0.75694   0.83284   0.00000  Uiso   1.00
N1216  N     0.92342   0.90973   0.66716   0.00000  Uiso   1.00
O1217  O     0.70625   0.77322   0.75000   0.00000  Uiso   1.00
O1218  O     0.96042   0.89345   0.75000   0.00000  Uiso   1.00
O1219  O     0.96039   0.77321   0.75001   0.00000  Uiso   1.00
O1220  O     0.70628   0.89346   0.75000   0.00000  Uiso   1.00
O1221  O     0.68519   0.83334   0.81492   0.00000  Uiso   1.00
O1222  O     0.98148   0.83332   0.68509   0.00000  Uiso   1.00
O1223  O     0.93933   0.83333   0.81492   0.00000  Uiso   1.00
O1224  O     0.72733   0.83333   0.68508   0.00000  Uiso   1.00
loop_
_geom_bond_atom_site_label_1
_geom_bond_atom_site_label_2
_geom_bond_distance
_geom_bond_site_symmetry_2
_ccdc_geom_bond_type
C1     C4      1.450   .     S
C1     O61     1.296   .     A
C1     O199    1.293   1_455 S
C2     C4      1.400   .     A
C2     H42     1.083   .     S
C2     C445    1.383   1_545 S
C3     C12     1.450   .     S
C3     C38     1.400   .     A
C3     C105    1.402   .     S
C4     C172    1.402   1_455 S
C5     H43     1.083   .     S
C5     N54     1.363   .     A
C5     C7      1.419   .     A
C6     H44     1.083   .     S
C6     C8      1.419   .     A
C6     N53     1.363   .     A
C7     C31     1.438   .     S
C7     N53     1.376   .     A
C8     C32     1.438   .     S
C8     N54     1.376   .     A
C9     O67     1.300   .     A
C9     C11     1.475   .     S
C9     O133    1.299   .     S
C10    O68     1.300   .     A
C10    C13     1.475   .     S
C10    O202    1.299   1_455 S
C11    C18     1.398   .     A
C11    C16     1.412   .     A
C12    O62     1.296   .     A
C12    O132    1.293   .     S
C13    C17     1.412   .     A
C13    C19     1.398   .     A
C14    C22     1.403   .     A
C14    C16     1.397   .     A
C14    H48     1.085   .     S
C15    H49     1.085   .     S
C15    C24     1.403   .     A
C15    C17     1.397   .     A
C16    C96     1.443   .     S
C17    C163    1.443   1_455 S
C18    C20     1.405   .     A
C18    H47     1.079   .     S
C19    H46     1.079   .     S
C19    C21     1.405   .     A
C20    C22     1.412   .     A
C20    C25     1.429   .     A
C21    C26     1.429   .     A
C21    C24     1.412   .     A
C22    C646    1.389   .     S
C23    C34     1.392   .     A
C23    C29     1.443   .     S
C23    C26     1.428   .     A
C24    C647    1.389   1_554 S
C25    C33     1.428   .     A
C25    C638    1.430   .     S
C26    C637    1.430   1_554 S
C27    N55     1.157   .     T
C27    C85     1.443   .     S
C28    N56     1.157   .     T
C28    C152    1.443   1_455 S
C29    N57     1.156   .     T
C30    C33     1.443   .     S
C30    N58     1.156   .     T
C31    N59     1.158   .     T
C32    N60     1.158   .     T
C33    C35     1.392   .     A
C34    H41     1.086   .     S
C34    C634    1.389   1_554 S
C35    H45     1.086   .     S
C35    C636    1.389   .     S
C36    H50     1.083   .     S
C36    C72     1.402   .     S
C36    C446    1.383   1_545 S
C37    H51     1.083   .     S
C37    C139    1.402   1_455 S
C37    C206    1.383   .     S
C38    H52     1.083   .     S
C38    C240    1.383   .     S
Cu39   O65     1.949   .     S
Cu39   O64     1.963   .     S
Cu39   N53     2.021   .     S
Cu39   O61     1.966   .     S
Cu39   O68     1.934   .     S
Cu39   Cu176   2.689   1_455 S
Cu40   N54     2.021   .     S
Cu40   O63     1.963   .     S
Cu40   O62     1.966   .     S
Cu40   O66     1.949   .     S
Cu40   O67     1.934   .     S
Cu40   Cu107   2.689   .     S
O63    C69     1.293   .     S
O64    C148    1.293   1_455 S
O65    C145    1.299   1_455 S
O66    C78     1.299   .     S
C69    C72     1.450   .     S
C69    O129    1.296   .     A
C70    C72     1.400   .     A
C70    H110    1.083   .     S
C70    C513    1.383   1_545 S
C71    C80     1.450   .     S
C71    C106    1.400   .     A
C71    C173    1.402   .     S
C73    H111    1.083   .     S
C73    N122    1.363   .     A
C73    C75     1.419   .     A
C74    H112    1.083   .     S
C74    C76     1.419   .     A
C74    N121    1.363   .     A
C75    C99     1.438   .     S
C75    N121    1.376   .     A
C76    C100    1.438   .     S
C76    N122    1.376   .     A
C77    O135    1.300   .     A
C77    C79     1.475   .     S
C77    O201    1.299   .     S
C78    O136    1.300   .     A
C78    C81     1.475   .     S
C79    C86     1.398   .     A
C79    C84     1.412   .     A
C80    O130    1.296   .     A
C80    O200    1.293   .     S
C81    C85     1.412   .     A
C81    C87     1.398   .     A
C82    C90     1.403   .     A
C82    C84     1.397   .     A
C82    H116    1.085   .     S
C83    H117    1.085   .     S
C83    C92     1.403   .     A
C83    C85     1.397   .     A
C84    C164    1.443   .     S
C86    C88     1.405   .     A
C86    H115    1.079   .     S
C87    H114    1.079   .     S
C87    C89     1.405   .     A
C88    C90     1.412   .     A
C88    C93     1.429   .     A
C89    C94     1.429   .     A
C89    C92     1.412   .     A
C90    C714    1.389   .     S
C91    C102    1.392   .     A
C91    C97     1.443   .     S
C91    C94     1.428   .     A
C92    C715    1.389   1_554 S
C93    C101    1.428   .     A
C93    C706    1.430   .     S
C94    C705    1.430   1_554 S
C95    N123    1.157   .     T
C95    C153    1.443   .     S
C96    N124    1.157   .     T
C97    N125    1.156   .     T
C98    C101    1.443   .     S
C98    N126    1.156   .     T
C99    N127    1.158   .     T
C100   N128    1.158   .     T
C101   C103    1.392   .     A
C102   H109    1.086   .     S
C102   C702    1.389   1_554 S
C103   H113    1.086   .     S
C103   C704    1.389   .     S
C104   H118    1.083   .     S
C104   C140    1.402   .     S
C104   C514    1.383   1_545 S
C105   H119    1.083   .     S
C105   C274    1.383   .     S
C106   H120    1.083   .     S
C106   C308    1.383   .     S
Cu107  O133    1.949   .     S
Cu107  O132    1.963   .     S
Cu107  N121    2.021   .     S
Cu107  O129    1.966   .     S
Cu107  O136    1.934   .     S
Cu108  N122    2.021   .     S
Cu108  O131    1.963   .     S
Cu108  O130    1.966   .     S
Cu108  O134    1.949   .     S
Cu108  O135    1.934   .     S
Cu108  Cu175   2.689   .     S
O131   C137    1.293   .     S
O134   C146    1.299   .     S
C137   C140    1.450   .     S
C137   O197    1.296   .     A
C138   C140    1.400   .     A
C138   H178    1.083   .     S
C138   C581    1.383   1_545 S
C139   C148    1.450   .     S
C139   C174    1.400   .     A
C139   C37     1.402   1_655 S
C141   H179    1.083   .     S
C141   N190    1.363   .     A
C141   C143    1.419   .     A
C142   H180    1.083   .     S
C142   C144    1.419   .     A
C142   N189    1.363   .     A
C143   C167    1.438   .     S
C143   N189    1.376   .     A
C144   C168    1.438   .     S
C144   N190    1.376   .     A
C145   O203    1.300   .     A
C145   C147    1.475   .     S
C145   O65     1.299   1_655 S
C146   O204    1.300   .     A
C146   C149    1.475   .     S
C147   C154    1.398   .     A
C147   C152    1.412   .     A
C148   O198    1.296   .     A
C148   O64     1.293   1_655 S
C149   C153    1.412   .     A
C149   C155    1.398   .     A
C150   C158    1.403   .     A
C150   C152    1.397   .     A
C150   H184    1.085   .     S
C151   H185    1.085   .     S
C151   C160    1.403   .     A
C151   C153    1.397   .     A
C152   C28     1.443   1_655 S
C154   C156    1.405   .     A
C154   H183    1.079   .     S
C155   H182    1.079   .     S
C155   C157    1.405   .     A
C156   C158    1.412   .     A
C156   C161    1.429   .     A
C157   C162    1.429   .     A
C157   C160    1.412   .     A
C158   C782    1.389   .     S
C159   C170    1.392   .     A
C159   C165    1.443   .     S
C159   C162    1.428   .     A
C160   C783    1.389   1_554 S
C161   C169    1.428   .     A
C161   C774    1.430   .     S
C162   C773    1.430   1_554 S
C163   N191    1.157   .     T
C163   C17     1.443   1_655 S
C164   N192    1.157   .     T
C165   N193    1.156   .     T
C166   C169    1.443   .     S
C166   N194    1.156   .     T
C167   N195    1.158   .     T
C168   N196    1.158   .     T
C169   C171    1.392   .     A
C170   H177    1.086   .     S
C170   C770    1.389   1_554 S
C171   H181    1.086   .     S
C171   C772    1.389   .     S
C172   H186    1.083   .     S
C172   C4      1.402   1_655 S
C172   C582    1.383   1_545 S
C173   H187    1.083   .     S
C173   C342    1.383   .     S
C174   H188    1.083   .     S
C174   C376    1.383   .     S
Cu175  O201    1.949   .     S
Cu175  O200    1.963   .     S
Cu175  N189    2.021   .     S
Cu175  O197    1.966   .     S
Cu175  O204    1.934   .     S
Cu176  N190    2.021   .     S
Cu176  O199    1.963   .     S
Cu176  O198    1.966   .     S
Cu176  O202    1.949   .     S
Cu176  O203    1.934   .     S
Cu176  Cu39    2.689   1_655 S
O199   C1      1.293   1_655 S
O202   C10     1.299   1_655 S
C205   C208    1.450   .     S
C205   O265    1.296   .     A
C205   O403    1.293   1_455 S
C206   C208    1.400   .     A
C206   H246    1.083   .     S
C207   C216    1.450   .     S
C207   C242    1.400   .     A
C207   C309    1.402   .     S
C208   C376    1.402   1_455 S
C209   H247    1.083   .     S
C209   N258    1.363   .     A
C209   C211    1.419   .     A
C210   H248    1.083   .     S
C210   C212    1.419   .     A
C210   N257    1.363   .     A
C211   C235    1.438   .     S
C211   N257    1.376   .     A
C212   C236    1.438   .     S
C212   N258    1.376   .     A
C213   O271    1.300   .     A
C213   C215    1.475   .     S
C213   O337    1.299   .     S
C214   O272    1.300   .     A
C214   C217    1.475   .     S
C214   O406    1.299   1_455 S
C215   C222    1.398   .     A
C215   C220    1.412   .     A
C216   O266    1.296   .     A
C216   O336    1.293   .     S
C217   C221    1.412   .     A
C217   C223    1.398   .     A
C218   C226    1.403   .     A
C218   C220    1.397   .     A
C218   H252    1.085   .     S
C219   H253    1.085   .     S
C219   C228    1.403   .     A
C219   C221    1.397   .     A
C220   C300    1.443   .     S
C221   C367    1.443   1_455 S
C222   C224    1.405   .     A
C222   H251    1.079   .     S
C223   H250    1.079   .     S
C223   C225    1.405   .     A
C224   C226    1.412   .     A
C224   C229    1.429   .     A
C225   C230    1.429   .     A
C225   C228    1.412   .     A
C226   C850    1.389   .     S
C227   C238    1.392   .     A
C227   C233    1.443   .     S
C227   C230    1.428   .     A
C228   C851    1.389   1_554 S
C229   C237    1.428   .     A
C229   C842    1.430   .     S
C230   C841    1.430   1_554 S
C231   N259    1.157   .     T
C231   C289    1.443   .     S
C232   N260    1.157   .     T
C232   C356    1.443   1_455 S
C233   N261    1.156   .     T
C234   C237    1.443   .     S
C234   N262    1.156   .     T
C235   N263    1.158   .     T
C236   N264    1.158   .     T
C237   C239    1.392   .     A
C238   H245    1.086   .     S
C238   C838    1.389   1_554 S
C239   H249    1.086   .     S
C239   C840    1.389   .     S
C240   H254    1.083   .     S
C240   C276    1.402   .     S
C241   H255    1.083   .     S
C241   C343    1.402   1_455 S
C241   C410    1.383   .     S
C242   H256    1.083   .     S
C242   C444    1.383   .     S
Cu243  O269    1.949   .     S
Cu243  O268    1.963   .     S
Cu243  N257    2.021   .     S
Cu243  O265    1.966   .     S
Cu243  O272    1.934   .     S
Cu243  Cu380   2.689   1_455 S
Cu244  N258    2.021   .     S
Cu244  O267    1.963   .     S
Cu244  O266    1.966   .     S
Cu244  O270    1.949   .     S
Cu244  O271    1.934   .     S
Cu244  Cu311   2.689   .     S
O267   C273    1.293   .     S
O268   C352    1.293   1_455 S
O269   C349    1.299   1_455 S
O270   C282    1.299   .     S
C273   C276    1.450   .     S
C273   O333    1.296   .     A
C274   C276    1.400   .     A
C274   H314    1.083   .     S
C275   C284    1.450   .     S
C275   C310    1.400   .     A
C275   C377    1.402   .     S
C277   H315    1.083   .     S
C277   N326    1.363   .     A
C277   C279    1.419   .     A
C278   H316    1.083   .     S
C278   C280    1.419   .     A
C278   N325    1.363   .     A
C279   C303    1.438   .     S
C279   N325    1.376   .     A
C280   C304    1.438   .     S
C280   N326    1.376   .     A
C281   O339    1.300   .     A
C281   C283    1.475   .     S
C281   O405    1.299   .     S
C282   O340    1.300   .     A
C282   C285    1.475   .     S
C283   C290    1.398   .     A
C283   C288    1.412   .     A
C284   O334    1.296   .     A
C284   O404    1.293   .     S
C285   C289    1.412   .     A
C285   C291    1.398   .     A
C286   C294    1.403   .     A
C286   C288    1.397   .     A
C286   H320    1.085   .     S
C287   H321    1.085   .     S
C287   C296    1.403   .     A
C287   C289    1.397   .     A
C288   C368    1.443   .     S
C290   C292    1.405   .     A
C290   H319    1.079   .     S
C291   H318    1.079   .     S
C291   C293    1.405   .     A
C292   C294    1.412   .     A
C292   C297    1.429   .     A
C293   C298    1.429   .     A
C293   C296    1.412   .     A
C294   C918    1.389   .     S
C295   C306    1.392   .     A
C295   C301    1.443   .     S
C295   C298    1.428   .     A
C296   C919    1.389   1_554 S
C297   C305    1.428   .     A
C297   C910    1.430   .     S
C298   C909    1.430   1_554 S
C299   N327    1.157   .     T
C299   C357    1.443   .     S
C300   N328    1.157   .     T
C301   N329    1.156   .     T
C302   C305    1.443   .     S
C302   N330    1.156   .     T
C303   N331    1.158   .     T
C304   N332    1.158   .     T
C305   C307    1.392   .     A
C306   H313    1.086   .     S
C306   C906    1.389   1_554 S
C307   H317    1.086   .     S
C307   C908    1.389   .     S
C308   H322    1.083   .     S
C308   C344    1.402   .     S
C309   H323    1.083   .     S
C309   C478    1.383   .     S
C310   H324    1.083   .     S
C310   C512    1.383   .     S
Cu311  O337    1.949   .     S
Cu311  O336    1.963   .     S
Cu311  N325    2.021   .     S
Cu311  O333    1.966   .     S
Cu311  O340    1.934   .     S
Cu312  N326    2.021   .     S
Cu312  O335    1.963   .     S
Cu312  O334    1.966   .     S
Cu312  O338    1.949   .     S
Cu312  O339    1.934   .     S
Cu312  Cu379   2.689   .     S
O335   C341    1.293   .     S
O338   C350    1.299   .     S
C341   C344    1.450   .     S
C341   O401    1.296   .     A
C342   C344    1.400   .     A
C342   H382    1.083   .     S
C343   C352    1.450   .     S
C343   C378    1.400   .     A
C343   C241    1.402   1_655 S
C345   H383    1.083   .     S
C345   N394    1.363   .     A
C345   C347    1.419   .     A
C346   H384    1.083   .     S
C346   C348    1.419   .     A
C346   N393    1.363   .     A
C347   C371    1.438   .     S
C347   N393    1.376   .     A
C348   C372    1.438   .     S
C348   N394    1.376   .     A
C349   O407    1.300   .     A
C349   C351    1.475   .     S
C349   O269    1.299   1_655 S
C350   O408    1.300   .     A
C350   C353    1.475   .     S
C351   C358    1.398   .     A
C351   C356    1.412   .     A
C352   O402    1.296   .     A
C352   O268    1.293   1_655 S
C353   C357    1.412   .     A
C353   C359    1.398   .     A
C354   C362    1.403   .     A
C354   C356    1.397   .     A
C354   H388    1.085   .     S
C355   H389    1.085   .     S
C355   C364    1.403   .     A
C355   C357    1.397   .     A
C356   C232    1.443   1_655 S
C358   C360    1.405   .     A
C358   H387    1.079   .     S
C359   H386    1.079   .     S
C359   C361    1.405   .     A
C360   C362    1.412   .     A
C360   C365    1.429   .     A
C361   C366    1.429   .     A
C361   C364    1.412   .     A
C362   C986    1.389   .     S
C363   C374    1.392   .     A
C363   C369    1.443   .     S
C363   C366    1.428   .     A
C364   C987    1.389   1_554 S
C365   C373    1.428   .     A
C365   C978    1.430   .     S
C366   C977    1.430   1_554 S
C367   N395    1.157   .     T
C367   C221    1.443   1_655 S
C368   N396    1.157   .     T
C369   N397    1.156   .     T
C370   C373    1.443   .     S
C370   N398    1.156   .     T
C371   N399    1.158   .     T
C372   N400    1.158   .     T
C373   C375    1.392   .     A
C374   H381    1.086   .     S
C374   C974    1.389   1_554 S
C375   H385    1.086   .     S
C375   C976    1.389   .     S
C376   H390    1.083   .     S
C376   C208    1.402   1_655 S
C377   H391    1.083   .     S
C377   C546    1.383   .     S
C378   H392    1.083   .     S
C378   C580    1.383   .     S
Cu379  O405    1.949   .     S
Cu379  O404    1.963   .     S
Cu379  N393    2.021   .     S
Cu379  O401    1.966   .     S
Cu379  O408    1.934   .     S
Cu380  N394    2.021   .     S
Cu380  O403    1.963   .     S
Cu380  O402    1.966   .     S
Cu380  O406    1.949   .     S
Cu380  O407    1.934   .     S
Cu380  Cu243   2.689   1_655 S
O403   C205    1.293   1_655 S
O406   C214    1.299   1_655 S
C409   C412    1.450   .     S
C409   O469    1.296   .     A
C409   O607    1.293   1_455 S
C410   C412    1.400   .     A
C410   H450    1.083   .     S
C411   C420    1.450   .     S
C411   C446    1.400   .     A
C411   C513    1.402   .     S
C412   C580    1.402   1_455 S
C413   H451    1.083   .     S
C413   N462    1.363   .     A
C413   C415    1.419   .     A
C414   H452    1.083   .     S
C414   C416    1.419   .     A
C414   N461    1.363   .     A
C415   C439    1.438   .     S
C415   N461    1.376   .     A
C416   C440    1.438   .     S
C416   N462    1.376   .     A
C417   O475    1.300   .     A
C417   C419    1.475   .     S
C417   O541    1.299   .     S
C418   O476    1.300   .     A
C418   C421    1.475   .     S
C418   O610    1.299   1_455 S
C419   C426    1.398   .     A
C419   C424    1.412   .     A
C420   O470    1.296   .     A
C420   O540    1.293   .     S
C421   C425    1.412   .     A
C421   C427    1.398   .     A
C422   C430    1.403   .     A
C422   C424    1.397   .     A
C422   H456    1.085   .     S
C423   H457    1.085   .     S
C423   C432    1.403   .     A
C423   C425    1.397   .     A
C424   C504    1.443   .     S
C425   C571    1.443   1_455 S
C426   C428    1.405   .     A
C426   H455    1.079   .     S
C427   H454    1.079   .     S
C427   C429    1.405   .     A
C428   C430    1.412   .     A
C428   C433    1.429   .     A
C429   C434    1.429   .     A
C429   C432    1.412   .     A
C430   C1054   1.389   .     S
C431   C442    1.392   .     A
C431   C437    1.443   .     S
C431   C434    1.428   .     A
C432   C1055   1.389   1_554 S
C433   C441    1.428   .     A
C433   C1046   1.430   .     S
C434   C1045   1.430   1_554 S
C435   N463    1.157   .     T
C435   C493    1.443   .     S
C436   N464    1.157   .     T
C436   C560    1.443   1_455 S
C437   N465    1.156   .     T
C438   C441    1.443   .     S
C438   N466    1.156   .     T
C439   N467    1.158   .     T
C440   N468    1.158   .     T
C441   C443    1.392   .     A
C442   H449    1.086   .     S
C442   C1042   1.389   1_554 S
C443   H453    1.086   .     S
C443   C1044   1.389   .     S
C444   H458    1.083   .     S
C444   C480    1.402   .     S
C445   H459    1.083   .     S
C445   C547    1.402   1_455 S
C445   C2      1.383   1_565 S
C446   H460    1.083   .     S
C446   C36     1.383   1_565 S
Cu447  O473    1.949   .     S
Cu447  O472    1.963   .     S
Cu447  N461    2.021   .     S
Cu447  O469    1.966   .     S
Cu447  O476    1.934   .     S
Cu447  Cu584   2.689   1_455 S
Cu448  N462    2.021   .     S
Cu448  O471    1.963   .     S
Cu448  O470    1.966   .     S
Cu448  O474    1.949   .     S
Cu448  O475    1.934   .     S
Cu448  Cu515   2.689   .     S
O471   C477    1.293   .     S
O472   C556    1.293   1_455 S
O473   C553    1.299   1_455 S
O474   C486    1.299   .     S
C477   C480    1.450   .     S
C477   O537    1.296   .     A
C478   C480    1.400   .     A
C478   H518    1.083   .     S
C479   C488    1.450   .     S
C479   C514    1.400   .     A
C479   C581    1.402   .     S
C481   H519    1.083   .     S
C481   N530    1.363   .     A
C481   C483    1.419   .     A
C482   H520    1.083   .     S
C482   C484    1.419   .     A
C482   N529    1.363   .     A
C483   C507    1.438   .     S
C483   N529    1.376   .     A
C484   C508    1.438   .     S
C484   N530    1.376   .     A
C485   O543    1.300   .     A
C485   C487    1.475   .     S
C485   O609    1.299   .     S
C486   O544    1.300   .     A
C486   C489    1.475   .     S
C487   C494    1.398   .     A
C487   C492    1.412   .     A
C488   O538    1.296   .     A
C488   O608    1.293   .     S
C489   C493    1.412   .     A
C489   C495    1.398   .     A
C490   C498    1.403   .     A
C490   C492    1.397   .     A
C490   H524    1.085   .     S
C491   H525    1.085   .     S
C491   C500    1.403   .     A
C491   C493    1.397   .     A
C492   C572    1.443   .     S
C494   C496    1.405   .     A
C494   H523    1.079   .     S
C495   H522    1.079   .     S
C495   C497    1.405   .     A
C496   C498    1.412   .     A
C496   C501    1.429   .     A
C497   C502    1.429   .     A
C497   C500    1.412   .     A
C498   C1122   1.389   .     S
C499   C510    1.392   .     A
C499   C505    1.443   .     S
C499   C502    1.428   .     A
C500   C1123   1.389   1_554 S
C501   C509    1.428   .     A
C501   C1114   1.430   .     S
C502   C1113   1.430   1_554 S
C503   N531    1.157   .     T
C503   C561    1.443   .     S
C504   N532    1.157   .     T
C505   N533    1.156   .     T
C506   C509    1.443   .     S
C506   N534    1.156   .     T
C507   N535    1.158   .     T
C508   N536    1.158   .     T
C509   C511    1.392   .     A
C510   H517    1.086   .     S
C510   C1110   1.389   1_554 S
C511   H521    1.086   .     S
C511   C1112   1.389   .     S
C512   H526    1.083   .     S
C512   C548    1.402   .     S
C513   H527    1.083   .     S
C513   C70     1.383   1_565 S
C514   H528    1.083   .     S
C514   C104    1.383   1_565 S
Cu515  O541    1.949   .     S
Cu515  O540    1.963   .     S
Cu515  N529    2.021   .     S
Cu515  O537    1.966   .     S
Cu515  O544    1.934   .     S
Cu516  N530    2.021   .     S
Cu516  O539    1.963   .     S
Cu516  O538    1.966   .     S
Cu516  O542    1.949   .     S
Cu516  O543    1.934   .     S
Cu516  Cu583   2.689   .     S
O539   C545    1.293   .     S
O542   C554    1.299   .     S
C545   C548    1.450   .     S
C545   O605    1.296   .     A
C546   C548    1.400   .     A
C546   H586    1.083   .     S
C547   C556    1.450   .     S
C547   C582    1.400   .     A
C547   C445    1.402   1_655 S
C549   H587    1.083   .     S
C549   N598    1.363   .     A
C549   C551    1.419   .     A
C550   H588    1.083   .     S
C550   C552    1.419   .     A
C550   N597    1.363   .     A
C551   C575    1.438   .     S
C551   N597    1.376   .     A
C552   C576    1.438   .     S
C552   N598    1.376   .     A
C553   O611    1.300   .     A
C553   C555    1.475   .     S
C553   O473    1.299   1_655 S
C554   O612    1.300   .     A
C554   C557    1.475   .     S
C555   C562    1.398   .     A
C555   C560    1.412   .     A
C556   O606    1.296   .     A
C556   O472    1.293   1_655 S
C557   C561    1.412   .     A
C557   C563    1.398   .     A
C558   C566    1.403   .     A
C558   C560    1.397   .     A
C558   H592    1.085   .     S
C559   H593    1.085   .     S
C559   C568    1.403   .     A
C559   C561    1.397   .     A
C560   C436    1.443   1_655 S
C562   C564    1.405   .     A
C562   H591    1.079   .     S
C563   H590    1.079   .     S
C563   C565    1.405   .     A
C564   C566    1.412   .     A
C564   C569    1.429   .     A
C565   C570    1.429   .     A
C565   C568    1.412   .     A
C566   C1190   1.389   .     S
C567   C578    1.392   .     A
C567   C573    1.443   .     S
C567   C570    1.428   .     A
C568   C1191   1.389   1_554 S
C569   C577    1.428   .     A
C569   C1182   1.430   .     S
C570   C1181   1.430   1_554 S
C571   N599    1.157   .     T
C571   C425    1.443   1_655 S
C572   N600    1.157   .     T
C573   N601    1.156   .     T
C574   C577    1.443   .     S
C574   N602    1.156   .     T
C575   N603    1.158   .     T
C576   N604    1.158   .     T
C577   C579    1.392   .     A
C578   H585    1.086   .     S
C578   C1178   1.389   1_554 S
C579   H589    1.086   .     S
C579   C1180   1.389   .     S
C580   H594    1.083   .     S
C580   C412    1.402   1_655 S
C581   H595    1.083   .     S
C581   C138    1.383   1_565 S
C582   H596    1.083   .     S
C582   C172    1.383   1_565 S
Cu583  O609    1.949   .     S
Cu583  O608    1.963   .     S
Cu583  N597    2.021   .     S
Cu583  O605    1.966   .     S
Cu583  O612    1.934   .     S
Cu584  N598    2.021   .     S
Cu584  O607    1.963   .     S
Cu584  O606    1.966   .     S
Cu584  O610    1.949   .     S
Cu584  O611    1.934   .     S
Cu584  Cu447   2.689   1_655 S
O607   C409    1.293   1_655 S
O610   C418    1.299   1_655 S
C613   C616    1.450   .     S
C613   O673    1.296   .     A
C613   O811    1.293   1_455 S
C614   C616    1.400   .     A
C614   H654    1.083   .     S
C614   C1057   1.383   1_545 S
C615   C624    1.450   .     S
C615   C650    1.400   .     A
C615   C717    1.402   .     S
C616   C784    1.402   1_455 S
C617   H655    1.083   .     S
C617   N666    1.363   .     A
C617   C619    1.419   .     A
C618   H656    1.083   .     S
C618   C620    1.419   .     A
C618   N665    1.363   .     A
C619   C643    1.438   .     S
C619   N665    1.376   .     A
C620   C644    1.438   .     S
C620   N666    1.376   .     A
C621   O679    1.300   .     A
C621   C623    1.475   .     S
C621   O745    1.299   .     S
C622   O680    1.300   .     A
C622   C625    1.475   .     S
C622   O814    1.299   1_455 S
C623   C630    1.398   .     A
C623   C628    1.412   .     A
C624   O674    1.296   .     A
C624   O744    1.293   .     S
C625   C629    1.412   .     A
C625   C631    1.398   .     A
C626   C634    1.403   .     A
C626   C628    1.397   .     A
C626   H660    1.085   .     S
C627   H661    1.085   .     S
C627   C636    1.403   .     A
C627   C629    1.397   .     A
C628   C708    1.443   .     S
C629   C775    1.443   1_455 S
C630   C632    1.405   .     A
C630   H659    1.079   .     S
C631   H658    1.079   .     S
C631   C633    1.405   .     A
C632   C634    1.412   .     A
C632   C637    1.429   .     A
C633   C638    1.429   .     A
C633   C636    1.412   .     A
C634   C34     1.389   1_556 S
C635   C646    1.392   .     A
C635   C641    1.443   .     S
C635   C638    1.428   .     A
C637   C645    1.428   .     A
C637   C26     1.430   1_556 S
C639   N667    1.157   .     T
C639   C697    1.443   .     S
C640   N668    1.157   .     T
C640   C764    1.443   1_455 S
C641   N669    1.156   .     T
C642   C645    1.443   .     S
C642   N670    1.156   .     T
C643   N671    1.158   .     T
C644   N672    1.158   .     T
C645   C647    1.392   .     A
C646   H653    1.086   .     S
C647   H657    1.086   .     S
C647   C24     1.389   1_556 S
C648   H662    1.083   .     S
C648   C684    1.402   .     S
C648   C1058   1.383   1_545 S
C649   H663    1.083   .     S
C649   C751    1.402   1_455 S
C649   C818    1.383   .     S
C650   H664    1.083   .     S
C650   C852    1.383   .     S
Cu651  O677    1.949   .     S
Cu651  O676    1.963   .     S
Cu651  N665    2.021   .     S
Cu651  O673    1.966   .     S
Cu651  O680    1.934   .     S
Cu651  Cu788   2.689   1_455 S
Cu652  N666    2.021   .     S
Cu652  O675    1.963   .     S
Cu652  O674    1.966   .     S
Cu652  O678    1.949   .     S
Cu652  O679    1.934   .     S
Cu652  Cu719   2.689   .     S
O675   C681    1.293   .     S
O676   C760    1.293   1_455 S
O677   C757    1.299   1_455 S
O678   C690    1.299   .     S
C681   C684    1.450   .     S
C681   O741    1.296   .     A
C682   C684    1.400   .     A
C682   H722    1.083   .     S
C682   C1125   1.383   1_545 S
C683   C692    1.450   .     S
C683   C718    1.400   .     A
C683   C785    1.402   .     S
C685   H723    1.083   .     S
C685   N734    1.363   .     A
C685   C687    1.419   .     A
C686   H724    1.083   .     S
C686   C688    1.419   .     A
C686   N733    1.363   .     A
C687   C711    1.438   .     S
C687   N733    1.376   .     A
C688   C712    1.438   .     S
C688   N734    1.376   .     A
C689   O747    1.300   .     A
C689   C691    1.475   .     S
C689   O813    1.299   .     S
C690   O748    1.300   .     A
C690   C693    1.475   .     S
C691   C698    1.398   .     A
C691   C696    1.412   .     A
C692   O742    1.296   .     A
C692   O812    1.293   .     S
C693   C697    1.412   .     A
C693   C699    1.398   .     A
C694   C702    1.403   .     A
C694   C696    1.397   .     A
C694   H728    1.085   .     S
C695   H729    1.085   .     S
C695   C704    1.403   .     A
C695   C697    1.397   .     A
C696   C776    1.443   .     S
C698   C700    1.405   .     A
C698   H727    1.079   .     S
C699   H726    1.079   .     S
C699   C701    1.405   .     A
C700   C702    1.412   .     A
C700   C705    1.429   .     A
C701   C706    1.429   .     A
C701   C704    1.412   .     A
C702   C102    1.389   1_556 S
C703   C714    1.392   .     A
C703   C709    1.443   .     S
C703   C706    1.428   .     A
C705   C713    1.428   .     A
C705   C94     1.430   1_556 S
C707   N735    1.157   .     T
C707   C765    1.443   .     S
C708   N736    1.157   .     T
C709   N737    1.156   .     T
C710   C713    1.443   .     S
C710   N738    1.156   .     T
C711   N739    1.158   .     T
C712   N740    1.158   .     T
C713   C715    1.392   .     A
C714   H721    1.086   .     S
C715   H725    1.086   .     S
C715   C92     1.389   1_556 S
C716   H730    1.083   .     S
C716   C752    1.402   .     S
C716   C1126   1.383   1_545 S
C717   H731    1.083   .     S
C717   C886    1.383   .     S
C718   H732    1.083   .     S
C718   C920    1.383   .     S
Cu719  O745    1.949   .     S
Cu719  O744    1.963   .     S
Cu719  N733    2.021   .     S
Cu719  O741    1.966   .     S
Cu719  O748    1.934   .     S
Cu720  N734    2.021   .     S
Cu720  O743    1.963   .     S
Cu720  O742    1.966   .     S
Cu720  O746    1.949   .     S
Cu720  O747    1.934   .     S
Cu720  Cu787   2.689   .     S
O743   C749    1.293   .     S
O746   C758    1.299   .     S
C749   C752    1.450   .     S
C749   O809    1.296   .     A
C750   C752    1.400   .     A
C750   H790    1.083   .     S
C750   C1193   1.383   1_545 S
C751   C760    1.450   .     S
C751   C786    1.400   .     A
C751   C649    1.402   1_655 S
C753   H791    1.083   .     S
C753   N802    1.363   .     A
C753   C755    1.419   .     A
C754   H792    1.083   .     S
C754   C756    1.419   .     A
C754   N801    1.363   .     A
C755   C779    1.438   .     S
C755   N801    1.376   .     A
C756   C780    1.438   .     S
C756   N802    1.376   .     A
C757   O815    1.300   .     A
C757   C759    1.475   .     S
C757   O677    1.299   1_655 S
C758   O816    1.300   .     A
C758   C761    1.475   .     S
C759   C766    1.398   .     A
C759   C764    1.412   .     A
C760   O810    1.296   .     A
C760   O676    1.293   1_655 S
C761   C765    1.412   .     A
C761   C767    1.398   .     A
C762   C770    1.403   .     A
C762   C764    1.397   .     A
C762   H796    1.085   .     S
C763   H797    1.085   .     S
C763   C772    1.403   .     A
C763   C765    1.397   .     A
C764   C640    1.443   1_655 S
C766   C768    1.405   .     A
C766   H795    1.079   .     S
C767   H794    1.079   .     S
C767   C769    1.405   .     A
C768   C770    1.412   .     A
C768   C773    1.429   .     A
C769   C774    1.429   .     A
C769   C772    1.412   .     A
C770   C170    1.389   1_556 S
C771   C782    1.392   .     A
C771   C777    1.443   .     S
C771   C774    1.428   .     A
C773   C781    1.428   .     A
C773   C162    1.430   1_556 S
C775   N803    1.157   .     T
C775   C629    1.443   1_655 S
C776   N804    1.157   .     T
C777   N805    1.156   .     T
C778   C781    1.443   .     S
C778   N806    1.156   .     T
C779   N807    1.158   .     T
C780   N808    1.158   .     T
C781   C783    1.392   .     A
C782   H789    1.086   .     S
C783   H793    1.086   .     S
C783   C160    1.389   1_556 S
C784   H798    1.083   .     S
C784   C616    1.402   1_655 S
C784   C1194   1.383   1_545 S
C785   H799    1.083   .     S
C785   C954    1.383   .     S
C786   H800    1.083   .     S
C786   C988    1.383   .     S
Cu787  O813    1.949   .     S
Cu787  O812    1.963   .     S
Cu787  N801    2.021   .     S
Cu787  O809    1.966   .     S
Cu787  O816    1.934   .     S
Cu788  N802    2.021   .     S
Cu788  O811    1.963   .     S
Cu788  O810    1.966   .     S
Cu788  O814    1.949   .     S
Cu788  O815    1.934   .     S
Cu788  Cu651   2.689   1_655 S
O811   C613    1.293   1_655 S
O814   C622    1.299   1_655 S
C817   C820    1.450   .     S
C817   O877    1.296   .     A
C817   O1015   1.293   1_455 S
C818   C820    1.400   .     A
C818   H858    1.083   .     S
C819   C828    1.450   .     S
C819   C854    1.400   .     A
C819   C921    1.402   .     S
C820   C988    1.402   1_455 S
C821   H859    1.083   .     S
C821   N870    1.363   .     A
C821   C823    1.419   .     A
C822   H860    1.083   .     S
C822   C824    1.419   .     A
C822   N869    1.363   .     A
C823   C847    1.438   .     S
C823   N869    1.376   .     A
C824   C848    1.438   .     S
C824   N870    1.376   .     A
C825   O883    1.300   .     A
C825   C827    1.475   .     S
C825   O949    1.299   .     S
C826   O884    1.300   .     A
C826   C829    1.475   .     S
C826   O1018   1.299   1_455 S
C827   C834    1.398   .     A
C827   C832    1.412   .     A
C828   O878    1.296   .     A
C828   O948    1.293   .     S
C829   C833    1.412   .     A
C829   C835    1.398   .     A
C830   C838    1.403   .     A
C830   C832    1.397   .     A
C830   H864    1.085   .     S
C831   H865    1.085   .     S
C831   C840    1.403   .     A
C831   C833    1.397   .     A
C832   C912    1.443   .     S
C833   C979    1.443   1_455 S
C834   C836    1.405   .     A
C834   H863    1.079   .     S
C835   H862    1.079   .     S
C835   C837    1.405   .     A
C836   C838    1.412   .     A
C836   C841    1.429   .     A
C837   C842    1.429   .     A
C837   C840    1.412   .     A
C838   C238    1.389   1_556 S
C839   C850    1.392   .     A
C839   C845    1.443   .     S
C839   C842    1.428   .     A
C841   C849    1.428   .     A
C841   C230    1.430   1_556 S
C843   N871    1.157   .     T
C843   C901    1.443   .     S
C844   N872    1.157   .     T
C844   C968    1.443   1_455 S
C845   N873    1.156   .     T
C846   C849    1.443   .     S
C846   N874    1.156   .     T
C847   N875    1.158   .     T
C848   N876    1.158   .     T
C849   C851    1.392   .     A
C850   H857    1.086   .     S
C851   H861    1.086   .     S
C851   C228    1.389   1_556 S
C852   H866    1.083   .     S
C852   C888    1.402   .     S
C853   H867    1.083   .     S
C853   C955    1.402   1_455 S
C853   C1022   1.383   .     S
C854   H868    1.083   .     S
C854   C1056   1.383   .     S
Cu855  O881    1.949   .     S
Cu855  O880    1.963   .     S
Cu855  N869    2.021   .     S
Cu855  O877    1.966   .     S
Cu855  O884    1.934   .     S
Cu855  Cu992   2.689   1_455 S
Cu856  N870    2.021   .     S
Cu856  O879    1.963   .     S
Cu856  O878    1.966   .     S
Cu856  O882    1.949   .     S
Cu856  O883    1.934   .     S
Cu856  Cu923   2.689   .     S
O879   C885    1.293   .     S
O880   C964    1.293   1_455 S
O881   C961    1.299   1_455 S
O882   C894    1.299   .     S
C885   C888    1.450   .     S
C885   O945    1.296   .     A
C886   C888    1.400   .     A
C886   H926    1.083   .     S
C887   C896    1.450   .     S
C887   C922    1.400   .     A
C887   C989    1.402   .     S
C889   H927    1.083   .     S
C889   N938    1.363   .     A
C889   C891    1.419   .     A
C890   H928    1.083   .     S
C890   C892    1.419   .     A
C890   N937    1.363   .     A
C891   C915    1.438   .     S
C891   N937    1.376   .     A
C892   C916    1.438   .     S
C892   N938    1.376   .     A
C893   O951    1.300   .     A
C893   C895    1.475   .     S
C893   O1017   1.299   .     S
C894   O952    1.300   .     A
C894   C897    1.475   .     S
C895   C902    1.398   .     A
C895   C900    1.412   .     A
C896   O946    1.296   .     A
C896   O1016   1.293   .     S
C897   C901    1.412   .     A
C897   C903    1.398   .     A
C898   C906    1.403   .     A
C898   C900    1.397   .     A
C898   H932    1.085   .     S
C899   H933    1.085   .     S
C899   C908    1.403   .     A
C899   C901    1.397   .     A
C900   C980    1.443   .     S
C902   C904    1.405   .     A
C902   H931    1.079   .     S
C903   H930    1.079   .     S
C903   C905    1.405   .     A
C904   C906    1.412   .     A
C904   C909    1.429   .     A
C905   C910    1.429   .     A
C905   C908    1.412   .     A
C906   C306    1.389   1_556 S
C907   C918    1.392   .     A
C907   C913    1.443   .     S
C907   C910    1.428   .     A
C909   C917    1.428   .     A
C909   C298    1.430   1_556 S
C911   N939    1.157   .     T
C911   C969    1.443   .     S
C912   N940    1.157   .     T
C913   N941    1.156   .     T
C914   C917    1.443   .     S
C914   N942    1.156   .     T
C915   N943    1.158   .     T
C916   N944    1.158   .     T
C917   C919    1.392   .     A
C918   H925    1.086   .     S
C919   H929    1.086   .     S
C919   C296    1.389   1_556 S
C920   H934    1.083   .     S
C920   C956    1.402   .     S
C921   H935    1.083   .     S
C921   C1090   1.383   .     S
C922   H936    1.083   .     S
C922   C1124   1.383   .     S
Cu923  O949    1.949   .     S
Cu923  O948    1.963   .     S
Cu923  N937    2.021   .     S
Cu923  O945    1.966   .     S
Cu923  O952    1.934   .     S
Cu924  N938    2.021   .     S
Cu924  O947    1.963   .     S
Cu924  O946    1.966   .     S
Cu924  O950    1.949   .     S
Cu924  O951    1.934   .     S
Cu924  Cu991   2.689   .     S
O947   C953    1.293   .     S
O950   C962    1.299   .     S
C953   C956    1.450   .     S
C953   O1013   1.296   .     A
C954   C956    1.400   .     A
C954   H994    1.083   .     S
C955   C964    1.450   .     S
C955   C990    1.400   .     A
C955   C853    1.402   1_655 S
C957   H995    1.083   .     S
C957   N1006   1.363   .     A
C957   C959    1.419   .     A
C958   H996    1.083   .     S
C958   C960    1.419   .     A
C958   N1005   1.363   .     A
C959   C983    1.438   .     S
C959   N1005   1.376   .     A
C960   C984    1.438   .     S
C960   N1006   1.376   .     A
C961   O1019   1.300   .     A
C961   C963    1.475   .     S
C961   O881    1.299   1_655 S
C962   O1020   1.300   .     A
C962   C965    1.475   .     S
C963   C970    1.398   .     A
C963   C968    1.412   .     A
C964   O1014   1.296   .     A
C964   O880    1.293   1_655 S
C965   C969    1.412   .     A
C965   C971    1.398   .     A
C966   C974    1.403   .     A
C966   C968    1.397   .     A
C966   H1000   1.085   .     S
C967   H1001   1.085   .     S
C967   C976    1.403   .     A
C967   C969    1.397   .     A
C968   C844    1.443   1_655 S
C970   C972    1.405   .     A
C970   H999    1.079   .     S
C971   H998    1.079   .     S
C971   C973    1.405   .     A
C972   C974    1.412   .     A
C972   C977    1.429   .     A
C973   C978    1.429   .     A
C973   C976    1.412   .     A
C974   C374    1.389   1_556 S
C975   C986    1.392   .     A
C975   C981    1.443   .     S
C975   C978    1.428   .     A
C977   C985    1.428   .     A
C977   C366    1.430   1_556 S
C979   N1007   1.157   .     T
C979   C833    1.443   1_655 S
C980   N1008   1.157   .     T
C981   N1009   1.156   .     T
C982   C985    1.443   .     S
C982   N1010   1.156   .     T
C983   N1011   1.158   .     T
C984   N1012   1.158   .     T
C985   C987    1.392   .     A
C986   H993    1.086   .     S
C987   H997    1.086   .     S
C987   C364    1.389   1_556 S
C988   H1002   1.083   .     S
C988   C820    1.402   1_655 S
C989   H1003   1.083   .     S
C989   C1158   1.383   .     S
C990   H1004   1.083   .     S
C990   C1192   1.383   .     S
Cu991  O1017   1.949   .     S
Cu991  O1016   1.963   .     S
Cu991  N1005   2.021   .     S
Cu991  O1013   1.966   .     S
Cu991  O1020   1.934   .     S
Cu992  N1006   2.021   .     S
Cu992  O1015   1.963   .     S
Cu992  O1014   1.966   .     S
Cu992  O1018   1.949   .     S
Cu992  O1019   1.934   .     S
Cu992  Cu855   2.689   1_655 S
O1015  C817    1.293   1_655 S
O1018  C826    1.299   1_655 S
C1021  C1024   1.450   .     S
C1021  O1081   1.296   .     A
C1021  O1219   1.293   1_455 S
C1022  C1024   1.400   .     A
C1022  H1062   1.083   .     S
C1023  C1032   1.450   .     S
C1023  C1058   1.400   .     A
C1023  C1125   1.402   .     S
C1024  C1192   1.402   1_455 S
C1025  H1063   1.083   .     S
C1025  N1074   1.363   .     A
C1025  C1027   1.419   .     A
C1026  H1064   1.083   .     S
C1026  C1028   1.419   .     A
C1026  N1073   1.363   .     A
C1027  C1051   1.438   .     S
C1027  N1073   1.376   .     A
C1028  C1052   1.438   .     S
C1028  N1074   1.376   .     A
C1029  O1087   1.300   .     A
C1029  C1031   1.475   .     S
C1029  O1153   1.299   .     S
C1030  O1088   1.300   .     A
C1030  C1033   1.475   .     S
C1030  O1222   1.299   1_455 S
C1031  C1038   1.398   .     A
C1031  C1036   1.412   .     A
C1032  O1082   1.296   .     A
C1032  O1152   1.293   .     S
C1033  C1037   1.412   .     A
C1033  C1039   1.398   .     A
C1034  C1042   1.403   .     A
C1034  C1036   1.397   .     A
C1034  H1068   1.085   .     S
C1035  H1069   1.085   .     S
C1035  C1044   1.403   .     A
C1035  C1037   1.397   .     A
C1036  C1116   1.443   .     S
C1037  C1183   1.443   1_455 S
C1038  C1040   1.405   .     A
C1038  H1067   1.079   .     S
C1039  H1066   1.079   .     S
C1039  C1041   1.405   .     A
C1040  C1042   1.412   .     A
C1040  C1045   1.429   .     A
C1041  C1046   1.429   .     A
C1041  C1044   1.412   .     A
C1042  C442    1.389   1_556 S
C1043  C1054   1.392   .     A
C1043  C1049   1.443   .     S
C1043  C1046   1.428   .     A
C1045  C1053   1.428   .     A
C1045  C434    1.430   1_556 S
C1047  N1075   1.157   .     T
C1047  C1105   1.443   .     S
C1048  N1076   1.157   .     T
C1048  C1172   1.443   1_455 S
C1049  N1077   1.156   .     T
C1050  C1053   1.443   .     S
C1050  N1078   1.156   .     T
C1051  N1079   1.158   .     T
C1052  N1080   1.158   .     T
C1053  C1055   1.392   .     A
C1054  H1061   1.086   .     S
C1055  H1065   1.086   .     S
C1055  C432    1.389   1_556 S
C1056  H1070   1.083   .     S
C1056  C1092   1.402   .     S
C1057  H1071   1.083   .     S
C1057  C1159   1.402   1_455 S
C1057  C614    1.383   1_565 S
C1058  H1072   1.083   .     S
C1058  C648    1.383   1_565 S
Cu1059 O1085   1.949   .     S
Cu1059 O1084   1.963   .     S
Cu1059 N1073   2.021   .     S
Cu1059 O1081   1.966   .     S
Cu1059 O1088   1.934   .     S
Cu1059 Cu1196  2.689   1_455 S
Cu1060 N1074   2.021   .     S
Cu1060 O1083   1.963   .     S
Cu1060 O1082   1.966   .     S
Cu1060 O1086   1.949   .     S
Cu1060 O1087   1.934   .     S
Cu1060 Cu1127  2.689   .     S
O1083  C1089   1.293   .     S
O1084  C1168   1.293   1_455 S
O1085  C1165   1.299   1_455 S
O1086  C1098   1.299   .     S
C1089  C1092   1.450   .     S
C1089  O1149   1.296   .     A
C1090  C1092   1.400   .     A
C1090  H1130   1.083   .     S
C1091  C1100   1.450   .     S
C1091  C1126   1.400   .     A
C1091  C1193   1.402   .     S
C1093  H1131   1.083   .     S
C1093  N1142   1.363   .     A
C1093  C1095   1.419   .     A
C1094  H1132   1.083   .     S
C1094  C1096   1.419   .     A
C1094  N1141   1.363   .     A
C1095  C1119   1.438   .     S
C1095  N1141   1.376   .     A
C1096  C1120   1.438   .     S
C1096  N1142   1.376   .     A
C1097  O1155   1.300   .     A
C1097  C1099   1.475   .     S
C1097  O1221   1.299   .     S
C1098  O1156   1.300   .     A
C1098  C1101   1.475   .     S
C1099  C1106   1.398   .     A
C1099  C1104   1.412   .     A
C1100  O1150   1.296   .     A
C1100  O1220   1.293   .     S
C1101  C1105   1.412   .     A
C1101  C1107   1.398   .     A
C1102  C1110   1.403   .     A
C1102  C1104   1.397   .     A
C1102  H1136   1.085   .     S
C1103  H1137   1.085   .     S
C1103  C1112   1.403   .     A
C1103  C1105   1.397   .     A
C1104  C1184   1.443   .     S
C1106  C1108   1.405   .     A
C1106  H1135   1.079   .     S
C1107  H1134   1.079   .     S
C1107  C1109   1.405   .     A
C1108  C1110   1.412   .     A
C1108  C1113   1.429   .     A
C1109  C1114   1.429   .     A
C1109  C1112   1.412   .     A
C1110  C510    1.389   1_556 S
C1111  C1122   1.392   .     A
C1111  C1117   1.443   .     S
C1111  C1114   1.428   .     A
C1113  C1121   1.428   .     A
C1113  C502    1.430   1_556 S
C1115  N1143   1.157   .     T
C1115  C1173   1.443   .     S
C1116  N1144   1.157   .     T
C1117  N1145   1.156   .     T
C1118  C1121   1.443   .     S
C1118  N1146   1.156   .     T
C1119  N1147   1.158   .     T
C1120  N1148   1.158   .     T
C1121  C1123   1.392   .     A
C1122  H1129   1.086   .     S
C1123  H1133   1.086   .     S
C1123  C500    1.389   1_556 S
C1124  H1138   1.083   .     S
C1124  C1160   1.402   .     S
C1125  H1139   1.083   .     S
C1125  C682    1.383   1_565 S
C1126  H1140   1.083   .     S
C1126  C716    1.383   1_565 S
Cu1127 O1153   1.949   .     S
Cu1127 O1152   1.963   .     S
Cu1127 N1141   2.021   .     S
Cu1127 O1149   1.966   .     S
Cu1127 O1156   1.934   .     S
Cu1128 N1142   2.021   .     S
Cu1128 O1151   1.963   .     S
Cu1128 O1150   1.966   .     S
Cu1128 O1154   1.949   .     S
Cu1128 O1155   1.934   .     S
Cu1128 Cu1195  2.689   .     S
O1151  C1157   1.293   .     S
O1154  C1166   1.299   .     S
C1157  C1160   1.450   .     S
C1157  O1217   1.296   .     A
C1158  C1160   1.400   .     A
C1158  H1198   1.083   .     S
C1159  C1168   1.450   .     S
C1159  C1194   1.400   .     A
C1159  C1057   1.402   1_655 S
C1161  H1199   1.083   .     S
C1161  N1210   1.363   .     A
C1161  C1163   1.419   .     A
C1162  H1200   1.083   .     S
C1162  C1164   1.419   .     A
C1162  N1209   1.363   .     A
C1163  C1187   1.438   .     S
C1163  N1209   1.376   .     A
C1164  C1188   1.438   .     S
C1164  N1210   1.376   .     A
C1165  O1223   1.300   .     A
C1165  C1167   1.475   .     S
C1165  O1085   1.299   1_655 S
C1166  O1224   1.300   .     A
C1166  C1169   1.475   .     S
C1167  C1174   1.398   .     A
C1167  C1172   1.412   .     A
C1168  O1218   1.296   .     A
C1168  O1084   1.293   1_655 S
C1169  C1173   1.412   .     A
C1169  C1175   1.398   .     A
C1170  C1178   1.403   .     A
C1170  C1172   1.397   .     A
C1170  H1204   1.085   .     S
C1171  H1205   1.085   .     S
C1171  C1180   1.403   .     A
C1171  C1173   1.397   .     A
C1172  C1048   1.443   1_655 S
C1174  C1176   1.405   .     A
C1174  H1203   1.079   .     S
C1175  H1202   1.079   .     S
C1175  C1177   1.405   .     A
C1176  C1178   1.412   .     A
C1176  C1181   1.429   .     A
C1177  C1182   1.429   .     A
C1177  C1180   1.412   .     A
C1178  C578    1.389   1_556 S
C1179  C1190   1.392   .     A
C1179  C1185   1.443   .     S
C1179  C1182   1.428   .     A
C1181  C1189   1.428   .     A
C1181  C570    1.430   1_556 S
C1183  N1211   1.157   .     T
C1183  C1037   1.443   1_655 S
C1184  N1212   1.157   .     T
C1185  N1213   1.156   .     T
C1186  C1189   1.443   .     S
C1186  N1214   1.156   .     T
C1187  N1215   1.158   .     T
C1188  N1216   1.158   .     T
C1189  C1191   1.392   .     A
C1190  H1197   1.086   .     S
C1191  H1201   1.086   .     S
C1191  C568    1.389   1_556 S
C1192  H1206   1.083   .     S
C1192  C1024   1.402   1_655 S
C1193  H1207   1.083   .     S
C1193  C750    1.383   1_565 S
C1194  H1208   1.083   .     S
C1194  C784    1.383   1_565 S
Cu1195 O1221   1.949   .     S
Cu1195 O1220   1.963   .     S
Cu1195 N1209   2.021   .     S
Cu1195 O1217   1.966   .     S
Cu1195 O1224   1.934   .     S
Cu1196 N1210   2.021   .     S
Cu1196 O1219   1.963   .     S
Cu1196 O1218   1.966   .     S
Cu1196 O1222   1.949   .     S
Cu1196 O1223   1.934   .     S
Cu1196 Cu1059  2.689   1_655 S
O1219  C1021   1.293   1_655 S
O1222  C1030   1.299   1_655 S
