data_str_m3_o10_o18_pcu_sym.116
_audit_creation_date              2020-01-03
_audit_creation_method            'Materials Studio'
_symmetry_space_group_name_H-M    'P1'
_symmetry_Int_Tables_number       1
_symmetry_cell_setting            triclinic
loop_
_symmetry_equiv_pos_as_xyz
  x,y,z
_cell_length_a                    23.5123
_cell_length_b                    25.7677
_cell_length_c                    27.5413
_cell_angle_alpha                 93.5020
_cell_angle_beta                  93.1662
_cell_angle_gamma                 93.9390
loop_
_atom_site_label
_atom_site_type_symbol
_atom_site_fract_x
_atom_site_fract_y
_atom_site_fract_z
_atom_site_U_iso_or_equiv
_atom_site_adp_type
_atom_site_occupancy
C1     C     0.01487   0.26481   0.24913   0.00000  Uiso   1.00
C2     C     0.31209   0.16198   0.15901   0.00000  Uiso   1.00
C3     C     0.03066   0.17245   0.39363   0.00000  Uiso   1.00
C4     C     0.29981   0.15056   0.10722   0.00000  Uiso   1.00
C5     C     0.01083   0.20643   0.47398   0.00000  Uiso   1.00
C6     C     0.30657   0.09421   0.03481   0.00000  Uiso   1.00
C7     C     0.32828   0.19827   0.42454   0.00000  Uiso   1.00
C8     C     0.32867   0.11345   0.08091   0.00000  Uiso   1.00
C9     C     0.07909   0.15106   0.41251   0.00000  Uiso   1.00
C10    C     0.25069   0.16943   0.08712   0.00000  Uiso   1.00
C11    C     0.09566   0.15816   0.46195   0.00000  Uiso   1.00
C12    C     0.31846   0.06852   0.25082   0.00000  Uiso   1.00
C13    C     0.22413   0.14624   0.04400   0.00000  Uiso   1.00
C14    C     0.06212   0.18841   0.49248   0.00000  Uiso   1.00
C15    C     0.25390   0.10971   0.01650   0.00000  Uiso   1.00
C16    C     0.14716   0.13965   0.48072   0.00000  Uiso   1.00
C17    C     0.16870   0.15828   0.02796   0.00000  Uiso   1.00
C18    C     0.06934   0.00565   0.29414   0.00000  Uiso   1.00
C19    C     0.26400   0.32770   0.20571   0.00000  Uiso   1.00
C20    C     0.13351   0.18704   0.05817   0.00000  Uiso   1.00
C21    C     0.17781   0.10327   0.45386   0.00000  Uiso   1.00
C22    C     0.08087   0.20138   0.04067   0.00000  Uiso   1.00
C23    C     0.23011   0.08834   0.47179   0.00000  Uiso   1.00
C24    C     0.02203   0.31932   0.25754   0.00000  Uiso   1.00
C25    C     0.31130   0.01401   0.24233   0.00000  Uiso   1.00
C26    C     0.02101   0.17029   0.34105   0.00000  Uiso   1.00
H27    H     0.05533   0.22374   0.06470   0.00000  Uiso   1.00
H28    H     0.16134   0.08395   0.41962   0.00000  Uiso   1.00
H29    H     0.16244   0.12469   0.21385   0.00000  Uiso   1.00
H30    H     0.17090   0.20866   0.28613   0.00000  Uiso   1.00
H31    H     0.15220   0.00384   0.31697   0.00000  Uiso   1.00
H32    H     0.18127   0.32990   0.18262   0.00000  Uiso   1.00
H33    H     0.25201   0.05995   0.45054   0.00000  Uiso   1.00
H34    H     0.23266   0.20091   0.10727   0.00000  Uiso   1.00
H35    H     0.10551   0.13206   0.38717   0.00000  Uiso   1.00
H36    H     0.03358   0.09824   0.09651   0.00000  Uiso   1.00
H37    H     0.28996   0.21439   0.41018   0.00000  Uiso   1.00
H38    H     0.31756   0.22840   0.49736   0.00000  Uiso   1.00
H39    H     0.32932   0.06579   0.01443   0.00000  Uiso   1.00
H40    H     0.14466   0.19774   0.09613   0.00000  Uiso   1.00
N41    N     0.14695   0.15216   0.23739   0.00000  Uiso   1.00
N42    N     0.18638   0.18117   0.26260   0.00000  Uiso   1.00
O43    O     0.29719   0.24631   0.25309   0.00000  Uiso   1.00
O44    O     0.12399   0.32154   0.28995   0.00000  Uiso   1.00
O45    O     0.27328   0.29751   0.17149   0.00000  Uiso   1.00
O46    O     0.20948   0.01218   0.20964   0.00000  Uiso   1.00
O47    O     0.03614   0.08702   0.24691   0.00000  Uiso   1.00
O48    O     0.05822   0.23702   0.24502   0.00000  Uiso   1.00
O49    O     0.27512   0.09632   0.25498   0.00000  Uiso   1.00
O50    O     0.30328   0.17397   0.32247   0.00000  Uiso   1.00
O51    O     0.03005   0.15937   0.17753   0.00000  Uiso   1.00
O52    O     0.06431   0.16467   0.31439   0.00000  Uiso   1.00
O53    O     0.26902   0.16866   0.18561   0.00000  Uiso   1.00
O54    O     0.05997   0.03557   0.32855   0.00000  Uiso   1.00
Zn55   Zn    0.27033   0.17287   0.25539   0.00000  Uiso   1.00
Zn56   Zn    0.06300   0.16046   0.24461   0.00000  Uiso   1.00
C57    C     0.34820   0.26481   0.24913   0.00000  Uiso   1.00
C58    C     0.64542   0.16198   0.15901   0.00000  Uiso   1.00
C59    C     0.36399   0.17245   0.39363   0.00000  Uiso   1.00
C60    C     0.63314   0.15056   0.10722   0.00000  Uiso   1.00
C61    C     0.34416   0.20643   0.47398   0.00000  Uiso   1.00
C62    C     0.63990   0.09421   0.03481   0.00000  Uiso   1.00
C63    C     0.66161   0.19827   0.42454   0.00000  Uiso   1.00
C64    C     0.66200   0.11345   0.08091   0.00000  Uiso   1.00
C65    C     0.41243   0.15106   0.41251   0.00000  Uiso   1.00
C66    C     0.58402   0.16943   0.08712   0.00000  Uiso   1.00
C67    C     0.42899   0.15816   0.46195   0.00000  Uiso   1.00
C68    C     0.65179   0.06852   0.25082   0.00000  Uiso   1.00
C69    C     0.55746   0.14624   0.04400   0.00000  Uiso   1.00
C70    C     0.39545   0.18841   0.49248   0.00000  Uiso   1.00
C71    C     0.58723   0.10971   0.01650   0.00000  Uiso   1.00
C72    C     0.48050   0.13965   0.48072   0.00000  Uiso   1.00
C73    C     0.50203   0.15828   0.02796   0.00000  Uiso   1.00
C74    C     0.40268   0.00565   0.29414   0.00000  Uiso   1.00
C75    C     0.59733   0.32770   0.20571   0.00000  Uiso   1.00
C76    C     0.46684   0.18704   0.05817   0.00000  Uiso   1.00
C77    C     0.51115   0.10327   0.45386   0.00000  Uiso   1.00
C78    C     0.41421   0.20138   0.04067   0.00000  Uiso   1.00
C79    C     0.56345   0.08834   0.47179   0.00000  Uiso   1.00
C80    C     0.35537   0.31932   0.25754   0.00000  Uiso   1.00
C81    C     0.64464   0.01401   0.24233   0.00000  Uiso   1.00
C82    C     0.35434   0.17029   0.34105   0.00000  Uiso   1.00
H83    H     0.38866   0.22374   0.06470   0.00000  Uiso   1.00
H84    H     0.49467   0.08395   0.41962   0.00000  Uiso   1.00
H85    H     0.49577   0.12469   0.21385   0.00000  Uiso   1.00
H86    H     0.50423   0.20866   0.28613   0.00000  Uiso   1.00
H87    H     0.48554   0.00384   0.31697   0.00000  Uiso   1.00
H88    H     0.51460   0.32990   0.18262   0.00000  Uiso   1.00
H89    H     0.58534   0.05995   0.45054   0.00000  Uiso   1.00
H90    H     0.56599   0.20091   0.10727   0.00000  Uiso   1.00
H91    H     0.43885   0.13206   0.38717   0.00000  Uiso   1.00
H92    H     0.36692   0.09824   0.09651   0.00000  Uiso   1.00
H93    H     0.62329   0.21439   0.41018   0.00000  Uiso   1.00
H94    H     0.65089   0.22840   0.49736   0.00000  Uiso   1.00
H95    H     0.66266   0.06579   0.01443   0.00000  Uiso   1.00
H96    H     0.47800   0.19774   0.09613   0.00000  Uiso   1.00
N97    N     0.48029   0.15216   0.23739   0.00000  Uiso   1.00
N98    N     0.51971   0.18117   0.26260   0.00000  Uiso   1.00
O99    O     0.63052   0.24631   0.25309   0.00000  Uiso   1.00
O100   O     0.45732   0.32154   0.28995   0.00000  Uiso   1.00
O101   O     0.60662   0.29751   0.17149   0.00000  Uiso   1.00
O102   O     0.54281   0.01218   0.20964   0.00000  Uiso   1.00
O103   O     0.36948   0.08702   0.24691   0.00000  Uiso   1.00
O104   O     0.39155   0.23702   0.24502   0.00000  Uiso   1.00
O105   O     0.60845   0.09632   0.25498   0.00000  Uiso   1.00
O106   O     0.63662   0.17397   0.32247   0.00000  Uiso   1.00
O107   O     0.36338   0.15937   0.17753   0.00000  Uiso   1.00
O108   O     0.39764   0.16467   0.31439   0.00000  Uiso   1.00
O109   O     0.60236   0.16866   0.18561   0.00000  Uiso   1.00
O110   O     0.39330   0.03557   0.32855   0.00000  Uiso   1.00
Zn111  Zn    0.60366   0.17287   0.25539   0.00000  Uiso   1.00
Zn112  Zn    0.39634   0.16046   0.24461   0.00000  Uiso   1.00
C113   C     0.68154   0.26481   0.24913   0.00000  Uiso   1.00
C114   C     0.97875   0.16198   0.15901   0.00000  Uiso   1.00
C115   C     0.69733   0.17245   0.39363   0.00000  Uiso   1.00
C116   C     0.96648   0.15056   0.10722   0.00000  Uiso   1.00
C117   C     0.67749   0.20643   0.47398   0.00000  Uiso   1.00
C118   C     0.97324   0.09421   0.03481   0.00000  Uiso   1.00
C119   C     0.99495   0.19827   0.42454   0.00000  Uiso   1.00
C120   C     0.99534   0.11345   0.08091   0.00000  Uiso   1.00
C121   C     0.74576   0.15106   0.41251   0.00000  Uiso   1.00
C122   C     0.91735   0.16943   0.08712   0.00000  Uiso   1.00
C123   C     0.76232   0.15816   0.46195   0.00000  Uiso   1.00
C124   C     0.98513   0.06852   0.25082   0.00000  Uiso   1.00
C125   C     0.89080   0.14624   0.04400   0.00000  Uiso   1.00
C126   C     0.72879   0.18841   0.49248   0.00000  Uiso   1.00
C127   C     0.92057   0.10971   0.01650   0.00000  Uiso   1.00
C128   C     0.81383   0.13965   0.48072   0.00000  Uiso   1.00
C129   C     0.83537   0.15828   0.02796   0.00000  Uiso   1.00
C130   C     0.73601   0.00565   0.29414   0.00000  Uiso   1.00
C131   C     0.93067   0.32770   0.20571   0.00000  Uiso   1.00
C132   C     0.80017   0.18704   0.05817   0.00000  Uiso   1.00
C133   C     0.84448   0.10327   0.45386   0.00000  Uiso   1.00
C134   C     0.74754   0.20138   0.04067   0.00000  Uiso   1.00
C135   C     0.89678   0.08834   0.47179   0.00000  Uiso   1.00
C136   C     0.68870   0.31932   0.25754   0.00000  Uiso   1.00
C137   C     0.97797   0.01401   0.24233   0.00000  Uiso   1.00
C138   C     0.68768   0.17029   0.34105   0.00000  Uiso   1.00
H139   H     0.72199   0.22374   0.06470   0.00000  Uiso   1.00
H140   H     0.82800   0.08395   0.41962   0.00000  Uiso   1.00
H141   H     0.82910   0.12469   0.21385   0.00000  Uiso   1.00
H142   H     0.83756   0.20866   0.28613   0.00000  Uiso   1.00
H143   H     0.81887   0.00384   0.31697   0.00000  Uiso   1.00
H144   H     0.84793   0.32990   0.18262   0.00000  Uiso   1.00
H145   H     0.91868   0.05995   0.45054   0.00000  Uiso   1.00
H146   H     0.89933   0.20091   0.10727   0.00000  Uiso   1.00
H147   H     0.77218   0.13206   0.38717   0.00000  Uiso   1.00
H148   H     0.70025   0.09824   0.09651   0.00000  Uiso   1.00
H149   H     0.95662   0.21439   0.41018   0.00000  Uiso   1.00
H150   H     0.98422   0.22840   0.49736   0.00000  Uiso   1.00
H151   H     0.99599   0.06579   0.01443   0.00000  Uiso   1.00
H152   H     0.81133   0.19774   0.09613   0.00000  Uiso   1.00
N153   N     0.81362   0.15216   0.23739   0.00000  Uiso   1.00
N154   N     0.85305   0.18117   0.26260   0.00000  Uiso   1.00
O155   O     0.96386   0.24631   0.25309   0.00000  Uiso   1.00
O156   O     0.79066   0.32154   0.28995   0.00000  Uiso   1.00
O157   O     0.93995   0.29751   0.17149   0.00000  Uiso   1.00
O158   O     0.87614   0.01218   0.20964   0.00000  Uiso   1.00
O159   O     0.70281   0.08702   0.24691   0.00000  Uiso   1.00
O160   O     0.72488   0.23702   0.24502   0.00000  Uiso   1.00
O161   O     0.94178   0.09632   0.25498   0.00000  Uiso   1.00
O162   O     0.96995   0.17397   0.32247   0.00000  Uiso   1.00
O163   O     0.69672   0.15937   0.17753   0.00000  Uiso   1.00
O164   O     0.73098   0.16467   0.31439   0.00000  Uiso   1.00
O165   O     0.93569   0.16866   0.18561   0.00000  Uiso   1.00
O166   O     0.72664   0.03557   0.32855   0.00000  Uiso   1.00
Zn167  Zn    0.93700   0.17287   0.25539   0.00000  Uiso   1.00
Zn168  Zn    0.72967   0.16046   0.24461   0.00000  Uiso   1.00
C169   C     0.01487   0.59815   0.24913   0.00000  Uiso   1.00
C170   C     0.31209   0.49531   0.15901   0.00000  Uiso   1.00
C171   C     0.03066   0.50578   0.39363   0.00000  Uiso   1.00
C172   C     0.29981   0.48389   0.10722   0.00000  Uiso   1.00
C173   C     0.01083   0.53976   0.47398   0.00000  Uiso   1.00
C174   C     0.30657   0.42754   0.03481   0.00000  Uiso   1.00
C175   C     0.32828   0.53160   0.42454   0.00000  Uiso   1.00
C176   C     0.32867   0.44678   0.08091   0.00000  Uiso   1.00
C177   C     0.07909   0.48439   0.41251   0.00000  Uiso   1.00
C178   C     0.25069   0.50276   0.08712   0.00000  Uiso   1.00
C179   C     0.09566   0.49150   0.46195   0.00000  Uiso   1.00
C180   C     0.31846   0.40185   0.25082   0.00000  Uiso   1.00
C181   C     0.22413   0.47957   0.04400   0.00000  Uiso   1.00
C182   C     0.06212   0.52174   0.49248   0.00000  Uiso   1.00
C183   C     0.25390   0.44304   0.01650   0.00000  Uiso   1.00
C184   C     0.14716   0.47298   0.48072   0.00000  Uiso   1.00
C185   C     0.16870   0.49161   0.02796   0.00000  Uiso   1.00
C186   C     0.06934   0.33899   0.29414   0.00000  Uiso   1.00
C187   C     0.26400   0.66104   0.20571   0.00000  Uiso   1.00
C188   C     0.13351   0.52037   0.05817   0.00000  Uiso   1.00
C189   C     0.17781   0.43661   0.45386   0.00000  Uiso   1.00
C190   C     0.08087   0.53471   0.04067   0.00000  Uiso   1.00
C191   C     0.23011   0.42167   0.47179   0.00000  Uiso   1.00
C192   C     0.02203   0.65266   0.25754   0.00000  Uiso   1.00
C193   C     0.31130   0.34734   0.24233   0.00000  Uiso   1.00
C194   C     0.02101   0.50362   0.34105   0.00000  Uiso   1.00
H195   H     0.05533   0.55707   0.06470   0.00000  Uiso   1.00
H196   H     0.16134   0.41728   0.41962   0.00000  Uiso   1.00
H197   H     0.16244   0.45802   0.21385   0.00000  Uiso   1.00
H198   H     0.17090   0.54199   0.28613   0.00000  Uiso   1.00
H199   H     0.15220   0.33717   0.31697   0.00000  Uiso   1.00
H200   H     0.18127   0.66323   0.18262   0.00000  Uiso   1.00
H201   H     0.25201   0.39328   0.45054   0.00000  Uiso   1.00
H202   H     0.23266   0.53425   0.10727   0.00000  Uiso   1.00
H203   H     0.10551   0.46539   0.38717   0.00000  Uiso   1.00
H204   H     0.03358   0.43158   0.09651   0.00000  Uiso   1.00
H205   H     0.28996   0.54772   0.41018   0.00000  Uiso   1.00
H206   H     0.31756   0.56173   0.49736   0.00000  Uiso   1.00
H207   H     0.32932   0.39912   0.01443   0.00000  Uiso   1.00
H208   H     0.14466   0.53108   0.09613   0.00000  Uiso   1.00
N209   N     0.14695   0.48550   0.23739   0.00000  Uiso   1.00
N210   N     0.18638   0.51450   0.26260   0.00000  Uiso   1.00
O211   O     0.29719   0.57964   0.25309   0.00000  Uiso   1.00
O212   O     0.12399   0.65487   0.28995   0.00000  Uiso   1.00
O213   O     0.27328   0.63084   0.17149   0.00000  Uiso   1.00
O214   O     0.20948   0.34552   0.20964   0.00000  Uiso   1.00
O215   O     0.03614   0.42036   0.24691   0.00000  Uiso   1.00
O216   O     0.05822   0.57035   0.24502   0.00000  Uiso   1.00
O217   O     0.27512   0.42965   0.25498   0.00000  Uiso   1.00
O218   O     0.30328   0.50730   0.32247   0.00000  Uiso   1.00
O219   O     0.03005   0.49270   0.17753   0.00000  Uiso   1.00
O220   O     0.06431   0.49801   0.31439   0.00000  Uiso   1.00
O221   O     0.26902   0.50199   0.18561   0.00000  Uiso   1.00
O222   O     0.05997   0.36890   0.32855   0.00000  Uiso   1.00
Zn223  Zn    0.27033   0.50621   0.25539   0.00000  Uiso   1.00
Zn224  Zn    0.06300   0.49379   0.24461   0.00000  Uiso   1.00
C225   C     0.34820   0.59815   0.24913   0.00000  Uiso   1.00
C226   C     0.64542   0.49531   0.15901   0.00000  Uiso   1.00
C227   C     0.36399   0.50578   0.39363   0.00000  Uiso   1.00
C228   C     0.63314   0.48389   0.10722   0.00000  Uiso   1.00
C229   C     0.34416   0.53976   0.47398   0.00000  Uiso   1.00
C230   C     0.63990   0.42754   0.03481   0.00000  Uiso   1.00
C231   C     0.66161   0.53160   0.42454   0.00000  Uiso   1.00
C232   C     0.66200   0.44678   0.08091   0.00000  Uiso   1.00
C233   C     0.41243   0.48439   0.41251   0.00000  Uiso   1.00
C234   C     0.58402   0.50276   0.08712   0.00000  Uiso   1.00
C235   C     0.42899   0.49150   0.46195   0.00000  Uiso   1.00
C236   C     0.65179   0.40185   0.25082   0.00000  Uiso   1.00
C237   C     0.55746   0.47957   0.04400   0.00000  Uiso   1.00
C238   C     0.39545   0.52174   0.49248   0.00000  Uiso   1.00
C239   C     0.58723   0.44304   0.01650   0.00000  Uiso   1.00
C240   C     0.48050   0.47298   0.48072   0.00000  Uiso   1.00
C241   C     0.50203   0.49161   0.02796   0.00000  Uiso   1.00
C242   C     0.40268   0.33899   0.29414   0.00000  Uiso   1.00
C243   C     0.59733   0.66104   0.20571   0.00000  Uiso   1.00
C244   C     0.46684   0.52037   0.05817   0.00000  Uiso   1.00
C245   C     0.51115   0.43661   0.45386   0.00000  Uiso   1.00
C246   C     0.41421   0.53471   0.04067   0.00000  Uiso   1.00
C247   C     0.56345   0.42167   0.47179   0.00000  Uiso   1.00
C248   C     0.35537   0.65266   0.25754   0.00000  Uiso   1.00
C249   C     0.64464   0.34734   0.24233   0.00000  Uiso   1.00
C250   C     0.35434   0.50362   0.34105   0.00000  Uiso   1.00
H251   H     0.38866   0.55707   0.06470   0.00000  Uiso   1.00
H252   H     0.49467   0.41728   0.41962   0.00000  Uiso   1.00
H253   H     0.49577   0.45802   0.21385   0.00000  Uiso   1.00
H254   H     0.50423   0.54199   0.28613   0.00000  Uiso   1.00
H255   H     0.48554   0.33717   0.31697   0.00000  Uiso   1.00
H256   H     0.51460   0.66323   0.18262   0.00000  Uiso   1.00
H257   H     0.58534   0.39328   0.45054   0.00000  Uiso   1.00
H258   H     0.56599   0.53425   0.10727   0.00000  Uiso   1.00
H259   H     0.43885   0.46539   0.38717   0.00000  Uiso   1.00
H260   H     0.36692   0.43158   0.09651   0.00000  Uiso   1.00
H261   H     0.62329   0.54772   0.41018   0.00000  Uiso   1.00
H262   H     0.65089   0.56173   0.49736   0.00000  Uiso   1.00
H263   H     0.66266   0.39912   0.01443   0.00000  Uiso   1.00
H264   H     0.47800   0.53108   0.09613   0.00000  Uiso   1.00
N265   N     0.48029   0.48550   0.23739   0.00000  Uiso   1.00
N266   N     0.51971   0.51450   0.26260   0.00000  Uiso   1.00
O267   O     0.63052   0.57964   0.25309   0.00000  Uiso   1.00
O268   O     0.45732   0.65487   0.28995   0.00000  Uiso   1.00
O269   O     0.60662   0.63084   0.17149   0.00000  Uiso   1.00
O270   O     0.54281   0.34552   0.20964   0.00000  Uiso   1.00
O271   O     0.36948   0.42036   0.24691   0.00000  Uiso   1.00
O272   O     0.39155   0.57035   0.24502   0.00000  Uiso   1.00
O273   O     0.60845   0.42965   0.25498   0.00000  Uiso   1.00
O274   O     0.63662   0.50730   0.32247   0.00000  Uiso   1.00
O275   O     0.36338   0.49270   0.17753   0.00000  Uiso   1.00
O276   O     0.39764   0.49801   0.31439   0.00000  Uiso   1.00
O277   O     0.60236   0.50199   0.18561   0.00000  Uiso   1.00
O278   O     0.39330   0.36890   0.32855   0.00000  Uiso   1.00
Zn279  Zn    0.60366   0.50621   0.25539   0.00000  Uiso   1.00
Zn280  Zn    0.39634   0.49379   0.24461   0.00000  Uiso   1.00
C281   C     0.68154   0.59815   0.24913   0.00000  Uiso   1.00
C282   C     0.97875   0.49531   0.15901   0.00000  Uiso   1.00
C283   C     0.69733   0.50578   0.39363   0.00000  Uiso   1.00
C284   C     0.96648   0.48389   0.10722   0.00000  Uiso   1.00
C285   C     0.67749   0.53976   0.47398   0.00000  Uiso   1.00
C286   C     0.97324   0.42754   0.03481   0.00000  Uiso   1.00
C287   C     0.99495   0.53160   0.42454   0.00000  Uiso   1.00
C288   C     0.99534   0.44678   0.08091   0.00000  Uiso   1.00
C289   C     0.74576   0.48439   0.41251   0.00000  Uiso   1.00
C290   C     0.91735   0.50276   0.08712   0.00000  Uiso   1.00
C291   C     0.76232   0.49150   0.46195   0.00000  Uiso   1.00
C292   C     0.98513   0.40185   0.25082   0.00000  Uiso   1.00
C293   C     0.89080   0.47957   0.04400   0.00000  Uiso   1.00
C294   C     0.72879   0.52174   0.49248   0.00000  Uiso   1.00
C295   C     0.92057   0.44304   0.01650   0.00000  Uiso   1.00
C296   C     0.81383   0.47298   0.48072   0.00000  Uiso   1.00
C297   C     0.83537   0.49161   0.02796   0.00000  Uiso   1.00
C298   C     0.73601   0.33899   0.29414   0.00000  Uiso   1.00
C299   C     0.93067   0.66104   0.20571   0.00000  Uiso   1.00
C300   C     0.80017   0.52037   0.05817   0.00000  Uiso   1.00
C301   C     0.84448   0.43661   0.45386   0.00000  Uiso   1.00
C302   C     0.74754   0.53471   0.04067   0.00000  Uiso   1.00
C303   C     0.89678   0.42167   0.47179   0.00000  Uiso   1.00
C304   C     0.68870   0.65266   0.25754   0.00000  Uiso   1.00
C305   C     0.97797   0.34734   0.24233   0.00000  Uiso   1.00
C306   C     0.68768   0.50362   0.34105   0.00000  Uiso   1.00
H307   H     0.72199   0.55707   0.06470   0.00000  Uiso   1.00
H308   H     0.82800   0.41728   0.41962   0.00000  Uiso   1.00
H309   H     0.82910   0.45802   0.21385   0.00000  Uiso   1.00
H310   H     0.83756   0.54199   0.28613   0.00000  Uiso   1.00
H311   H     0.81887   0.33717   0.31697   0.00000  Uiso   1.00
H312   H     0.84793   0.66323   0.18262   0.00000  Uiso   1.00
H313   H     0.91868   0.39328   0.45054   0.00000  Uiso   1.00
H314   H     0.89933   0.53425   0.10727   0.00000  Uiso   1.00
H315   H     0.77218   0.46539   0.38717   0.00000  Uiso   1.00
H316   H     0.70025   0.43158   0.09651   0.00000  Uiso   1.00
H317   H     0.95662   0.54772   0.41018   0.00000  Uiso   1.00
H318   H     0.98422   0.56173   0.49736   0.00000  Uiso   1.00
H319   H     0.99599   0.39912   0.01443   0.00000  Uiso   1.00
H320   H     0.81133   0.53108   0.09613   0.00000  Uiso   1.00
N321   N     0.81362   0.48550   0.23739   0.00000  Uiso   1.00
N322   N     0.85305   0.51450   0.26260   0.00000  Uiso   1.00
O323   O     0.96386   0.57964   0.25309   0.00000  Uiso   1.00
O324   O     0.79066   0.65487   0.28995   0.00000  Uiso   1.00
O325   O     0.93995   0.63084   0.17149   0.00000  Uiso   1.00
O326   O     0.87614   0.34552   0.20964   0.00000  Uiso   1.00
O327   O     0.70281   0.42036   0.24691   0.00000  Uiso   1.00
O328   O     0.72488   0.57035   0.24502   0.00000  Uiso   1.00
O329   O     0.94178   0.42965   0.25498   0.00000  Uiso   1.00
O330   O     0.96995   0.50730   0.32247   0.00000  Uiso   1.00
O331   O     0.69672   0.49270   0.17753   0.00000  Uiso   1.00
O332   O     0.73098   0.49801   0.31439   0.00000  Uiso   1.00
O333   O     0.93569   0.50199   0.18561   0.00000  Uiso   1.00
O334   O     0.72664   0.36890   0.32855   0.00000  Uiso   1.00
Zn335  Zn    0.93700   0.50621   0.25539   0.00000  Uiso   1.00
Zn336  Zn    0.72967   0.49379   0.24461   0.00000  Uiso   1.00
C337   C     0.01487   0.93148   0.24913   0.00000  Uiso   1.00
C338   C     0.31209   0.82865   0.15901   0.00000  Uiso   1.00
C339   C     0.03066   0.83911   0.39363   0.00000  Uiso   1.00
C340   C     0.29981   0.81723   0.10722   0.00000  Uiso   1.00
C341   C     0.01083   0.87310   0.47398   0.00000  Uiso   1.00
C342   C     0.30657   0.76088   0.03481   0.00000  Uiso   1.00
C343   C     0.32828   0.86493   0.42454   0.00000  Uiso   1.00
C344   C     0.32867   0.78011   0.08091   0.00000  Uiso   1.00
C345   C     0.07909   0.81773   0.41251   0.00000  Uiso   1.00
C346   C     0.25069   0.83610   0.08712   0.00000  Uiso   1.00
C347   C     0.09566   0.82483   0.46195   0.00000  Uiso   1.00
C348   C     0.31846   0.73518   0.25082   0.00000  Uiso   1.00
C349   C     0.22413   0.81291   0.04400   0.00000  Uiso   1.00
C350   C     0.06212   0.85508   0.49248   0.00000  Uiso   1.00
C351   C     0.25390   0.77638   0.01650   0.00000  Uiso   1.00
C352   C     0.14716   0.80631   0.48072   0.00000  Uiso   1.00
C353   C     0.16870   0.82494   0.02796   0.00000  Uiso   1.00
C354   C     0.06934   0.67232   0.29414   0.00000  Uiso   1.00
C355   C     0.26400   0.99437   0.20571   0.00000  Uiso   1.00
C356   C     0.13351   0.85370   0.05817   0.00000  Uiso   1.00
C357   C     0.17781   0.76994   0.45386   0.00000  Uiso   1.00
C358   C     0.08087   0.86805   0.04067   0.00000  Uiso   1.00
C359   C     0.23011   0.75500   0.47179   0.00000  Uiso   1.00
C360   C     0.02203   0.98599   0.25754   0.00000  Uiso   1.00
C361   C     0.31130   0.68068   0.24233   0.00000  Uiso   1.00
C362   C     0.02101   0.83695   0.34105   0.00000  Uiso   1.00
H363   H     0.05533   0.89040   0.06470   0.00000  Uiso   1.00
H364   H     0.16134   0.75061   0.41962   0.00000  Uiso   1.00
H365   H     0.16244   0.79136   0.21385   0.00000  Uiso   1.00
H366   H     0.17090   0.87533   0.28613   0.00000  Uiso   1.00
H367   H     0.15220   0.67051   0.31697   0.00000  Uiso   1.00
H368   H     0.18127   0.99656   0.18262   0.00000  Uiso   1.00
H369   H     0.25201   0.72661   0.45054   0.00000  Uiso   1.00
H370   H     0.23266   0.86758   0.10727   0.00000  Uiso   1.00
H371   H     0.10551   0.79872   0.38717   0.00000  Uiso   1.00
H372   H     0.03358   0.76491   0.09651   0.00000  Uiso   1.00
H373   H     0.28996   0.88106   0.41018   0.00000  Uiso   1.00
H374   H     0.31756   0.89506   0.49736   0.00000  Uiso   1.00
H375   H     0.32932   0.73245   0.01443   0.00000  Uiso   1.00
H376   H     0.14466   0.86441   0.09613   0.00000  Uiso   1.00
N377   N     0.14695   0.81883   0.23739   0.00000  Uiso   1.00
N378   N     0.18638   0.84784   0.26260   0.00000  Uiso   1.00
O379   O     0.29719   0.91298   0.25309   0.00000  Uiso   1.00
O380   O     0.12399   0.98821   0.28995   0.00000  Uiso   1.00
O381   O     0.27328   0.96418   0.17149   0.00000  Uiso   1.00
O382   O     0.20948   0.67885   0.20964   0.00000  Uiso   1.00
O383   O     0.03614   0.75369   0.24691   0.00000  Uiso   1.00
O384   O     0.05822   0.90368   0.24502   0.00000  Uiso   1.00
O385   O     0.27512   0.76298   0.25498   0.00000  Uiso   1.00
O386   O     0.30328   0.84063   0.32247   0.00000  Uiso   1.00
O387   O     0.03005   0.82603   0.17753   0.00000  Uiso   1.00
O388   O     0.06431   0.83134   0.31439   0.00000  Uiso   1.00
O389   O     0.26902   0.83533   0.18561   0.00000  Uiso   1.00
O390   O     0.05997   0.70223   0.32855   0.00000  Uiso   1.00
Zn391  Zn    0.27033   0.83954   0.25539   0.00000  Uiso   1.00
Zn392  Zn    0.06300   0.82713   0.24461   0.00000  Uiso   1.00
C393   C     0.34820   0.93148   0.24913   0.00000  Uiso   1.00
C394   C     0.64542   0.82865   0.15901   0.00000  Uiso   1.00
C395   C     0.36399   0.83911   0.39363   0.00000  Uiso   1.00
C396   C     0.63314   0.81723   0.10722   0.00000  Uiso   1.00
C397   C     0.34416   0.87310   0.47398   0.00000  Uiso   1.00
C398   C     0.63990   0.76088   0.03481   0.00000  Uiso   1.00
C399   C     0.66161   0.86493   0.42454   0.00000  Uiso   1.00
C400   C     0.66200   0.78011   0.08091   0.00000  Uiso   1.00
C401   C     0.41243   0.81773   0.41251   0.00000  Uiso   1.00
C402   C     0.58402   0.83610   0.08712   0.00000  Uiso   1.00
C403   C     0.42899   0.82483   0.46195   0.00000  Uiso   1.00
C404   C     0.65179   0.73518   0.25082   0.00000  Uiso   1.00
C405   C     0.55746   0.81291   0.04400   0.00000  Uiso   1.00
C406   C     0.39545   0.85508   0.49248   0.00000  Uiso   1.00
C407   C     0.58723   0.77638   0.01650   0.00000  Uiso   1.00
C408   C     0.48050   0.80631   0.48072   0.00000  Uiso   1.00
C409   C     0.50203   0.82494   0.02796   0.00000  Uiso   1.00
C410   C     0.40268   0.67232   0.29414   0.00000  Uiso   1.00
C411   C     0.59733   0.99437   0.20571   0.00000  Uiso   1.00
C412   C     0.46684   0.85370   0.05817   0.00000  Uiso   1.00
C413   C     0.51115   0.76994   0.45386   0.00000  Uiso   1.00
C414   C     0.41421   0.86805   0.04067   0.00000  Uiso   1.00
C415   C     0.56345   0.75500   0.47179   0.00000  Uiso   1.00
C416   C     0.35537   0.98599   0.25754   0.00000  Uiso   1.00
C417   C     0.64464   0.68068   0.24233   0.00000  Uiso   1.00
C418   C     0.35434   0.83695   0.34105   0.00000  Uiso   1.00
H419   H     0.38866   0.89040   0.06470   0.00000  Uiso   1.00
H420   H     0.49467   0.75061   0.41962   0.00000  Uiso   1.00
H421   H     0.49577   0.79136   0.21385   0.00000  Uiso   1.00
H422   H     0.50423   0.87533   0.28613   0.00000  Uiso   1.00
H423   H     0.48554   0.67051   0.31697   0.00000  Uiso   1.00
H424   H     0.51460   0.99656   0.18262   0.00000  Uiso   1.00
H425   H     0.58534   0.72661   0.45054   0.00000  Uiso   1.00
H426   H     0.56599   0.86758   0.10727   0.00000  Uiso   1.00
H427   H     0.43885   0.79872   0.38717   0.00000  Uiso   1.00
H428   H     0.36692   0.76491   0.09651   0.00000  Uiso   1.00
H429   H     0.62329   0.88106   0.41018   0.00000  Uiso   1.00
H430   H     0.65089   0.89506   0.49736   0.00000  Uiso   1.00
H431   H     0.66266   0.73245   0.01443   0.00000  Uiso   1.00
H432   H     0.47800   0.86441   0.09613   0.00000  Uiso   1.00
N433   N     0.48029   0.81883   0.23739   0.00000  Uiso   1.00
N434   N     0.51971   0.84784   0.26260   0.00000  Uiso   1.00
O435   O     0.63052   0.91298   0.25309   0.00000  Uiso   1.00
O436   O     0.45732   0.98821   0.28995   0.00000  Uiso   1.00
O437   O     0.60662   0.96418   0.17149   0.00000  Uiso   1.00
O438   O     0.54281   0.67885   0.20964   0.00000  Uiso   1.00
O439   O     0.36948   0.75369   0.24691   0.00000  Uiso   1.00
O440   O     0.39155   0.90368   0.24502   0.00000  Uiso   1.00
O441   O     0.60845   0.76298   0.25498   0.00000  Uiso   1.00
O442   O     0.63662   0.84063   0.32247   0.00000  Uiso   1.00
O443   O     0.36338   0.82603   0.17753   0.00000  Uiso   1.00
O444   O     0.39764   0.83134   0.31439   0.00000  Uiso   1.00
O445   O     0.60236   0.83533   0.18561   0.00000  Uiso   1.00
O446   O     0.39330   0.70223   0.32855   0.00000  Uiso   1.00
Zn447  Zn    0.60366   0.83954   0.25539   0.00000  Uiso   1.00
Zn448  Zn    0.39634   0.82713   0.24461   0.00000  Uiso   1.00
C449   C     0.68154   0.93148   0.24913   0.00000  Uiso   1.00
C450   C     0.97875   0.82865   0.15901   0.00000  Uiso   1.00
C451   C     0.69733   0.83911   0.39363   0.00000  Uiso   1.00
C452   C     0.96648   0.81723   0.10722   0.00000  Uiso   1.00
C453   C     0.67749   0.87310   0.47398   0.00000  Uiso   1.00
C454   C     0.97324   0.76088   0.03481   0.00000  Uiso   1.00
C455   C     0.99495   0.86493   0.42454   0.00000  Uiso   1.00
C456   C     0.99534   0.78011   0.08091   0.00000  Uiso   1.00
C457   C     0.74576   0.81773   0.41251   0.00000  Uiso   1.00
C458   C     0.91735   0.83610   0.08712   0.00000  Uiso   1.00
C459   C     0.76232   0.82483   0.46195   0.00000  Uiso   1.00
C460   C     0.98513   0.73518   0.25082   0.00000  Uiso   1.00
C461   C     0.89080   0.81291   0.04400   0.00000  Uiso   1.00
C462   C     0.72879   0.85508   0.49248   0.00000  Uiso   1.00
C463   C     0.92057   0.77638   0.01650   0.00000  Uiso   1.00
C464   C     0.81383   0.80631   0.48072   0.00000  Uiso   1.00
C465   C     0.83537   0.82494   0.02796   0.00000  Uiso   1.00
C466   C     0.73601   0.67232   0.29414   0.00000  Uiso   1.00
C467   C     0.93067   0.99437   0.20571   0.00000  Uiso   1.00
C468   C     0.80017   0.85370   0.05817   0.00000  Uiso   1.00
C469   C     0.84448   0.76994   0.45386   0.00000  Uiso   1.00
C470   C     0.74754   0.86805   0.04067   0.00000  Uiso   1.00
C471   C     0.89678   0.75500   0.47179   0.00000  Uiso   1.00
C472   C     0.68870   0.98599   0.25754   0.00000  Uiso   1.00
C473   C     0.97797   0.68068   0.24233   0.00000  Uiso   1.00
C474   C     0.68768   0.83695   0.34105   0.00000  Uiso   1.00
H475   H     0.72199   0.89040   0.06470   0.00000  Uiso   1.00
H476   H     0.82800   0.75061   0.41962   0.00000  Uiso   1.00
H477   H     0.82910   0.79136   0.21385   0.00000  Uiso   1.00
H478   H     0.83756   0.87533   0.28613   0.00000  Uiso   1.00
H479   H     0.81887   0.67051   0.31697   0.00000  Uiso   1.00
H480   H     0.84793   0.99656   0.18262   0.00000  Uiso   1.00
H481   H     0.91868   0.72661   0.45054   0.00000  Uiso   1.00
H482   H     0.89933   0.86758   0.10727   0.00000  Uiso   1.00
H483   H     0.77218   0.79872   0.38717   0.00000  Uiso   1.00
H484   H     0.70025   0.76491   0.09651   0.00000  Uiso   1.00
H485   H     0.95662   0.88106   0.41018   0.00000  Uiso   1.00
H486   H     0.98422   0.89506   0.49736   0.00000  Uiso   1.00
H487   H     0.99599   0.73245   0.01443   0.00000  Uiso   1.00
H488   H     0.81133   0.86441   0.09613   0.00000  Uiso   1.00
N489   N     0.81362   0.81883   0.23739   0.00000  Uiso   1.00
N490   N     0.85305   0.84784   0.26260   0.00000  Uiso   1.00
O491   O     0.96386   0.91298   0.25309   0.00000  Uiso   1.00
O492   O     0.79066   0.98821   0.28995   0.00000  Uiso   1.00
O493   O     0.93995   0.96418   0.17149   0.00000  Uiso   1.00
O494   O     0.87614   0.67885   0.20964   0.00000  Uiso   1.00
O495   O     0.70281   0.75369   0.24691   0.00000  Uiso   1.00
O496   O     0.72488   0.90368   0.24502   0.00000  Uiso   1.00
O497   O     0.94178   0.76298   0.25498   0.00000  Uiso   1.00
O498   O     0.96995   0.84063   0.32247   0.00000  Uiso   1.00
O499   O     0.69672   0.82603   0.17753   0.00000  Uiso   1.00
O500   O     0.73098   0.83134   0.31439   0.00000  Uiso   1.00
O501   O     0.93569   0.83533   0.18561   0.00000  Uiso   1.00
O502   O     0.72664   0.70223   0.32855   0.00000  Uiso   1.00
Zn503  Zn    0.93700   0.83954   0.25539   0.00000  Uiso   1.00
Zn504  Zn    0.72967   0.82713   0.24461   0.00000  Uiso   1.00
C505   C     0.01487   0.26481   0.74913   0.00000  Uiso   1.00
C506   C     0.31209   0.16198   0.65901   0.00000  Uiso   1.00
C507   C     0.03066   0.17245   0.89363   0.00000  Uiso   1.00
C508   C     0.29981   0.15056   0.60722   0.00000  Uiso   1.00
C509   C     0.01083   0.20643   0.97398   0.00000  Uiso   1.00
C510   C     0.30657   0.09421   0.53481   0.00000  Uiso   1.00
C511   C     0.32828   0.19827   0.92454   0.00000  Uiso   1.00
C512   C     0.32867   0.11345   0.58091   0.00000  Uiso   1.00
C513   C     0.07909   0.15106   0.91251   0.00000  Uiso   1.00
C514   C     0.25069   0.16943   0.58712   0.00000  Uiso   1.00
C515   C     0.09566   0.15816   0.96195   0.00000  Uiso   1.00
C516   C     0.31846   0.06852   0.75082   0.00000  Uiso   1.00
C517   C     0.22413   0.14624   0.54400   0.00000  Uiso   1.00
C518   C     0.06212   0.18841   0.99248   0.00000  Uiso   1.00
C519   C     0.25390   0.10971   0.51650   0.00000  Uiso   1.00
C520   C     0.14716   0.13965   0.98072   0.00000  Uiso   1.00
C521   C     0.16870   0.15828   0.52796   0.00000  Uiso   1.00
C522   C     0.06934   0.00565   0.79414   0.00000  Uiso   1.00
C523   C     0.26400   0.32770   0.70571   0.00000  Uiso   1.00
C524   C     0.13351   0.18704   0.55817   0.00000  Uiso   1.00
C525   C     0.17781   0.10327   0.95386   0.00000  Uiso   1.00
C526   C     0.08087   0.20138   0.54067   0.00000  Uiso   1.00
C527   C     0.23011   0.08834   0.97179   0.00000  Uiso   1.00
C528   C     0.02203   0.31932   0.75754   0.00000  Uiso   1.00
C529   C     0.31130   0.01401   0.74233   0.00000  Uiso   1.00
C530   C     0.02101   0.17029   0.84105   0.00000  Uiso   1.00
H531   H     0.05533   0.22374   0.56470   0.00000  Uiso   1.00
H532   H     0.16134   0.08395   0.91962   0.00000  Uiso   1.00
H533   H     0.16244   0.12469   0.71385   0.00000  Uiso   1.00
H534   H     0.17090   0.20866   0.78613   0.00000  Uiso   1.00
H535   H     0.15220   0.00384   0.81697   0.00000  Uiso   1.00
H536   H     0.18127   0.32990   0.68262   0.00000  Uiso   1.00
H537   H     0.25201   0.05995   0.95054   0.00000  Uiso   1.00
H538   H     0.23266   0.20091   0.60727   0.00000  Uiso   1.00
H539   H     0.10551   0.13206   0.88717   0.00000  Uiso   1.00
H540   H     0.03358   0.09824   0.59651   0.00000  Uiso   1.00
H541   H     0.28996   0.21439   0.91018   0.00000  Uiso   1.00
H542   H     0.31756   0.22840   0.99736   0.00000  Uiso   1.00
H543   H     0.32932   0.06579   0.51443   0.00000  Uiso   1.00
H544   H     0.14466   0.19774   0.59613   0.00000  Uiso   1.00
N545   N     0.14695   0.15216   0.73739   0.00000  Uiso   1.00
N546   N     0.18638   0.18117   0.76260   0.00000  Uiso   1.00
O547   O     0.29719   0.24631   0.75309   0.00000  Uiso   1.00
O548   O     0.12399   0.32154   0.78995   0.00000  Uiso   1.00
O549   O     0.27328   0.29751   0.67149   0.00000  Uiso   1.00
O550   O     0.20948   0.01218   0.70964   0.00000  Uiso   1.00
O551   O     0.03614   0.08702   0.74691   0.00000  Uiso   1.00
O552   O     0.05822   0.23702   0.74502   0.00000  Uiso   1.00
O553   O     0.27512   0.09632   0.75498   0.00000  Uiso   1.00
O554   O     0.30328   0.17397   0.82247   0.00000  Uiso   1.00
O555   O     0.03005   0.15937   0.67753   0.00000  Uiso   1.00
O556   O     0.06431   0.16467   0.81439   0.00000  Uiso   1.00
O557   O     0.26902   0.16866   0.68561   0.00000  Uiso   1.00
O558   O     0.05997   0.03557   0.82855   0.00000  Uiso   1.00
Zn559  Zn    0.27033   0.17287   0.75539   0.00000  Uiso   1.00
Zn560  Zn    0.06300   0.16046   0.74461   0.00000  Uiso   1.00
C561   C     0.34820   0.26481   0.74913   0.00000  Uiso   1.00
C562   C     0.64542   0.16198   0.65901   0.00000  Uiso   1.00
C563   C     0.36399   0.17245   0.89363   0.00000  Uiso   1.00
C564   C     0.63314   0.15056   0.60722   0.00000  Uiso   1.00
C565   C     0.34416   0.20643   0.97398   0.00000  Uiso   1.00
C566   C     0.63990   0.09421   0.53481   0.00000  Uiso   1.00
C567   C     0.66161   0.19827   0.92454   0.00000  Uiso   1.00
C568   C     0.66200   0.11345   0.58091   0.00000  Uiso   1.00
C569   C     0.41243   0.15106   0.91251   0.00000  Uiso   1.00
C570   C     0.58402   0.16943   0.58712   0.00000  Uiso   1.00
C571   C     0.42899   0.15816   0.96195   0.00000  Uiso   1.00
C572   C     0.65179   0.06852   0.75082   0.00000  Uiso   1.00
C573   C     0.55746   0.14624   0.54400   0.00000  Uiso   1.00
C574   C     0.39545   0.18841   0.99248   0.00000  Uiso   1.00
C575   C     0.58723   0.10971   0.51650   0.00000  Uiso   1.00
C576   C     0.48050   0.13965   0.98072   0.00000  Uiso   1.00
C577   C     0.50203   0.15828   0.52796   0.00000  Uiso   1.00
C578   C     0.40268   0.00565   0.79414   0.00000  Uiso   1.00
C579   C     0.59733   0.32770   0.70571   0.00000  Uiso   1.00
C580   C     0.46684   0.18704   0.55817   0.00000  Uiso   1.00
C581   C     0.51115   0.10327   0.95386   0.00000  Uiso   1.00
C582   C     0.41421   0.20138   0.54067   0.00000  Uiso   1.00
C583   C     0.56345   0.08834   0.97179   0.00000  Uiso   1.00
C584   C     0.35537   0.31932   0.75754   0.00000  Uiso   1.00
C585   C     0.64464   0.01401   0.74233   0.00000  Uiso   1.00
C586   C     0.35434   0.17029   0.84105   0.00000  Uiso   1.00
H587   H     0.38866   0.22374   0.56470   0.00000  Uiso   1.00
H588   H     0.49467   0.08395   0.91962   0.00000  Uiso   1.00
H589   H     0.49577   0.12469   0.71385   0.00000  Uiso   1.00
H590   H     0.50423   0.20866   0.78613   0.00000  Uiso   1.00
H591   H     0.48554   0.00384   0.81697   0.00000  Uiso   1.00
H592   H     0.51460   0.32990   0.68262   0.00000  Uiso   1.00
H593   H     0.58534   0.05995   0.95054   0.00000  Uiso   1.00
H594   H     0.56599   0.20091   0.60727   0.00000  Uiso   1.00
H595   H     0.43885   0.13206   0.88717   0.00000  Uiso   1.00
H596   H     0.36692   0.09824   0.59651   0.00000  Uiso   1.00
H597   H     0.62329   0.21439   0.91018   0.00000  Uiso   1.00
H598   H     0.65089   0.22840   0.99736   0.00000  Uiso   1.00
H599   H     0.66266   0.06579   0.51443   0.00000  Uiso   1.00
H600   H     0.47800   0.19774   0.59613   0.00000  Uiso   1.00
N601   N     0.48029   0.15216   0.73739   0.00000  Uiso   1.00
N602   N     0.51971   0.18117   0.76260   0.00000  Uiso   1.00
O603   O     0.63052   0.24631   0.75309   0.00000  Uiso   1.00
O604   O     0.45732   0.32154   0.78995   0.00000  Uiso   1.00
O605   O     0.60662   0.29751   0.67149   0.00000  Uiso   1.00
O606   O     0.54281   0.01218   0.70964   0.00000  Uiso   1.00
O607   O     0.36948   0.08702   0.74691   0.00000  Uiso   1.00
O608   O     0.39155   0.23702   0.74502   0.00000  Uiso   1.00
O609   O     0.60845   0.09632   0.75498   0.00000  Uiso   1.00
O610   O     0.63662   0.17397   0.82247   0.00000  Uiso   1.00
O611   O     0.36338   0.15937   0.67753   0.00000  Uiso   1.00
O612   O     0.39764   0.16467   0.81439   0.00000  Uiso   1.00
O613   O     0.60236   0.16866   0.68561   0.00000  Uiso   1.00
O614   O     0.39330   0.03557   0.82855   0.00000  Uiso   1.00
Zn615  Zn    0.60366   0.17287   0.75539   0.00000  Uiso   1.00
Zn616  Zn    0.39634   0.16046   0.74461   0.00000  Uiso   1.00
C617   C     0.68154   0.26481   0.74913   0.00000  Uiso   1.00
C618   C     0.97875   0.16198   0.65901   0.00000  Uiso   1.00
C619   C     0.69733   0.17245   0.89363   0.00000  Uiso   1.00
C620   C     0.96648   0.15056   0.60722   0.00000  Uiso   1.00
C621   C     0.67749   0.20643   0.97398   0.00000  Uiso   1.00
C622   C     0.97324   0.09421   0.53481   0.00000  Uiso   1.00
C623   C     0.99495   0.19827   0.92454   0.00000  Uiso   1.00
C624   C     0.99534   0.11345   0.58091   0.00000  Uiso   1.00
C625   C     0.74576   0.15106   0.91251   0.00000  Uiso   1.00
C626   C     0.91735   0.16943   0.58712   0.00000  Uiso   1.00
C627   C     0.76232   0.15816   0.96195   0.00000  Uiso   1.00
C628   C     0.98513   0.06852   0.75082   0.00000  Uiso   1.00
C629   C     0.89080   0.14624   0.54400   0.00000  Uiso   1.00
C630   C     0.72879   0.18841   0.99248   0.00000  Uiso   1.00
C631   C     0.92057   0.10971   0.51650   0.00000  Uiso   1.00
C632   C     0.81383   0.13965   0.98072   0.00000  Uiso   1.00
C633   C     0.83537   0.15828   0.52796   0.00000  Uiso   1.00
C634   C     0.73601   0.00565   0.79414   0.00000  Uiso   1.00
C635   C     0.93067   0.32770   0.70571   0.00000  Uiso   1.00
C636   C     0.80017   0.18704   0.55817   0.00000  Uiso   1.00
C637   C     0.84448   0.10327   0.95386   0.00000  Uiso   1.00
C638   C     0.74754   0.20138   0.54067   0.00000  Uiso   1.00
C639   C     0.89678   0.08834   0.97179   0.00000  Uiso   1.00
C640   C     0.68870   0.31932   0.75754   0.00000  Uiso   1.00
C641   C     0.97797   0.01401   0.74233   0.00000  Uiso   1.00
C642   C     0.68768   0.17029   0.84105   0.00000  Uiso   1.00
H643   H     0.72199   0.22374   0.56470   0.00000  Uiso   1.00
H644   H     0.82800   0.08395   0.91962   0.00000  Uiso   1.00
H645   H     0.82910   0.12469   0.71385   0.00000  Uiso   1.00
H646   H     0.83756   0.20866   0.78613   0.00000  Uiso   1.00
H647   H     0.81887   0.00384   0.81697   0.00000  Uiso   1.00
H648   H     0.84793   0.32990   0.68262   0.00000  Uiso   1.00
H649   H     0.91868   0.05995   0.95054   0.00000  Uiso   1.00
H650   H     0.89933   0.20091   0.60727   0.00000  Uiso   1.00
H651   H     0.77218   0.13206   0.88717   0.00000  Uiso   1.00
H652   H     0.70025   0.09824   0.59651   0.00000  Uiso   1.00
H653   H     0.95662   0.21439   0.91018   0.00000  Uiso   1.00
H654   H     0.98422   0.22840   0.99736   0.00000  Uiso   1.00
H655   H     0.99599   0.06579   0.51443   0.00000  Uiso   1.00
H656   H     0.81133   0.19774   0.59613   0.00000  Uiso   1.00
N657   N     0.81362   0.15216   0.73739   0.00000  Uiso   1.00
N658   N     0.85305   0.18117   0.76260   0.00000  Uiso   1.00
O659   O     0.96386   0.24631   0.75309   0.00000  Uiso   1.00
O660   O     0.79066   0.32154   0.78995   0.00000  Uiso   1.00
O661   O     0.93995   0.29751   0.67149   0.00000  Uiso   1.00
O662   O     0.87614   0.01218   0.70964   0.00000  Uiso   1.00
O663   O     0.70281   0.08702   0.74691   0.00000  Uiso   1.00
O664   O     0.72488   0.23702   0.74502   0.00000  Uiso   1.00
O665   O     0.94178   0.09632   0.75498   0.00000  Uiso   1.00
O666   O     0.96995   0.17397   0.82247   0.00000  Uiso   1.00
O667   O     0.69672   0.15937   0.67753   0.00000  Uiso   1.00
O668   O     0.73098   0.16467   0.81439   0.00000  Uiso   1.00
O669   O     0.93569   0.16866   0.68561   0.00000  Uiso   1.00
O670   O     0.72664   0.03557   0.82855   0.00000  Uiso   1.00
Zn671  Zn    0.93700   0.17287   0.75539   0.00000  Uiso   1.00
Zn672  Zn    0.72967   0.16046   0.74461   0.00000  Uiso   1.00
C673   C     0.01487   0.59815   0.74913   0.00000  Uiso   1.00
C674   C     0.31209   0.49531   0.65901   0.00000  Uiso   1.00
C675   C     0.03066   0.50578   0.89363   0.00000  Uiso   1.00
C676   C     0.29981   0.48389   0.60722   0.00000  Uiso   1.00
C677   C     0.01083   0.53976   0.97398   0.00000  Uiso   1.00
C678   C     0.30657   0.42754   0.53481   0.00000  Uiso   1.00
C679   C     0.32828   0.53160   0.92454   0.00000  Uiso   1.00
C680   C     0.32867   0.44678   0.58091   0.00000  Uiso   1.00
C681   C     0.07909   0.48439   0.91251   0.00000  Uiso   1.00
C682   C     0.25069   0.50276   0.58712   0.00000  Uiso   1.00
C683   C     0.09566   0.49150   0.96195   0.00000  Uiso   1.00
C684   C     0.31846   0.40185   0.75082   0.00000  Uiso   1.00
C685   C     0.22413   0.47957   0.54400   0.00000  Uiso   1.00
C686   C     0.06212   0.52174   0.99248   0.00000  Uiso   1.00
C687   C     0.25390   0.44304   0.51650   0.00000  Uiso   1.00
C688   C     0.14716   0.47298   0.98072   0.00000  Uiso   1.00
C689   C     0.16870   0.49161   0.52796   0.00000  Uiso   1.00
C690   C     0.06934   0.33899   0.79414   0.00000  Uiso   1.00
C691   C     0.26400   0.66104   0.70571   0.00000  Uiso   1.00
C692   C     0.13351   0.52037   0.55817   0.00000  Uiso   1.00
C693   C     0.17781   0.43661   0.95386   0.00000  Uiso   1.00
C694   C     0.08087   0.53471   0.54067   0.00000  Uiso   1.00
C695   C     0.23011   0.42167   0.97179   0.00000  Uiso   1.00
C696   C     0.02203   0.65266   0.75754   0.00000  Uiso   1.00
C697   C     0.31130   0.34734   0.74233   0.00000  Uiso   1.00
C698   C     0.02101   0.50362   0.84105   0.00000  Uiso   1.00
H699   H     0.05533   0.55707   0.56470   0.00000  Uiso   1.00
H700   H     0.16134   0.41728   0.91962   0.00000  Uiso   1.00
H701   H     0.16244   0.45802   0.71385   0.00000  Uiso   1.00
H702   H     0.17090   0.54199   0.78613   0.00000  Uiso   1.00
H703   H     0.15220   0.33717   0.81697   0.00000  Uiso   1.00
H704   H     0.18127   0.66323   0.68262   0.00000  Uiso   1.00
H705   H     0.25201   0.39328   0.95054   0.00000  Uiso   1.00
H706   H     0.23266   0.53425   0.60727   0.00000  Uiso   1.00
H707   H     0.10551   0.46539   0.88717   0.00000  Uiso   1.00
H708   H     0.03358   0.43158   0.59651   0.00000  Uiso   1.00
H709   H     0.28996   0.54772   0.91018   0.00000  Uiso   1.00
H710   H     0.31756   0.56173   0.99736   0.00000  Uiso   1.00
H711   H     0.32932   0.39912   0.51443   0.00000  Uiso   1.00
H712   H     0.14466   0.53108   0.59613   0.00000  Uiso   1.00
N713   N     0.14695   0.48550   0.73739   0.00000  Uiso   1.00
N714   N     0.18638   0.51450   0.76260   0.00000  Uiso   1.00
O715   O     0.29719   0.57964   0.75309   0.00000  Uiso   1.00
O716   O     0.12399   0.65487   0.78995   0.00000  Uiso   1.00
O717   O     0.27328   0.63084   0.67149   0.00000  Uiso   1.00
O718   O     0.20948   0.34552   0.70964   0.00000  Uiso   1.00
O719   O     0.03614   0.42036   0.74691   0.00000  Uiso   1.00
O720   O     0.05822   0.57035   0.74502   0.00000  Uiso   1.00
O721   O     0.27512   0.42965   0.75498   0.00000  Uiso   1.00
O722   O     0.30328   0.50730   0.82247   0.00000  Uiso   1.00
O723   O     0.03005   0.49270   0.67753   0.00000  Uiso   1.00
O724   O     0.06431   0.49801   0.81439   0.00000  Uiso   1.00
O725   O     0.26902   0.50199   0.68561   0.00000  Uiso   1.00
O726   O     0.05997   0.36890   0.82855   0.00000  Uiso   1.00
Zn727  Zn    0.27033   0.50621   0.75539   0.00000  Uiso   1.00
Zn728  Zn    0.06300   0.49379   0.74461   0.00000  Uiso   1.00
C729   C     0.34820   0.59815   0.74913   0.00000  Uiso   1.00
C730   C     0.64542   0.49531   0.65901   0.00000  Uiso   1.00
C731   C     0.36399   0.50578   0.89363   0.00000  Uiso   1.00
C732   C     0.63314   0.48389   0.60722   0.00000  Uiso   1.00
C733   C     0.34416   0.53976   0.97398   0.00000  Uiso   1.00
C734   C     0.63990   0.42754   0.53481   0.00000  Uiso   1.00
C735   C     0.66161   0.53160   0.92454   0.00000  Uiso   1.00
C736   C     0.66200   0.44678   0.58091   0.00000  Uiso   1.00
C737   C     0.41243   0.48439   0.91251   0.00000  Uiso   1.00
C738   C     0.58402   0.50276   0.58712   0.00000  Uiso   1.00
C739   C     0.42899   0.49150   0.96195   0.00000  Uiso   1.00
C740   C     0.65179   0.40185   0.75082   0.00000  Uiso   1.00
C741   C     0.55746   0.47957   0.54400   0.00000  Uiso   1.00
C742   C     0.39545   0.52174   0.99248   0.00000  Uiso   1.00
C743   C     0.58723   0.44304   0.51650   0.00000  Uiso   1.00
C744   C     0.48050   0.47298   0.98072   0.00000  Uiso   1.00
C745   C     0.50203   0.49161   0.52796   0.00000  Uiso   1.00
C746   C     0.40268   0.33899   0.79414   0.00000  Uiso   1.00
C747   C     0.59733   0.66104   0.70571   0.00000  Uiso   1.00
C748   C     0.46684   0.52037   0.55817   0.00000  Uiso   1.00
C749   C     0.51115   0.43661   0.95386   0.00000  Uiso   1.00
C750   C     0.41421   0.53471   0.54067   0.00000  Uiso   1.00
C751   C     0.56345   0.42167   0.97179   0.00000  Uiso   1.00
C752   C     0.35537   0.65266   0.75754   0.00000  Uiso   1.00
C753   C     0.64464   0.34734   0.74233   0.00000  Uiso   1.00
C754   C     0.35434   0.50362   0.84105   0.00000  Uiso   1.00
H755   H     0.38866   0.55707   0.56470   0.00000  Uiso   1.00
H756   H     0.49467   0.41728   0.91962   0.00000  Uiso   1.00
H757   H     0.49577   0.45802   0.71385   0.00000  Uiso   1.00
H758   H     0.50423   0.54199   0.78613   0.00000  Uiso   1.00
H759   H     0.48554   0.33717   0.81697   0.00000  Uiso   1.00
H760   H     0.51460   0.66323   0.68262   0.00000  Uiso   1.00
H761   H     0.58534   0.39328   0.95054   0.00000  Uiso   1.00
H762   H     0.56599   0.53425   0.60727   0.00000  Uiso   1.00
H763   H     0.43885   0.46539   0.88717   0.00000  Uiso   1.00
H764   H     0.36692   0.43158   0.59651   0.00000  Uiso   1.00
H765   H     0.62329   0.54772   0.91018   0.00000  Uiso   1.00
H766   H     0.65089   0.56173   0.99736   0.00000  Uiso   1.00
H767   H     0.66266   0.39912   0.51443   0.00000  Uiso   1.00
H768   H     0.47800   0.53108   0.59613   0.00000  Uiso   1.00
N769   N     0.48029   0.48550   0.73739   0.00000  Uiso   1.00
N770   N     0.51971   0.51450   0.76260   0.00000  Uiso   1.00
O771   O     0.63052   0.57964   0.75309   0.00000  Uiso   1.00
O772   O     0.45732   0.65487   0.78995   0.00000  Uiso   1.00
O773   O     0.60662   0.63084   0.67149   0.00000  Uiso   1.00
O774   O     0.54281   0.34552   0.70964   0.00000  Uiso   1.00
O775   O     0.36948   0.42036   0.74691   0.00000  Uiso   1.00
O776   O     0.39155   0.57035   0.74502   0.00000  Uiso   1.00
O777   O     0.60845   0.42965   0.75498   0.00000  Uiso   1.00
O778   O     0.63662   0.50730   0.82247   0.00000  Uiso   1.00
O779   O     0.36338   0.49270   0.67753   0.00000  Uiso   1.00
O780   O     0.39764   0.49801   0.81439   0.00000  Uiso   1.00
O781   O     0.60236   0.50199   0.68561   0.00000  Uiso   1.00
O782   O     0.39330   0.36890   0.82855   0.00000  Uiso   1.00
Zn783  Zn    0.60366   0.50621   0.75539   0.00000  Uiso   1.00
Zn784  Zn    0.39634   0.49379   0.74461   0.00000  Uiso   1.00
C785   C     0.68154   0.59815   0.74913   0.00000  Uiso   1.00
C786   C     0.97875   0.49531   0.65901   0.00000  Uiso   1.00
C787   C     0.69733   0.50578   0.89363   0.00000  Uiso   1.00
C788   C     0.96648   0.48389   0.60722   0.00000  Uiso   1.00
C789   C     0.67749   0.53976   0.97398   0.00000  Uiso   1.00
C790   C     0.97324   0.42754   0.53481   0.00000  Uiso   1.00
C791   C     0.99495   0.53160   0.92454   0.00000  Uiso   1.00
C792   C     0.99534   0.44678   0.58091   0.00000  Uiso   1.00
C793   C     0.74576   0.48439   0.91251   0.00000  Uiso   1.00
C794   C     0.91735   0.50276   0.58712   0.00000  Uiso   1.00
C795   C     0.76232   0.49150   0.96195   0.00000  Uiso   1.00
C796   C     0.98513   0.40185   0.75082   0.00000  Uiso   1.00
C797   C     0.89080   0.47957   0.54400   0.00000  Uiso   1.00
C798   C     0.72879   0.52174   0.99248   0.00000  Uiso   1.00
C799   C     0.92057   0.44304   0.51650   0.00000  Uiso   1.00
C800   C     0.81383   0.47298   0.98072   0.00000  Uiso   1.00
C801   C     0.83537   0.49161   0.52796   0.00000  Uiso   1.00
C802   C     0.73601   0.33899   0.79414   0.00000  Uiso   1.00
C803   C     0.93067   0.66104   0.70571   0.00000  Uiso   1.00
C804   C     0.80017   0.52037   0.55817   0.00000  Uiso   1.00
C805   C     0.84448   0.43661   0.95386   0.00000  Uiso   1.00
C806   C     0.74754   0.53471   0.54067   0.00000  Uiso   1.00
C807   C     0.89678   0.42167   0.97179   0.00000  Uiso   1.00
C808   C     0.68870   0.65266   0.75754   0.00000  Uiso   1.00
C809   C     0.97797   0.34734   0.74233   0.00000  Uiso   1.00
C810   C     0.68768   0.50362   0.84105   0.00000  Uiso   1.00
H811   H     0.72199   0.55707   0.56470   0.00000  Uiso   1.00
H812   H     0.82800   0.41728   0.91962   0.00000  Uiso   1.00
H813   H     0.82910   0.45802   0.71385   0.00000  Uiso   1.00
H814   H     0.83756   0.54199   0.78613   0.00000  Uiso   1.00
H815   H     0.81887   0.33717   0.81697   0.00000  Uiso   1.00
H816   H     0.84793   0.66323   0.68262   0.00000  Uiso   1.00
H817   H     0.91868   0.39328   0.95054   0.00000  Uiso   1.00
H818   H     0.89933   0.53425   0.60727   0.00000  Uiso   1.00
H819   H     0.77218   0.46539   0.88717   0.00000  Uiso   1.00
H820   H     0.70025   0.43158   0.59651   0.00000  Uiso   1.00
H821   H     0.95662   0.54772   0.91018   0.00000  Uiso   1.00
H822   H     0.98422   0.56173   0.99736   0.00000  Uiso   1.00
H823   H     0.99599   0.39912   0.51443   0.00000  Uiso   1.00
H824   H     0.81133   0.53108   0.59613   0.00000  Uiso   1.00
N825   N     0.81362   0.48550   0.73739   0.00000  Uiso   1.00
N826   N     0.85305   0.51450   0.76260   0.00000  Uiso   1.00
O827   O     0.96386   0.57964   0.75309   0.00000  Uiso   1.00
O828   O     0.79066   0.65487   0.78995   0.00000  Uiso   1.00
O829   O     0.93995   0.63084   0.67149   0.00000  Uiso   1.00
O830   O     0.87614   0.34552   0.70964   0.00000  Uiso   1.00
O831   O     0.70281   0.42036   0.74691   0.00000  Uiso   1.00
O832   O     0.72488   0.57035   0.74502   0.00000  Uiso   1.00
O833   O     0.94178   0.42965   0.75498   0.00000  Uiso   1.00
O834   O     0.96995   0.50730   0.82247   0.00000  Uiso   1.00
O835   O     0.69672   0.49270   0.67753   0.00000  Uiso   1.00
O836   O     0.73098   0.49801   0.81439   0.00000  Uiso   1.00
O837   O     0.93569   0.50199   0.68561   0.00000  Uiso   1.00
O838   O     0.72664   0.36890   0.82855   0.00000  Uiso   1.00
Zn839  Zn    0.93700   0.50621   0.75539   0.00000  Uiso   1.00
Zn840  Zn    0.72967   0.49379   0.74461   0.00000  Uiso   1.00
C841   C     0.01487   0.93148   0.74913   0.00000  Uiso   1.00
C842   C     0.31209   0.82865   0.65901   0.00000  Uiso   1.00
C843   C     0.03066   0.83911   0.89363   0.00000  Uiso   1.00
C844   C     0.29981   0.81723   0.60722   0.00000  Uiso   1.00
C845   C     0.01083   0.87310   0.97398   0.00000  Uiso   1.00
C846   C     0.30657   0.76088   0.53481   0.00000  Uiso   1.00
C847   C     0.32828   0.86493   0.92454   0.00000  Uiso   1.00
C848   C     0.32867   0.78011   0.58091   0.00000  Uiso   1.00
C849   C     0.07909   0.81773   0.91251   0.00000  Uiso   1.00
C850   C     0.25069   0.83610   0.58712   0.00000  Uiso   1.00
C851   C     0.09566   0.82483   0.96195   0.00000  Uiso   1.00
C852   C     0.31846   0.73518   0.75082   0.00000  Uiso   1.00
C853   C     0.22413   0.81291   0.54400   0.00000  Uiso   1.00
C854   C     0.06212   0.85508   0.99248   0.00000  Uiso   1.00
C855   C     0.25390   0.77638   0.51650   0.00000  Uiso   1.00
C856   C     0.14716   0.80631   0.98072   0.00000  Uiso   1.00
C857   C     0.16870   0.82494   0.52796   0.00000  Uiso   1.00
C858   C     0.06934   0.67232   0.79414   0.00000  Uiso   1.00
C859   C     0.26400   0.99437   0.70571   0.00000  Uiso   1.00
C860   C     0.13351   0.85370   0.55817   0.00000  Uiso   1.00
C861   C     0.17781   0.76994   0.95386   0.00000  Uiso   1.00
C862   C     0.08087   0.86805   0.54067   0.00000  Uiso   1.00
C863   C     0.23011   0.75500   0.97179   0.00000  Uiso   1.00
C864   C     0.02203   0.98599   0.75754   0.00000  Uiso   1.00
C865   C     0.31130   0.68068   0.74233   0.00000  Uiso   1.00
C866   C     0.02101   0.83695   0.84105   0.00000  Uiso   1.00
H867   H     0.05533   0.89040   0.56470   0.00000  Uiso   1.00
H868   H     0.16134   0.75061   0.91962   0.00000  Uiso   1.00
H869   H     0.16244   0.79136   0.71385   0.00000  Uiso   1.00
H870   H     0.17090   0.87533   0.78613   0.00000  Uiso   1.00
H871   H     0.15220   0.67051   0.81697   0.00000  Uiso   1.00
H872   H     0.18127   0.99656   0.68262   0.00000  Uiso   1.00
H873   H     0.25201   0.72661   0.95054   0.00000  Uiso   1.00
H874   H     0.23266   0.86758   0.60727   0.00000  Uiso   1.00
H875   H     0.10551   0.79872   0.88717   0.00000  Uiso   1.00
H876   H     0.03358   0.76491   0.59651   0.00000  Uiso   1.00
H877   H     0.28996   0.88106   0.91018   0.00000  Uiso   1.00
H878   H     0.31756   0.89506   0.99736   0.00000  Uiso   1.00
H879   H     0.32932   0.73245   0.51443   0.00000  Uiso   1.00
H880   H     0.14466   0.86441   0.59613   0.00000  Uiso   1.00
N881   N     0.14695   0.81883   0.73739   0.00000  Uiso   1.00
N882   N     0.18638   0.84784   0.76260   0.00000  Uiso   1.00
O883   O     0.29719   0.91298   0.75309   0.00000  Uiso   1.00
O884   O     0.12399   0.98821   0.78995   0.00000  Uiso   1.00
O885   O     0.27328   0.96418   0.67149   0.00000  Uiso   1.00
O886   O     0.20948   0.67885   0.70964   0.00000  Uiso   1.00
O887   O     0.03614   0.75369   0.74691   0.00000  Uiso   1.00
O888   O     0.05822   0.90368   0.74502   0.00000  Uiso   1.00
O889   O     0.27512   0.76298   0.75498   0.00000  Uiso   1.00
O890   O     0.30328   0.84063   0.82247   0.00000  Uiso   1.00
O891   O     0.03005   0.82603   0.67753   0.00000  Uiso   1.00
O892   O     0.06431   0.83134   0.81439   0.00000  Uiso   1.00
O893   O     0.26902   0.83533   0.68561   0.00000  Uiso   1.00
O894   O     0.05997   0.70223   0.82855   0.00000  Uiso   1.00
Zn895  Zn    0.27033   0.83954   0.75539   0.00000  Uiso   1.00
Zn896  Zn    0.06300   0.82713   0.74461   0.00000  Uiso   1.00
C897   C     0.34820   0.93148   0.74913   0.00000  Uiso   1.00
C898   C     0.64542   0.82865   0.65901   0.00000  Uiso   1.00
C899   C     0.36399   0.83911   0.89363   0.00000  Uiso   1.00
C900   C     0.63314   0.81723   0.60722   0.00000  Uiso   1.00
C901   C     0.34416   0.87310   0.97398   0.00000  Uiso   1.00
C902   C     0.63990   0.76088   0.53481   0.00000  Uiso   1.00
C903   C     0.66161   0.86493   0.92454   0.00000  Uiso   1.00
C904   C     0.66200   0.78011   0.58091   0.00000  Uiso   1.00
C905   C     0.41243   0.81773   0.91251   0.00000  Uiso   1.00
C906   C     0.58402   0.83610   0.58712   0.00000  Uiso   1.00
C907   C     0.42899   0.82483   0.96195   0.00000  Uiso   1.00
C908   C     0.65179   0.73518   0.75082   0.00000  Uiso   1.00
C909   C     0.55746   0.81291   0.54400   0.00000  Uiso   1.00
C910   C     0.39545   0.85508   0.99248   0.00000  Uiso   1.00
C911   C     0.58723   0.77638   0.51650   0.00000  Uiso   1.00
C912   C     0.48050   0.80631   0.98072   0.00000  Uiso   1.00
C913   C     0.50203   0.82494   0.52796   0.00000  Uiso   1.00
C914   C     0.40268   0.67232   0.79414   0.00000  Uiso   1.00
C915   C     0.59733   0.99437   0.70571   0.00000  Uiso   1.00
C916   C     0.46684   0.85370   0.55817   0.00000  Uiso   1.00
C917   C     0.51115   0.76994   0.95386   0.00000  Uiso   1.00
C918   C     0.41421   0.86805   0.54067   0.00000  Uiso   1.00
C919   C     0.56345   0.75500   0.97179   0.00000  Uiso   1.00
C920   C     0.35537   0.98599   0.75754   0.00000  Uiso   1.00
C921   C     0.64464   0.68068   0.74233   0.00000  Uiso   1.00
C922   C     0.35434   0.83695   0.84105   0.00000  Uiso   1.00
H923   H     0.38866   0.89040   0.56470   0.00000  Uiso   1.00
H924   H     0.49467   0.75061   0.91962   0.00000  Uiso   1.00
H925   H     0.49577   0.79136   0.71385   0.00000  Uiso   1.00
H926   H     0.50423   0.87533   0.78613   0.00000  Uiso   1.00
H927   H     0.48554   0.67051   0.81697   0.00000  Uiso   1.00
H928   H     0.51460   0.99656   0.68262   0.00000  Uiso   1.00
H929   H     0.58534   0.72661   0.95054   0.00000  Uiso   1.00
H930   H     0.56599   0.86758   0.60727   0.00000  Uiso   1.00
H931   H     0.43885   0.79872   0.88717   0.00000  Uiso   1.00
H932   H     0.36692   0.76491   0.59651   0.00000  Uiso   1.00
H933   H     0.62329   0.88106   0.91018   0.00000  Uiso   1.00
H934   H     0.65089   0.89506   0.99736   0.00000  Uiso   1.00
H935   H     0.66266   0.73245   0.51443   0.00000  Uiso   1.00
H936   H     0.47800   0.86441   0.59613   0.00000  Uiso   1.00
N937   N     0.48029   0.81883   0.73739   0.00000  Uiso   1.00
N938   N     0.51971   0.84784   0.76260   0.00000  Uiso   1.00
O939   O     0.63052   0.91298   0.75309   0.00000  Uiso   1.00
O940   O     0.45732   0.98821   0.78995   0.00000  Uiso   1.00
O941   O     0.60662   0.96418   0.67149   0.00000  Uiso   1.00
O942   O     0.54281   0.67885   0.70964   0.00000  Uiso   1.00
O943   O     0.36948   0.75369   0.74691   0.00000  Uiso   1.00
O944   O     0.39155   0.90368   0.74502   0.00000  Uiso   1.00
O945   O     0.60845   0.76298   0.75498   0.00000  Uiso   1.00
O946   O     0.63662   0.84063   0.82247   0.00000  Uiso   1.00
O947   O     0.36338   0.82603   0.67753   0.00000  Uiso   1.00
O948   O     0.39764   0.83134   0.81439   0.00000  Uiso   1.00
O949   O     0.60236   0.83533   0.68561   0.00000  Uiso   1.00
O950   O     0.39330   0.70223   0.82855   0.00000  Uiso   1.00
Zn951  Zn    0.60366   0.83954   0.75539   0.00000  Uiso   1.00
Zn952  Zn    0.39634   0.82713   0.74461   0.00000  Uiso   1.00
C953   C     0.68154   0.93148   0.74913   0.00000  Uiso   1.00
C954   C     0.97875   0.82865   0.65901   0.00000  Uiso   1.00
C955   C     0.69733   0.83911   0.89363   0.00000  Uiso   1.00
C956   C     0.96648   0.81723   0.60722   0.00000  Uiso   1.00
C957   C     0.67749   0.87310   0.97398   0.00000  Uiso   1.00
C958   C     0.97324   0.76088   0.53481   0.00000  Uiso   1.00
C959   C     0.99495   0.86493   0.92454   0.00000  Uiso   1.00
C960   C     0.99534   0.78011   0.58091   0.00000  Uiso   1.00
C961   C     0.74576   0.81773   0.91251   0.00000  Uiso   1.00
C962   C     0.91735   0.83610   0.58712   0.00000  Uiso   1.00
C963   C     0.76232   0.82483   0.96195   0.00000  Uiso   1.00
C964   C     0.98513   0.73518   0.75082   0.00000  Uiso   1.00
C965   C     0.89080   0.81291   0.54400   0.00000  Uiso   1.00
C966   C     0.72879   0.85508   0.99248   0.00000  Uiso   1.00
C967   C     0.92057   0.77638   0.51650   0.00000  Uiso   1.00
C968   C     0.81383   0.80631   0.98072   0.00000  Uiso   1.00
C969   C     0.83537   0.82494   0.52796   0.00000  Uiso   1.00
C970   C     0.73601   0.67232   0.79414   0.00000  Uiso   1.00
C971   C     0.93067   0.99437   0.70571   0.00000  Uiso   1.00
C972   C     0.80017   0.85370   0.55817   0.00000  Uiso   1.00
C973   C     0.84448   0.76994   0.95386   0.00000  Uiso   1.00
C974   C     0.74754   0.86805   0.54067   0.00000  Uiso   1.00
C975   C     0.89678   0.75500   0.97179   0.00000  Uiso   1.00
C976   C     0.68870   0.98599   0.75754   0.00000  Uiso   1.00
C977   C     0.97797   0.68068   0.74233   0.00000  Uiso   1.00
C978   C     0.68768   0.83695   0.84105   0.00000  Uiso   1.00
H979   H     0.72199   0.89040   0.56470   0.00000  Uiso   1.00
H980   H     0.82800   0.75061   0.91962   0.00000  Uiso   1.00
H981   H     0.82910   0.79136   0.71385   0.00000  Uiso   1.00
H982   H     0.83756   0.87533   0.78613   0.00000  Uiso   1.00
H983   H     0.81887   0.67051   0.81697   0.00000  Uiso   1.00
H984   H     0.84793   0.99656   0.68262   0.00000  Uiso   1.00
H985   H     0.91868   0.72661   0.95054   0.00000  Uiso   1.00
H986   H     0.89933   0.86758   0.60727   0.00000  Uiso   1.00
H987   H     0.77218   0.79872   0.88717   0.00000  Uiso   1.00
H988   H     0.70025   0.76491   0.59651   0.00000  Uiso   1.00
H989   H     0.95662   0.88106   0.91018   0.00000  Uiso   1.00
H990   H     0.98422   0.89506   0.99736   0.00000  Uiso   1.00
H991   H     0.99599   0.73245   0.51443   0.00000  Uiso   1.00
H992   H     0.81133   0.86441   0.59613   0.00000  Uiso   1.00
N993   N     0.81362   0.81883   0.73739   0.00000  Uiso   1.00
N994   N     0.85305   0.84784   0.76260   0.00000  Uiso   1.00
O995   O     0.96386   0.91298   0.75309   0.00000  Uiso   1.00
O996   O     0.79066   0.98821   0.78995   0.00000  Uiso   1.00
O997   O     0.93995   0.96418   0.67149   0.00000  Uiso   1.00
O998   O     0.87614   0.67885   0.70964   0.00000  Uiso   1.00
O999   O     0.70281   0.75369   0.74691   0.00000  Uiso   1.00
O1000  O     0.72488   0.90368   0.74502   0.00000  Uiso   1.00
O1001  O     0.94178   0.76298   0.75498   0.00000  Uiso   1.00
O1002  O     0.96995   0.84063   0.82247   0.00000  Uiso   1.00
O1003  O     0.69672   0.82603   0.67753   0.00000  Uiso   1.00
O1004  O     0.73098   0.83134   0.81439   0.00000  Uiso   1.00
O1005  O     0.93569   0.83533   0.68561   0.00000  Uiso   1.00
O1006  O     0.72664   0.70223   0.82855   0.00000  Uiso   1.00
Zn1007 Zn    0.93700   0.83954   0.75539   0.00000  Uiso   1.00
Zn1008 Zn    0.72967   0.82713   0.74461   0.00000  Uiso   1.00
loop_
_geom_bond_atom_site_label_1
_geom_bond_atom_site_label_2
_geom_bond_distance
_geom_bond_site_symmetry_2
_ccdc_geom_bond_type
C1     C24     1.407   .     S
C1     O48     1.291   .     A
C1     O155    1.273   1_455 S
C2     C4      1.448   .     S
C2     O53     1.297   .     A
C2     O107    1.291   .     S
C3     C9      1.388   .     A
C3     C26     1.451   .     S
C3     C119    1.400   1_455 S
C4     C8      1.400   .     A
C4     C10     1.384   .     A
C5     C14     1.403   .     A
C5     C119    1.391   1_455 S
C5     H150    1.084   1_455 S
C6     C8      1.394   .     A
C6     H39     1.084   .     S
C6     C15     1.404   .     A
C7     H37     1.083   .     S
C7     C59     1.400   .     S
C7     C61     1.391   .     S
C8     H92     1.083   .     S
C9     C11     1.393   .     A
C9     H35     1.077   .     S
C10    H34     1.079   .     S
C10    C13     1.392   .     A
C11    C16     1.415   .     A
C11    C14     1.419   .     A
C12    C25     1.407   .     S
C12    O49     1.291   .     A
C12    O103    1.273   .     S
C13    C17     1.414   .     A
C13    C15     1.418   .     A
C14    C526    1.389   .     S
C15    C527    1.390   1_554 S
C16    C21     1.418   .     A
C16    C521    1.413   .     S
C17    C20     1.418   .     A
C17    C520    1.413   1_554 S
C18    O54     1.224   .     D
C18    C360    1.499   1_545 S
C18    O380    1.398   1_545 S
C19    O45     1.224   .     D
C19    C193    1.499   .     S
C19    O214    1.399   .     S
C20    H40     1.078   .     S
C20    C22     1.385   .     A
C21    H28     1.078   .     S
C21    C23     1.388   .     A
C22    H27     1.084   .     S
C22    C518    1.389   1_554 S
C23    H33     1.084   .     S
C23    C519    1.390   .     S
C24    C186    1.499   .     S
C24    C305    1.365   1_455 S
C25    C416    1.365   1_545 S
C25    C355    1.499   1_545 S
C26    O52     1.299   .     A
C26    O162    1.291   1_455 S
H29    N41     1.029   .     S
H30    N42     1.029   .     S
H31    O380    1.014   1_545 S
H32    O214    1.014   .     S
H36    C120    1.083   1_455 S
H38    C61     1.084   .     S
N41    Zn56    2.019   .     S
N41    N42     1.292   .     D
N42    Zn55    2.019   .     S
O43    Zn55    1.959   .     S
O43    C57     1.273   .     S
O44    H199    1.014   .     S
O44    C186    1.398   .     S
O46    H368    1.014   1_545 S
O46    C355    1.399   1_545 S
O47    Zn56    1.959   .     S
O47    C124    1.273   1_455 S
O48    Zn56    1.983   .     S
O49    Zn55    1.983   .     S
O50    Zn55    1.961   .     S
O50    C82     1.291   .     S
O51    Zn56    1.961   .     S
O51    C114    1.291   1_455 S
O52    Zn56    1.917   .     S
O53    Zn55    1.917   .     S
C57    C80     1.407   .     S
C57    O104    1.291   .     A
C58    C60     1.448   .     S
C58    O109    1.297   .     A
C58    O163    1.291   .     S
C59    C65     1.388   .     A
C59    C82     1.451   .     S
C60    C64     1.400   .     A
C60    C66     1.384   .     A
C61    C70     1.403   .     A
C62    C64     1.394   .     A
C62    H95     1.084   .     S
C62    C71     1.404   .     A
C63    H93     1.083   .     S
C63    C115    1.400   .     S
C63    C117    1.391   .     S
C64    H148    1.083   .     S
C65    C67     1.393   .     A
C65    H91     1.077   .     S
C66    H90     1.079   .     S
C66    C69     1.392   .     A
C67    C72     1.415   .     A
C67    C70     1.419   .     A
C68    C81     1.407   .     S
C68    O105    1.291   .     A
C68    O159    1.273   .     S
C69    C73     1.414   .     A
C69    C71     1.418   .     A
C70    C582    1.389   .     S
C71    C583    1.390   1_554 S
C72    C77     1.418   .     A
C72    C577    1.413   .     S
C73    C76     1.418   .     A
C73    C576    1.413   1_554 S
C74    O110    1.224   .     D
C74    C416    1.499   1_545 S
C74    O436    1.398   1_545 S
C75    O101    1.224   .     D
C75    C249    1.499   .     S
C75    O270    1.399   .     S
C76    H96     1.078   .     S
C76    C78     1.385   .     A
C77    H84     1.078   .     S
C77    C79     1.388   .     A
C78    H83     1.084   .     S
C78    C574    1.389   1_554 S
C79    H89     1.084   .     S
C79    C575    1.390   .     S
C80    C242    1.499   .     S
C80    C193    1.365   .     S
C81    C472    1.365   1_545 S
C81    C411    1.499   1_545 S
C82    O108    1.299   .     A
H85    N97     1.029   .     S
H86    N98     1.029   .     S
H87    O436    1.014   1_545 S
H88    O270    1.014   .     S
H94    C117    1.084   .     S
N97    Zn112   2.019   .     S
N97    N98     1.292   .     D
N98    Zn111   2.019   .     S
O99    Zn111   1.959   .     S
O99    C113    1.273   .     S
O100   H255    1.014   .     S
O100   C242    1.398   .     S
O102   H424    1.014   1_545 S
O102   C411    1.399   1_545 S
O103   Zn112   1.959   .     S
O104   Zn112   1.983   .     S
O105   Zn111   1.983   .     S
O106   Zn111   1.961   .     S
O106   C138    1.291   .     S
O107   Zn112   1.961   .     S
O108   Zn112   1.917   .     S
O109   Zn111   1.917   .     S
C113   C136    1.407   .     S
C113   O160    1.291   .     A
C114   C116    1.448   .     S
C114   O165    1.297   .     A
C114   O51     1.291   1_655 S
C115   C121    1.388   .     A
C115   C138    1.451   .     S
C116   C120    1.400   .     A
C116   C122    1.384   .     A
C117   C126    1.403   .     A
C118   C120    1.394   .     A
C118   H151    1.084   .     S
C118   C127    1.404   .     A
C119   H149    1.083   .     S
C119   C3      1.400   1_655 S
C119   C5      1.391   1_655 S
C120   H36     1.083   1_655 S
C121   C123    1.393   .     A
C121   H147    1.077   .     S
C122   H146    1.079   .     S
C122   C125    1.392   .     A
C123   C128    1.415   .     A
C123   C126    1.419   .     A
C124   C137    1.407   .     S
C124   O161    1.291   .     A
C124   O47     1.273   1_655 S
C125   C129    1.414   .     A
C125   C127    1.418   .     A
C126   C638    1.389   .     S
C127   C639    1.390   1_554 S
C128   C133    1.418   .     A
C128   C633    1.413   .     S
C129   C132    1.418   .     A
C129   C632    1.413   1_554 S
C130   O166    1.224   .     D
C130   C472    1.499   1_545 S
C130   O492    1.398   1_545 S
C131   O157    1.224   .     D
C131   C305    1.499   .     S
C131   O326    1.399   .     S
C132   H152    1.078   .     S
C132   C134    1.385   .     A
C133   H140    1.078   .     S
C133   C135    1.388   .     A
C134   H139    1.084   .     S
C134   C630    1.389   1_554 S
C135   H145    1.084   .     S
C135   C631    1.390   .     S
C136   C298    1.499   .     S
C136   C249    1.365   .     S
C137   C360    1.365   1_645 S
C137   C467    1.499   1_545 S
C138   O164    1.299   .     A
H141   N153    1.029   .     S
H142   N154    1.029   .     S
H143   O492    1.014   1_545 S
H144   O326    1.014   .     S
H150   C5      1.084   1_655 S
N153   Zn168   2.019   .     S
N153   N154    1.292   .     D
N154   Zn167   2.019   .     S
O155   Zn167   1.959   .     S
O155   C1      1.273   1_655 S
O156   H311    1.014   .     S
O156   C298    1.398   .     S
O158   H480    1.014   1_545 S
O158   C467    1.399   1_545 S
O159   Zn168   1.959   .     S
O160   Zn168   1.983   .     S
O161   Zn167   1.983   .     S
O162   Zn167   1.961   .     S
O162   C26     1.291   1_655 S
O163   Zn168   1.961   .     S
O164   Zn168   1.917   .     S
O165   Zn167   1.917   .     S
C169   C192    1.407   .     S
C169   O216    1.291   .     A
C169   O323    1.273   1_455 S
C170   C172    1.448   .     S
C170   O221    1.297   .     A
C170   O275    1.291   .     S
C171   C177    1.388   .     A
C171   C194    1.451   .     S
C171   C287    1.400   1_455 S
C172   C176    1.400   .     A
C172   C178    1.384   .     A
C173   C182    1.403   .     A
C173   C287    1.391   1_455 S
C173   H318    1.084   1_455 S
C174   C176    1.394   .     A
C174   H207    1.084   .     S
C174   C183    1.404   .     A
C175   H205    1.083   .     S
C175   C227    1.400   .     S
C175   C229    1.391   .     S
C176   H260    1.083   .     S
C177   C179    1.393   .     A
C177   H203    1.077   .     S
C178   H202    1.079   .     S
C178   C181    1.392   .     A
C179   C184    1.415   .     A
C179   C182    1.419   .     A
C180   C193    1.407   .     S
C180   O217    1.291   .     A
C180   O271    1.273   .     S
C181   C185    1.414   .     A
C181   C183    1.418   .     A
C182   C694    1.389   .     S
C183   C695    1.390   1_554 S
C184   C189    1.418   .     A
C184   C689    1.413   .     S
C185   C188    1.418   .     A
C185   C688    1.413   1_554 S
C186   O222    1.224   .     D
C187   O213    1.224   .     D
C187   C361    1.499   .     S
C187   O382    1.399   .     S
C188   H208    1.078   .     S
C188   C190    1.385   .     A
C189   H196    1.078   .     S
C189   C191    1.388   .     A
C190   H195    1.084   .     S
C190   C686    1.389   1_554 S
C191   H201    1.084   .     S
C191   C687    1.390   .     S
C192   C354    1.499   .     S
C192   C473    1.365   1_455 S
C194   O220    1.299   .     A
C194   O330    1.291   1_455 S
H197   N209    1.029   .     S
H198   N210    1.029   .     S
H200   O382    1.014   .     S
H204   C288    1.083   1_455 S
H206   C229    1.084   .     S
N209   Zn224   2.019   .     S
N209   N210    1.292   .     D
N210   Zn223   2.019   .     S
O211   Zn223   1.959   .     S
O211   C225    1.273   .     S
O212   H367    1.014   .     S
O212   C354    1.398   .     S
O215   Zn224   1.959   .     S
O215   C292    1.273   1_455 S
O216   Zn224   1.983   .     S
O217   Zn223   1.983   .     S
O218   Zn223   1.961   .     S
O218   C250    1.291   .     S
O219   Zn224   1.961   .     S
O219   C282    1.291   1_455 S
O220   Zn224   1.917   .     S
O221   Zn223   1.917   .     S
C225   C248    1.407   .     S
C225   O272    1.291   .     A
C226   C228    1.448   .     S
C226   O277    1.297   .     A
C226   O331    1.291   .     S
C227   C233    1.388   .     A
C227   C250    1.451   .     S
C228   C232    1.400   .     A
C228   C234    1.384   .     A
C229   C238    1.403   .     A
C230   C232    1.394   .     A
C230   H263    1.084   .     S
C230   C239    1.404   .     A
C231   H261    1.083   .     S
C231   C283    1.400   .     S
C231   C285    1.391   .     S
C232   H316    1.083   .     S
C233   C235    1.393   .     A
C233   H259    1.077   .     S
C234   H258    1.079   .     S
C234   C237    1.392   .     A
C235   C240    1.415   .     A
C235   C238    1.419   .     A
C236   C249    1.407   .     S
C236   O273    1.291   .     A
C236   O327    1.273   .     S
C237   C241    1.414   .     A
C237   C239    1.418   .     A
C238   C750    1.389   .     S
C239   C751    1.390   1_554 S
C240   C245    1.418   .     A
C240   C745    1.413   .     S
C241   C244    1.418   .     A
C241   C744    1.413   1_554 S
C242   O278    1.224   .     D
C243   O269    1.224   .     D
C243   C417    1.499   .     S
C243   O438    1.399   .     S
C244   H264    1.078   .     S
C244   C246    1.385   .     A
C245   H252    1.078   .     S
C245   C247    1.388   .     A
C246   H251    1.084   .     S
C246   C742    1.389   1_554 S
C247   H257    1.084   .     S
C247   C743    1.390   .     S
C248   C410    1.499   .     S
C248   C361    1.365   .     S
C250   O276    1.299   .     A
H253   N265    1.029   .     S
H254   N266    1.029   .     S
H256   O438    1.014   .     S
H262   C285    1.084   .     S
N265   Zn280   2.019   .     S
N265   N266    1.292   .     D
N266   Zn279   2.019   .     S
O267   Zn279   1.959   .     S
O267   C281    1.273   .     S
O268   H423    1.014   .     S
O268   C410    1.398   .     S
O271   Zn280   1.959   .     S
O272   Zn280   1.983   .     S
O273   Zn279   1.983   .     S
O274   Zn279   1.961   .     S
O274   C306    1.291   .     S
O275   Zn280   1.961   .     S
O276   Zn280   1.917   .     S
O277   Zn279   1.917   .     S
C281   C304    1.407   .     S
C281   O328    1.291   .     A
C282   C284    1.448   .     S
C282   O333    1.297   .     A
C282   O219    1.291   1_655 S
C283   C289    1.388   .     A
C283   C306    1.451   .     S
C284   C288    1.400   .     A
C284   C290    1.384   .     A
C285   C294    1.403   .     A
C286   C288    1.394   .     A
C286   H319    1.084   .     S
C286   C295    1.404   .     A
C287   H317    1.083   .     S
C287   C171    1.400   1_655 S
C287   C173    1.391   1_655 S
C288   H204    1.083   1_655 S
C289   C291    1.393   .     A
C289   H315    1.077   .     S
C290   H314    1.079   .     S
C290   C293    1.392   .     A
C291   C296    1.415   .     A
C291   C294    1.419   .     A
C292   C305    1.407   .     S
C292   O329    1.291   .     A
C292   O215    1.273   1_655 S
C293   C297    1.414   .     A
C293   C295    1.418   .     A
C294   C806    1.389   .     S
C295   C807    1.390   1_554 S
C296   C301    1.418   .     A
C296   C801    1.413   .     S
C297   C300    1.418   .     A
C297   C800    1.413   1_554 S
C298   O334    1.224   .     D
C299   O325    1.224   .     D
C299   C473    1.499   .     S
C299   O494    1.399   .     S
C300   H320    1.078   .     S
C300   C302    1.385   .     A
C301   H308    1.078   .     S
C301   C303    1.388   .     A
C302   H307    1.084   .     S
C302   C798    1.389   1_554 S
C303   H313    1.084   .     S
C303   C799    1.390   .     S
C304   C466    1.499   .     S
C304   C417    1.365   .     S
C305   C24     1.365   1_655 S
C306   O332    1.299   .     A
H309   N321    1.029   .     S
H310   N322    1.029   .     S
H312   O494    1.014   .     S
H318   C173    1.084   1_655 S
N321   Zn336   2.019   .     S
N321   N322    1.292   .     D
N322   Zn335   2.019   .     S
O323   Zn335   1.959   .     S
O323   C169    1.273   1_655 S
O324   H479    1.014   .     S
O324   C466    1.398   .     S
O327   Zn336   1.959   .     S
O328   Zn336   1.983   .     S
O329   Zn335   1.983   .     S
O330   Zn335   1.961   .     S
O330   C194    1.291   1_655 S
O331   Zn336   1.961   .     S
O332   Zn336   1.917   .     S
O333   Zn335   1.917   .     S
C337   C360    1.407   .     S
C337   O384    1.291   .     A
C337   O491    1.273   1_455 S
C338   C340    1.448   .     S
C338   O389    1.297   .     A
C338   O443    1.291   .     S
C339   C345    1.388   .     A
C339   C362    1.451   .     S
C339   C455    1.400   1_455 S
C340   C344    1.400   .     A
C340   C346    1.384   .     A
C341   C350    1.403   .     A
C341   C455    1.391   1_455 S
C341   H486    1.084   1_455 S
C342   C344    1.394   .     A
C342   H375    1.084   .     S
C342   C351    1.404   .     A
C343   H373    1.083   .     S
C343   C395    1.400   .     S
C343   C397    1.391   .     S
C344   H428    1.083   .     S
C345   C347    1.393   .     A
C345   H371    1.077   .     S
C346   H370    1.079   .     S
C346   C349    1.392   .     A
C347   C352    1.415   .     A
C347   C350    1.419   .     A
C348   C361    1.407   .     S
C348   O385    1.291   .     A
C348   O439    1.273   .     S
C349   C353    1.414   .     A
C349   C351    1.418   .     A
C350   C862    1.389   .     S
C351   C863    1.390   1_554 S
C352   C357    1.418   .     A
C352   C857    1.413   .     S
C353   C356    1.418   .     A
C353   C856    1.413   1_554 S
C354   O390    1.224   .     D
C355   O381    1.224   .     D
C355   C25     1.499   1_565 S
C355   O46     1.399   1_565 S
C356   H376    1.078   .     S
C356   C358    1.385   .     A
C357   H364    1.078   .     S
C357   C359    1.388   .     A
C358   H363    1.084   .     S
C358   C854    1.389   1_554 S
C359   H369    1.084   .     S
C359   C855    1.390   .     S
C360   C18     1.499   1_565 S
C360   C137    1.365   1_465 S
C362   O388    1.299   .     A
C362   O498    1.291   1_455 S
H365   N377    1.029   .     S
H366   N378    1.029   .     S
H368   O46     1.014   1_565 S
H372   C456    1.083   1_455 S
H374   C397    1.084   .     S
N377   Zn392   2.019   .     S
N377   N378    1.292   .     D
N378   Zn391   2.019   .     S
O379   Zn391   1.959   .     S
O379   C393    1.273   .     S
O380   H31     1.014   1_565 S
O380   C18     1.398   1_565 S
O383   Zn392   1.959   .     S
O383   C460    1.273   1_455 S
O384   Zn392   1.983   .     S
O385   Zn391   1.983   .     S
O386   Zn391   1.961   .     S
O386   C418    1.291   .     S
O387   Zn392   1.961   .     S
O387   C450    1.291   1_455 S
O388   Zn392   1.917   .     S
O389   Zn391   1.917   .     S
C393   C416    1.407   .     S
C393   O440    1.291   .     A
C394   C396    1.448   .     S
C394   O445    1.297   .     A
C394   O499    1.291   .     S
C395   C401    1.388   .     A
C395   C418    1.451   .     S
C396   C400    1.400   .     A
C396   C402    1.384   .     A
C397   C406    1.403   .     A
C398   C400    1.394   .     A
C398   H431    1.084   .     S
C398   C407    1.404   .     A
C399   H429    1.083   .     S
C399   C451    1.400   .     S
C399   C453    1.391   .     S
C400   H484    1.083   .     S
C401   C403    1.393   .     A
C401   H427    1.077   .     S
C402   H426    1.079   .     S
C402   C405    1.392   .     A
C403   C408    1.415   .     A
C403   C406    1.419   .     A
C404   C417    1.407   .     S
C404   O441    1.291   .     A
C404   O495    1.273   .     S
C405   C409    1.414   .     A
C405   C407    1.418   .     A
C406   C918    1.389   .     S
C407   C919    1.390   1_554 S
C408   C413    1.418   .     A
C408   C913    1.413   .     S
C409   C412    1.418   .     A
C409   C912    1.413   1_554 S
C410   O446    1.224   .     D
C411   O437    1.224   .     D
C411   C81     1.499   1_565 S
C411   O102    1.399   1_565 S
C412   H432    1.078   .     S
C412   C414    1.385   .     A
C413   H420    1.078   .     S
C413   C415    1.388   .     A
C414   H419    1.084   .     S
C414   C910    1.389   1_554 S
C415   H425    1.084   .     S
C415   C911    1.390   .     S
C416   C74     1.499   1_565 S
C416   C25     1.365   1_565 S
C418   O444    1.299   .     A
H421   N433    1.029   .     S
H422   N434    1.029   .     S
H424   O102    1.014   1_565 S
H430   C453    1.084   .     S
N433   Zn448   2.019   .     S
N433   N434    1.292   .     D
N434   Zn447   2.019   .     S
O435   Zn447   1.959   .     S
O435   C449    1.273   .     S
O436   H87     1.014   1_565 S
O436   C74     1.398   1_565 S
O439   Zn448   1.959   .     S
O440   Zn448   1.983   .     S
O441   Zn447   1.983   .     S
O442   Zn447   1.961   .     S
O442   C474    1.291   .     S
O443   Zn448   1.961   .     S
O444   Zn448   1.917   .     S
O445   Zn447   1.917   .     S
C449   C472    1.407   .     S
C449   O496    1.291   .     A
C450   C452    1.448   .     S
C450   O501    1.297   .     A
C450   O387    1.291   1_655 S
C451   C457    1.388   .     A
C451   C474    1.451   .     S
C452   C456    1.400   .     A
C452   C458    1.384   .     A
C453   C462    1.403   .     A
C454   C456    1.394   .     A
C454   H487    1.084   .     S
C454   C463    1.404   .     A
C455   H485    1.083   .     S
C455   C339    1.400   1_655 S
C455   C341    1.391   1_655 S
C456   H372    1.083   1_655 S
C457   C459    1.393   .     A
C457   H483    1.077   .     S
C458   H482    1.079   .     S
C458   C461    1.392   .     A
C459   C464    1.415   .     A
C459   C462    1.419   .     A
C460   C473    1.407   .     S
C460   O497    1.291   .     A
C460   O383    1.273   1_655 S
C461   C465    1.414   .     A
C461   C463    1.418   .     A
C462   C974    1.389   .     S
C463   C975    1.390   1_554 S
C464   C469    1.418   .     A
C464   C969    1.413   .     S
C465   C468    1.418   .     A
C465   C968    1.413   1_554 S
C466   O502    1.224   .     D
C467   O493    1.224   .     D
C467   C137    1.499   1_565 S
C467   O158    1.399   1_565 S
C468   H488    1.078   .     S
C468   C470    1.385   .     A
C469   H476    1.078   .     S
C469   C471    1.388   .     A
C470   H475    1.084   .     S
C470   C966    1.389   1_554 S
C471   H481    1.084   .     S
C471   C967    1.390   .     S
C472   C130    1.499   1_565 S
C472   C81     1.365   1_565 S
C473   C192    1.365   1_655 S
C474   O500    1.299   .     A
H477   N489    1.029   .     S
H478   N490    1.029   .     S
H480   O158    1.014   1_565 S
H486   C341    1.084   1_655 S
N489   Zn504   2.019   .     S
N489   N490    1.292   .     D
N490   Zn503   2.019   .     S
O491   Zn503   1.959   .     S
O491   C337    1.273   1_655 S
O492   H143    1.014   1_565 S
O492   C130    1.398   1_565 S
O495   Zn504   1.959   .     S
O496   Zn504   1.983   .     S
O497   Zn503   1.983   .     S
O498   Zn503   1.961   .     S
O498   C362    1.291   1_655 S
O499   Zn504   1.961   .     S
O500   Zn504   1.917   .     S
O501   Zn503   1.917   .     S
C505   C528    1.407   .     S
C505   O552    1.291   .     A
C505   O659    1.273   1_455 S
C506   C508    1.448   .     S
C506   O557    1.297   .     A
C506   O611    1.291   .     S
C507   C513    1.388   .     A
C507   C530    1.451   .     S
C507   C623    1.400   1_455 S
C508   C512    1.400   .     A
C508   C514    1.384   .     A
C509   C518    1.403   .     A
C509   C623    1.391   1_455 S
C509   H654    1.084   1_455 S
C510   C512    1.394   .     A
C510   H543    1.084   .     S
C510   C519    1.404   .     A
C511   H541    1.083   .     S
C511   C563    1.400   .     S
C511   C565    1.391   .     S
C512   H596    1.083   .     S
C513   C515    1.393   .     A
C513   H539    1.077   .     S
C514   H538    1.079   .     S
C514   C517    1.392   .     A
C515   C520    1.415   .     A
C515   C518    1.419   .     A
C516   C529    1.407   .     S
C516   O553    1.291   .     A
C516   O607    1.273   .     S
C517   C521    1.414   .     A
C517   C519    1.418   .     A
C518   C22     1.389   1_556 S
C520   C525    1.418   .     A
C520   C17     1.413   1_556 S
C521   C524    1.418   .     A
C522   O558    1.224   .     D
C522   C864    1.499   1_545 S
C522   O884    1.398   1_545 S
C523   O549    1.224   .     D
C523   C697    1.499   .     S
C523   O718    1.399   .     S
C524   H544    1.078   .     S
C524   C526    1.385   .     A
C525   H532    1.078   .     S
C525   C527    1.388   .     A
C526   H531    1.084   .     S
C527   H537    1.084   .     S
C527   C15     1.390   1_556 S
C528   C690    1.499   .     S
C528   C809    1.365   1_455 S
C529   C920    1.365   1_545 S
C529   C859    1.499   1_545 S
C530   O556    1.299   .     A
C530   O666    1.291   1_455 S
H533   N545    1.029   .     S
H534   N546    1.029   .     S
H535   O884    1.014   1_545 S
H536   O718    1.014   .     S
H540   C624    1.083   1_455 S
H542   C565    1.084   .     S
N545   Zn560   2.019   .     S
N545   N546    1.292   .     D
N546   Zn559   2.019   .     S
O547   Zn559   1.959   .     S
O547   C561    1.273   .     S
O548   H703    1.014   .     S
O548   C690    1.398   .     S
O550   H872    1.014   1_545 S
O550   C859    1.399   1_545 S
O551   Zn560   1.959   .     S
O551   C628    1.273   1_455 S
O552   Zn560   1.983   .     S
O553   Zn559   1.983   .     S
O554   Zn559   1.961   .     S
O554   C586    1.291   .     S
O555   Zn560   1.961   .     S
O555   C618    1.291   1_455 S
O556   Zn560   1.917   .     S
O557   Zn559   1.917   .     S
C561   C584    1.407   .     S
C561   O608    1.291   .     A
C562   C564    1.448   .     S
C562   O613    1.297   .     A
C562   O667    1.291   .     S
C563   C569    1.388   .     A
C563   C586    1.451   .     S
C564   C568    1.400   .     A
C564   C570    1.384   .     A
C565   C574    1.403   .     A
C566   C568    1.394   .     A
C566   H599    1.084   .     S
C566   C575    1.404   .     A
C567   H597    1.083   .     S
C567   C619    1.400   .     S
C567   C621    1.391   .     S
C568   H652    1.083   .     S
C569   C571    1.393   .     A
C569   H595    1.077   .     S
C570   H594    1.079   .     S
C570   C573    1.392   .     A
C571   C576    1.415   .     A
C571   C574    1.419   .     A
C572   C585    1.407   .     S
C572   O609    1.291   .     A
C572   O663    1.273   .     S
C573   C577    1.414   .     A
C573   C575    1.418   .     A
C574   C78     1.389   1_556 S
C576   C581    1.418   .     A
C576   C73     1.413   1_556 S
C577   C580    1.418   .     A
C578   O614    1.224   .     D
C578   C920    1.499   1_545 S
C578   O940    1.398   1_545 S
C579   O605    1.224   .     D
C579   C753    1.499   .     S
C579   O774    1.399   .     S
C580   H600    1.078   .     S
C580   C582    1.385   .     A
C581   H588    1.078   .     S
C581   C583    1.388   .     A
C582   H587    1.084   .     S
C583   H593    1.084   .     S
C583   C71     1.390   1_556 S
C584   C746    1.499   .     S
C584   C697    1.365   .     S
C585   C976    1.365   1_545 S
C585   C915    1.499   1_545 S
C586   O612    1.299   .     A
H589   N601    1.029   .     S
H590   N602    1.029   .     S
H591   O940    1.014   1_545 S
H592   O774    1.014   .     S
H598   C621    1.084   .     S
N601   Zn616   2.019   .     S
N601   N602    1.292   .     D
N602   Zn615   2.019   .     S
O603   Zn615   1.959   .     S
O603   C617    1.273   .     S
O604   H759    1.014   .     S
O604   C746    1.398   .     S
O606   H928    1.014   1_545 S
O606   C915    1.399   1_545 S
O607   Zn616   1.959   .     S
O608   Zn616   1.983   .     S
O609   Zn615   1.983   .     S
O610   Zn615   1.961   .     S
O610   C642    1.291   .     S
O611   Zn616   1.961   .     S
O612   Zn616   1.917   .     S
O613   Zn615   1.917   .     S
C617   C640    1.407   .     S
C617   O664    1.291   .     A
C618   C620    1.448   .     S
C618   O669    1.297   .     A
C618   O555    1.291   1_655 S
C619   C625    1.388   .     A
C619   C642    1.451   .     S
C620   C624    1.400   .     A
C620   C626    1.384   .     A
C621   C630    1.403   .     A
C622   C624    1.394   .     A
C622   H655    1.084   .     S
C622   C631    1.404   .     A
C623   H653    1.083   .     S
C623   C507    1.400   1_655 S
C623   C509    1.391   1_655 S
C624   H540    1.083   1_655 S
C625   C627    1.393   .     A
C625   H651    1.077   .     S
C626   H650    1.079   .     S
C626   C629    1.392   .     A
C627   C632    1.415   .     A
C627   C630    1.419   .     A
C628   C641    1.407   .     S
C628   O665    1.291   .     A
C628   O551    1.273   1_655 S
C629   C633    1.414   .     A
C629   C631    1.418   .     A
C630   C134    1.389   1_556 S
C632   C637    1.418   .     A
C632   C129    1.413   1_556 S
C633   C636    1.418   .     A
C634   O670    1.224   .     D
C634   C976    1.499   1_545 S
C634   O996    1.398   1_545 S
C635   O661    1.224   .     D
C635   C809    1.499   .     S
C635   O830    1.399   .     S
C636   H656    1.078   .     S
C636   C638    1.385   .     A
C637   H644    1.078   .     S
C637   C639    1.388   .     A
C638   H643    1.084   .     S
C639   H649    1.084   .     S
C639   C127    1.390   1_556 S
C640   C802    1.499   .     S
C640   C753    1.365   .     S
C641   C864    1.365   1_645 S
C641   C971    1.499   1_545 S
C642   O668    1.299   .     A
H645   N657    1.029   .     S
H646   N658    1.029   .     S
H647   O996    1.014   1_545 S
H648   O830    1.014   .     S
H654   C509    1.084   1_655 S
N657   Zn672   2.019   .     S
N657   N658    1.292   .     D
N658   Zn671   2.019   .     S
O659   Zn671   1.959   .     S
O659   C505    1.273   1_655 S
O660   H815    1.014   .     S
O660   C802    1.398   .     S
O662   H984    1.014   1_545 S
O662   C971    1.399   1_545 S
O663   Zn672   1.959   .     S
O664   Zn672   1.983   .     S
O665   Zn671   1.983   .     S
O666   Zn671   1.961   .     S
O666   C530    1.291   1_655 S
O667   Zn672   1.961   .     S
O668   Zn672   1.917   .     S
O669   Zn671   1.917   .     S
C673   C696    1.407   .     S
C673   O720    1.291   .     A
C673   O827    1.273   1_455 S
C674   C676    1.448   .     S
C674   O725    1.297   .     A
C674   O779    1.291   .     S
C675   C681    1.388   .     A
C675   C698    1.451   .     S
C675   C791    1.400   1_455 S
C676   C680    1.400   .     A
C676   C682    1.384   .     A
C677   C686    1.403   .     A
C677   C791    1.391   1_455 S
C677   H822    1.084   1_455 S
C678   C680    1.394   .     A
C678   H711    1.084   .     S
C678   C687    1.404   .     A
C679   H709    1.083   .     S
C679   C731    1.400   .     S
C679   C733    1.391   .     S
C680   H764    1.083   .     S
C681   C683    1.393   .     A
C681   H707    1.077   .     S
C682   H706    1.079   .     S
C682   C685    1.392   .     A
C683   C688    1.415   .     A
C683   C686    1.419   .     A
C684   C697    1.407   .     S
C684   O721    1.291   .     A
C684   O775    1.273   .     S
C685   C689    1.414   .     A
C685   C687    1.418   .     A
C686   C190    1.389   1_556 S
C688   C693    1.418   .     A
C688   C185    1.413   1_556 S
C689   C692    1.418   .     A
C690   O726    1.224   .     D
C691   O717    1.224   .     D
C691   C865    1.499   .     S
C691   O886    1.399   .     S
C692   H712    1.078   .     S
C692   C694    1.385   .     A
C693   H700    1.078   .     S
C693   C695    1.388   .     A
C694   H699    1.084   .     S
C695   H705    1.084   .     S
C695   C183    1.390   1_556 S
C696   C858    1.499   .     S
C696   C977    1.365   1_455 S
C698   O724    1.299   .     A
C698   O834    1.291   1_455 S
H701   N713    1.029   .     S
H702   N714    1.029   .     S
H704   O886    1.014   .     S
H708   C792    1.083   1_455 S
H710   C733    1.084   .     S
N713   Zn728   2.019   .     S
N713   N714    1.292   .     D
N714   Zn727   2.019   .     S
O715   Zn727   1.959   .     S
O715   C729    1.273   .     S
O716   H871    1.014   .     S
O716   C858    1.398   .     S
O719   Zn728   1.959   .     S
O719   C796    1.273   1_455 S
O720   Zn728   1.983   .     S
O721   Zn727   1.983   .     S
O722   Zn727   1.961   .     S
O722   C754    1.291   .     S
O723   Zn728   1.961   .     S
O723   C786    1.291   1_455 S
O724   Zn728   1.917   .     S
O725   Zn727   1.917   .     S
C729   C752    1.407   .     S
C729   O776    1.291   .     A
C730   C732    1.448   .     S
C730   O781    1.297   .     A
C730   O835    1.291   .     S
C731   C737    1.388   .     A
C731   C754    1.451   .     S
C732   C736    1.400   .     A
C732   C738    1.384   .     A
C733   C742    1.403   .     A
C734   C736    1.394   .     A
C734   H767    1.084   .     S
C734   C743    1.404   .     A
C735   H765    1.083   .     S
C735   C787    1.400   .     S
C735   C789    1.391   .     S
C736   H820    1.083   .     S
C737   C739    1.393   .     A
C737   H763    1.077   .     S
C738   H762    1.079   .     S
C738   C741    1.392   .     A
C739   C744    1.415   .     A
C739   C742    1.419   .     A
C740   C753    1.407   .     S
C740   O777    1.291   .     A
C740   O831    1.273   .     S
C741   C745    1.414   .     A
C741   C743    1.418   .     A
C742   C246    1.389   1_556 S
C744   C749    1.418   .     A
C744   C241    1.413   1_556 S
C745   C748    1.418   .     A
C746   O782    1.224   .     D
C747   O773    1.224   .     D
C747   C921    1.499   .     S
C747   O942    1.399   .     S
C748   H768    1.078   .     S
C748   C750    1.385   .     A
C749   H756    1.078   .     S
C749   C751    1.388   .     A
C750   H755    1.084   .     S
C751   H761    1.084   .     S
C751   C239    1.390   1_556 S
C752   C914    1.499   .     S
C752   C865    1.365   .     S
C754   O780    1.299   .     A
H757   N769    1.029   .     S
H758   N770    1.029   .     S
H760   O942    1.014   .     S
H766   C789    1.084   .     S
N769   Zn784   2.019   .     S
N769   N770    1.292   .     D
N770   Zn783   2.019   .     S
O771   Zn783   1.959   .     S
O771   C785    1.273   .     S
O772   H927    1.014   .     S
O772   C914    1.398   .     S
O775   Zn784   1.959   .     S
O776   Zn784   1.983   .     S
O777   Zn783   1.983   .     S
O778   Zn783   1.961   .     S
O778   C810    1.291   .     S
O779   Zn784   1.961   .     S
O780   Zn784   1.917   .     S
O781   Zn783   1.917   .     S
C785   C808    1.407   .     S
C785   O832    1.291   .     A
C786   C788    1.448   .     S
C786   O837    1.297   .     A
C786   O723    1.291   1_655 S
C787   C793    1.388   .     A
C787   C810    1.451   .     S
C788   C792    1.400   .     A
C788   C794    1.384   .     A
C789   C798    1.403   .     A
C790   C792    1.394   .     A
C790   H823    1.084   .     S
C790   C799    1.404   .     A
C791   H821    1.083   .     S
C791   C675    1.400   1_655 S
C791   C677    1.391   1_655 S
C792   H708    1.083   1_655 S
C793   C795    1.393   .     A
C793   H819    1.077   .     S
C794   H818    1.079   .     S
C794   C797    1.392   .     A
C795   C800    1.415   .     A
C795   C798    1.419   .     A
C796   C809    1.407   .     S
C796   O833    1.291   .     A
C796   O719    1.273   1_655 S
C797   C801    1.414   .     A
C797   C799    1.418   .     A
C798   C302    1.389   1_556 S
C800   C805    1.418   .     A
C800   C297    1.413   1_556 S
C801   C804    1.418   .     A
C802   O838    1.224   .     D
C803   O829    1.224   .     D
C803   C977    1.499   .     S
C803   O998    1.399   .     S
C804   H824    1.078   .     S
C804   C806    1.385   .     A
C805   H812    1.078   .     S
C805   C807    1.388   .     A
C806   H811    1.084   .     S
C807   H817    1.084   .     S
C807   C295    1.390   1_556 S
C808   C970    1.499   .     S
C808   C921    1.365   .     S
C809   C528    1.365   1_655 S
C810   O836    1.299   .     A
H813   N825    1.029   .     S
H814   N826    1.029   .     S
H816   O998    1.014   .     S
H822   C677    1.084   1_655 S
N825   Zn840   2.019   .     S
N825   N826    1.292   .     D
N826   Zn839   2.019   .     S
O827   Zn839   1.959   .     S
O827   C673    1.273   1_655 S
O828   H983    1.014   .     S
O828   C970    1.398   .     S
O831   Zn840   1.959   .     S
O832   Zn840   1.983   .     S
O833   Zn839   1.983   .     S
O834   Zn839   1.961   .     S
O834   C698    1.291   1_655 S
O835   Zn840   1.961   .     S
O836   Zn840   1.917   .     S
O837   Zn839   1.917   .     S
C841   C864    1.407   .     S
C841   O888    1.291   .     A
C841   O995    1.273   1_455 S
C842   C844    1.448   .     S
C842   O893    1.297   .     A
C842   O947    1.291   .     S
C843   C849    1.388   .     A
C843   C866    1.451   .     S
C843   C959    1.400   1_455 S
C844   C848    1.400   .     A
C844   C850    1.384   .     A
C845   C854    1.403   .     A
C845   C959    1.391   1_455 S
C845   H990    1.084   1_455 S
C846   C848    1.394   .     A
C846   H879    1.084   .     S
C846   C855    1.404   .     A
C847   H877    1.083   .     S
C847   C899    1.400   .     S
C847   C901    1.391   .     S
C848   H932    1.083   .     S
C849   C851    1.393   .     A
C849   H875    1.077   .     S
C850   H874    1.079   .     S
C850   C853    1.392   .     A
C851   C856    1.415   .     A
C851   C854    1.419   .     A
C852   C865    1.407   .     S
C852   O889    1.291   .     A
C852   O943    1.273   .     S
C853   C857    1.414   .     A
C853   C855    1.418   .     A
C854   C358    1.389   1_556 S
C856   C861    1.418   .     A
C856   C353    1.413   1_556 S
C857   C860    1.418   .     A
C858   O894    1.224   .     D
C859   O885    1.224   .     D
C859   C529    1.499   1_565 S
C859   O550    1.399   1_565 S
C860   H880    1.078   .     S
C860   C862    1.385   .     A
C861   H868    1.078   .     S
C861   C863    1.388   .     A
C862   H867    1.084   .     S
C863   H873    1.084   .     S
C863   C351    1.390   1_556 S
C864   C522    1.499   1_565 S
C864   C641    1.365   1_465 S
C866   O892    1.299   .     A
C866   O1002   1.291   1_455 S
H869   N881    1.029   .     S
H870   N882    1.029   .     S
H872   O550    1.014   1_565 S
H876   C960    1.083   1_455 S
H878   C901    1.084   .     S
N881   Zn896   2.019   .     S
N881   N882    1.292   .     D
N882   Zn895   2.019   .     S
O883   Zn895   1.959   .     S
O883   C897    1.273   .     S
O884   H535    1.014   1_565 S
O884   C522    1.398   1_565 S
O887   Zn896   1.959   .     S
O887   C964    1.273   1_455 S
O888   Zn896   1.983   .     S
O889   Zn895   1.983   .     S
O890   Zn895   1.961   .     S
O890   C922    1.291   .     S
O891   Zn896   1.961   .     S
O891   C954    1.291   1_455 S
O892   Zn896   1.917   .     S
O893   Zn895   1.917   .     S
C897   C920    1.407   .     S
C897   O944    1.291   .     A
C898   C900    1.448   .     S
C898   O949    1.297   .     A
C898   O1003   1.291   .     S
C899   C905    1.388   .     A
C899   C922    1.451   .     S
C900   C904    1.400   .     A
C900   C906    1.384   .     A
C901   C910    1.403   .     A
C902   C904    1.394   .     A
C902   H935    1.084   .     S
C902   C911    1.404   .     A
C903   H933    1.083   .     S
C903   C955    1.400   .     S
C903   C957    1.391   .     S
C904   H988    1.083   .     S
C905   C907    1.393   .     A
C905   H931    1.077   .     S
C906   H930    1.079   .     S
C906   C909    1.392   .     A
C907   C912    1.415   .     A
C907   C910    1.419   .     A
C908   C921    1.407   .     S
C908   O945    1.291   .     A
C908   O999    1.273   .     S
C909   C913    1.414   .     A
C909   C911    1.418   .     A
C910   C414    1.389   1_556 S
C912   C917    1.418   .     A
C912   C409    1.413   1_556 S
C913   C916    1.418   .     A
C914   O950    1.224   .     D
C915   O941    1.224   .     D
C915   C585    1.499   1_565 S
C915   O606    1.399   1_565 S
C916   H936    1.078   .     S
C916   C918    1.385   .     A
C917   H924    1.078   .     S
C917   C919    1.388   .     A
C918   H923    1.084   .     S
C919   H929    1.084   .     S
C919   C407    1.390   1_556 S
C920   C578    1.499   1_565 S
C920   C529    1.365   1_565 S
C922   O948    1.299   .     A
H925   N937    1.029   .     S
H926   N938    1.029   .     S
H928   O606    1.014   1_565 S
H934   C957    1.084   .     S
N937   Zn952   2.019   .     S
N937   N938    1.292   .     D
N938   Zn951   2.019   .     S
O939   Zn951   1.959   .     S
O939   C953    1.273   .     S
O940   H591    1.014   1_565 S
O940   C578    1.398   1_565 S
O943   Zn952   1.959   .     S
O944   Zn952   1.983   .     S
O945   Zn951   1.983   .     S
O946   Zn951   1.961   .     S
O946   C978    1.291   .     S
O947   Zn952   1.961   .     S
O948   Zn952   1.917   .     S
O949   Zn951   1.917   .     S
C953   C976    1.407   .     S
C953   O1000   1.291   .     A
C954   C956    1.448   .     S
C954   O1005   1.297   .     A
C954   O891    1.291   1_655 S
C955   C961    1.388   .     A
C955   C978    1.451   .     S
C956   C960    1.400   .     A
C956   C962    1.384   .     A
C957   C966    1.403   .     A
C958   C960    1.394   .     A
C958   H991    1.084   .     S
C958   C967    1.404   .     A
C959   H989    1.083   .     S
C959   C843    1.400   1_655 S
C959   C845    1.391   1_655 S
C960   H876    1.083   1_655 S
C961   C963    1.393   .     A
C961   H987    1.077   .     S
C962   H986    1.079   .     S
C962   C965    1.392   .     A
C963   C968    1.415   .     A
C963   C966    1.419   .     A
C964   C977    1.407   .     S
C964   O1001   1.291   .     A
C964   O887    1.273   1_655 S
C965   C969    1.414   .     A
C965   C967    1.418   .     A
C966   C470    1.389   1_556 S
C968   C973    1.418   .     A
C968   C465    1.413   1_556 S
C969   C972    1.418   .     A
C970   O1006   1.224   .     D
C971   O997    1.224   .     D
C971   C641    1.499   1_565 S
C971   O662    1.399   1_565 S
C972   H992    1.078   .     S
C972   C974    1.385   .     A
C973   H980    1.078   .     S
C973   C975    1.388   .     A
C974   H979    1.084   .     S
C975   H985    1.084   .     S
C975   C463    1.390   1_556 S
C976   C634    1.499   1_565 S
C976   C585    1.365   1_565 S
C977   C696    1.365   1_655 S
C978   O1004   1.299   .     A
H981   N993    1.029   .     S
H982   N994    1.029   .     S
H984   O662    1.014   1_565 S
H990   C845    1.084   1_655 S
N993   Zn1008  2.019   .     S
N993   N994    1.292   .     D
N994   Zn1007  2.019   .     S
O995   Zn1007  1.959   .     S
O995   C841    1.273   1_655 S
O996   H647    1.014   1_565 S
O996   C634    1.398   1_565 S
O999   Zn1008  1.959   .     S
O1000  Zn1008  1.983   .     S
O1001  Zn1007  1.983   .     S
O1002  Zn1007  1.961   .     S
O1002  C866    1.291   1_655 S
O1003  Zn1008  1.961   .     S
O1004  Zn1008  1.917   .     S
O1005  Zn1007  1.917   .     S
