data_str_m3_o1_o17_pcu_sym.27
_audit_creation_date              2020-01-03
_audit_creation_method            'Materials Studio'
_symmetry_space_group_name_H-M    'P1'
_symmetry_Int_Tables_number       1
_symmetry_cell_setting            triclinic
loop_
_symmetry_equiv_pos_as_xyz
  x,y,z
_cell_length_a                    31.8345
_cell_length_b                    30.0081
_cell_length_c                    30.0306
_cell_angle_alpha                 90.3876
_cell_angle_beta                  93.6850
_cell_angle_gamma                 90.0086
loop_
_atom_site_label
_atom_site_type_symbol
_atom_site_fract_x
_atom_site_fract_y
_atom_site_fract_z
_atom_site_U_iso_or_equiv
_atom_site_adp_type
_atom_site_occupancy
C1     C     0.08703   0.16667   0.24998   0.00000  Uiso   1.00
C2     C     0.04275   0.16668   0.24978   0.00000  Uiso   1.00
C3     C     0.19398   0.02406   0.27857   0.00000  Uiso   1.00
C4     C     0.13935   0.30927   0.22143   0.00000  Uiso   1.00
C5     C     0.13945   0.02372   0.22134   0.00000  Uiso   1.00
C6     C     0.19389   0.30961   0.27866   0.00000  Uiso   1.00
C7     C     0.16691   0.16645   0.16351   0.00000  Uiso   1.00
C8     C     0.16642   0.16688   0.33649   0.00000  Uiso   1.00
C9     C     0.17889   0.12921   0.40779   0.00000  Uiso   1.00
C10    C     0.15445   0.20413   0.09221   0.00000  Uiso   1.00
C11    C     0.16603   0.16740   0.38446   0.00000  Uiso   1.00
C12    C     0.24630   0.16667   0.25002   0.00000  Uiso   1.00
C13    C     0.16730   0.16594   0.11554   0.00000  Uiso   1.00
C14    C     0.15302   0.20566   0.40692   0.00000  Uiso   1.00
C15    C     0.18031   0.12767   0.09308   0.00000  Uiso   1.00
C16    C     0.15329   0.20582   0.45330   0.00000  Uiso   1.00
C17    C     0.18005   0.12752   0.04670   0.00000  Uiso   1.00
C18    C     0.16645   0.16697   0.47676   0.00000  Uiso   1.00
C19    C     0.16688   0.16636   0.02324   0.00000  Uiso   1.00
C20    C     0.17917   0.12867   0.45378   0.00000  Uiso   1.00
C21    C     0.15416   0.20467   0.04622   0.00000  Uiso   1.00
C22    C     0.14072   0.24375   0.47681   0.00000  Uiso   1.00
C23    C     0.14122   0.24300   0.02303   0.00000  Uiso   1.00
C24    C     0.19261   0.08958   0.02319   0.00000  Uiso   1.00
C25    C     0.04045   0.16642   0.16437   0.00000  Uiso   1.00
C26    C     0.29289   0.16691   0.33563   0.00000  Uiso   1.00
C27    C     0.28062   0.16619   0.16570   0.00000  Uiso   1.00
C28    C     0.05272   0.16715   0.33430   0.00000  Uiso   1.00
C29    C     0.22524   0.04783   0.31055   0.00000  Uiso   1.00
C30    C     0.10809   0.28551   0.18945   0.00000  Uiso   1.00
C31    C     0.10894   0.04717   0.18865   0.00000  Uiso   1.00
C32    C     0.22440   0.28616   0.31134   0.00000  Uiso   1.00
C33    C     0.19211   0.09033   0.47697   0.00000  Uiso   1.00
C34    C     0.01925   0.16653   0.20839   0.00000  Uiso   1.00
C35    C     0.31408   0.16680   0.29161   0.00000  Uiso   1.00
C36    C     0.30879   0.16650   0.20870   0.00000  Uiso   1.00
C37    C     0.02455   0.16684   0.29130   0.00000  Uiso   1.00
C38    C     0.29059   0.16666   0.25022   0.00000  Uiso   1.00
F39    F     0.13945   0.24221   0.38363   0.00000  Uiso   1.00
F40    F     0.19388   0.09112   0.11637   0.00000  Uiso   1.00
F41    F     0.12807   0.28168   0.45549   0.00000  Uiso   1.00
F42    F     0.20526   0.05166   0.04451   0.00000  Uiso   1.00
H43    H     0.18907   0.09988   0.39017   0.00000  Uiso   1.00
H44    H     0.30219   0.19729   0.35514   0.00000  Uiso   1.00
H45    H     0.26046   0.13597   0.16461   0.00000  Uiso   1.00
H46    H     0.26021   0.19622   0.16463   0.00000  Uiso   1.00
H47    H     0.29759   0.16607   0.13473   0.00000  Uiso   1.00
H48    H     0.07288   0.19737   0.33539   0.00000  Uiso   1.00
H49    H     0.03575   0.16727   0.36527   0.00000  Uiso   1.00
H50    H     0.07312   0.13712   0.33537   0.00000  Uiso   1.00
H51    H     0.22340   0.08388   0.30987   0.00000  Uiso   1.00
H52    H     0.22011   0.03830   0.34541   0.00000  Uiso   1.00
H53    H     0.25784   0.03914   0.30269   0.00000  Uiso   1.00
H54    H     0.14426   0.23345   0.10983   0.00000  Uiso   1.00
H55    H     0.10993   0.24946   0.19013   0.00000  Uiso   1.00
H56    H     0.07549   0.29420   0.19731   0.00000  Uiso   1.00
H57    H     0.11322   0.29503   0.15459   0.00000  Uiso   1.00
H58    H     0.11036   0.08324   0.19009   0.00000  Uiso   1.00
H59    H     0.11546   0.03787   0.15395   0.00000  Uiso   1.00
H60    H     0.07609   0.03812   0.19507   0.00000  Uiso   1.00
H61    H     0.22297   0.25010   0.30991   0.00000  Uiso   1.00
H62    H     0.25725   0.29521   0.30492   0.00000  Uiso   1.00
H63    H     0.21788   0.29546   0.34605   0.00000  Uiso   1.00
H64    H     0.13148   0.27247   0.04073   0.00000  Uiso   1.00
H65    H     0.20186   0.06086   0.45927   0.00000  Uiso   1.00
H66    H     0.07525   0.16652   0.16793   0.00000  Uiso   1.00
H67    H     0.03114   0.13604   0.14486   0.00000  Uiso   1.00
H68    H     0.03103   0.19662   0.14504   0.00000  Uiso   1.00
H69    H     0.25808   0.16680   0.33207   0.00000  Uiso   1.00
H70    H     0.30230   0.13671   0.35496   0.00000  Uiso   1.00
N71    N     0.16667   0.28573   0.25000   0.00000  Uiso   1.00
N72    N     0.16667   0.04760   0.25000   0.00000  Uiso   1.00
O73    O     0.10559   0.20487   0.25000   0.00000  Uiso   1.00
O74    O     0.22774   0.12846   0.25000   0.00000  Uiso   1.00
O75    O     0.22774   0.20487   0.25000   0.00000  Uiso   1.00
O76    O     0.10559   0.12846   0.25000   0.00000  Uiso   1.00
O77    O     0.16666   0.20489   0.18392   0.00000  Uiso   1.00
O78    O     0.16667   0.12844   0.31607   0.00000  Uiso   1.00
O79    O     0.16667   0.20489   0.31607   0.00000  Uiso   1.00
O80    O     0.16666   0.12844   0.18392   0.00000  Uiso   1.00
Zn81   Zn    0.16667   0.21771   0.25000   0.00000  Uiso   1.00
Zn82   Zn    0.16667   0.11563   0.25000   0.00000  Uiso   1.00
C83    C     0.42036   0.16667   0.24998   0.00000  Uiso   1.00
C84    C     0.37608   0.16668   0.24978   0.00000  Uiso   1.00
C85    C     0.52732   0.02406   0.27857   0.00000  Uiso   1.00
C86    C     0.47268   0.30927   0.22143   0.00000  Uiso   1.00
C87    C     0.47278   0.02372   0.22134   0.00000  Uiso   1.00
C88    C     0.52722   0.30961   0.27866   0.00000  Uiso   1.00
C89    C     0.50024   0.16645   0.16351   0.00000  Uiso   1.00
C90    C     0.49976   0.16688   0.33649   0.00000  Uiso   1.00
C91    C     0.51222   0.12921   0.40779   0.00000  Uiso   1.00
C92    C     0.48778   0.20413   0.09221   0.00000  Uiso   1.00
C93    C     0.49937   0.16740   0.38446   0.00000  Uiso   1.00
C94    C     0.57964   0.16667   0.25002   0.00000  Uiso   1.00
C95    C     0.50063   0.16594   0.11554   0.00000  Uiso   1.00
C96    C     0.48636   0.20566   0.40692   0.00000  Uiso   1.00
C97    C     0.51364   0.12767   0.09308   0.00000  Uiso   1.00
C98    C     0.48662   0.20582   0.45330   0.00000  Uiso   1.00
C99    C     0.51338   0.12752   0.04670   0.00000  Uiso   1.00
C100   C     0.49978   0.16697   0.47676   0.00000  Uiso   1.00
C101   C     0.50022   0.16636   0.02324   0.00000  Uiso   1.00
C102   C     0.51251   0.12867   0.45378   0.00000  Uiso   1.00
C103   C     0.48749   0.20467   0.04622   0.00000  Uiso   1.00
C104   C     0.47406   0.24375   0.47681   0.00000  Uiso   1.00
C105   C     0.47455   0.24300   0.02303   0.00000  Uiso   1.00
C106   C     0.52594   0.08958   0.02319   0.00000  Uiso   1.00
C107   C     0.37378   0.16642   0.16437   0.00000  Uiso   1.00
C108   C     0.62622   0.16691   0.33563   0.00000  Uiso   1.00
C109   C     0.61395   0.16619   0.16570   0.00000  Uiso   1.00
C110   C     0.38605   0.16715   0.33430   0.00000  Uiso   1.00
C111   C     0.55858   0.04783   0.31055   0.00000  Uiso   1.00
C112   C     0.44142   0.28551   0.18945   0.00000  Uiso   1.00
C113   C     0.44227   0.04717   0.18865   0.00000  Uiso   1.00
C114   C     0.55773   0.28616   0.31134   0.00000  Uiso   1.00
C115   C     0.52545   0.09033   0.47697   0.00000  Uiso   1.00
C116   C     0.35258   0.16653   0.20839   0.00000  Uiso   1.00
C117   C     0.64742   0.16680   0.29161   0.00000  Uiso   1.00
C118   C     0.64212   0.16650   0.20870   0.00000  Uiso   1.00
C119   C     0.35788   0.16684   0.29130   0.00000  Uiso   1.00
C120   C     0.62392   0.16666   0.25022   0.00000  Uiso   1.00
F121   F     0.47279   0.24221   0.38363   0.00000  Uiso   1.00
F122   F     0.52721   0.09112   0.11637   0.00000  Uiso   1.00
F123   F     0.46141   0.28168   0.45549   0.00000  Uiso   1.00
F124   F     0.53859   0.05166   0.04451   0.00000  Uiso   1.00
H125   H     0.52241   0.09988   0.39017   0.00000  Uiso   1.00
H126   H     0.63553   0.19729   0.35514   0.00000  Uiso   1.00
H127   H     0.59379   0.13597   0.16461   0.00000  Uiso   1.00
H128   H     0.59355   0.19622   0.16463   0.00000  Uiso   1.00
H129   H     0.63092   0.16607   0.13473   0.00000  Uiso   1.00
H130   H     0.40621   0.19737   0.33539   0.00000  Uiso   1.00
H131   H     0.36908   0.16727   0.36527   0.00000  Uiso   1.00
H132   H     0.40645   0.13712   0.33537   0.00000  Uiso   1.00
H133   H     0.55673   0.08388   0.30987   0.00000  Uiso   1.00
H134   H     0.55344   0.03830   0.34541   0.00000  Uiso   1.00
H135   H     0.59118   0.03914   0.30269   0.00000  Uiso   1.00
H136   H     0.47759   0.23345   0.10983   0.00000  Uiso   1.00
H137   H     0.44327   0.24946   0.19013   0.00000  Uiso   1.00
H138   H     0.40882   0.29420   0.19731   0.00000  Uiso   1.00
H139   H     0.44656   0.29503   0.15459   0.00000  Uiso   1.00
H140   H     0.44370   0.08324   0.19009   0.00000  Uiso   1.00
H141   H     0.44879   0.03787   0.15395   0.00000  Uiso   1.00
H142   H     0.40942   0.03812   0.19507   0.00000  Uiso   1.00
H143   H     0.55630   0.25010   0.30991   0.00000  Uiso   1.00
H144   H     0.59058   0.29521   0.30492   0.00000  Uiso   1.00
H145   H     0.55122   0.29546   0.34605   0.00000  Uiso   1.00
H146   H     0.46481   0.27247   0.04073   0.00000  Uiso   1.00
H147   H     0.53519   0.06086   0.45927   0.00000  Uiso   1.00
H148   H     0.40859   0.16652   0.16793   0.00000  Uiso   1.00
H149   H     0.36447   0.13604   0.14486   0.00000  Uiso   1.00
H150   H     0.36437   0.19662   0.14504   0.00000  Uiso   1.00
H151   H     0.59141   0.16680   0.33207   0.00000  Uiso   1.00
H152   H     0.63564   0.13671   0.35496   0.00000  Uiso   1.00
N153   N     0.50000   0.28573   0.25000   0.00000  Uiso   1.00
N154   N     0.50000   0.04760   0.25000   0.00000  Uiso   1.00
O155   O     0.43892   0.20487   0.25000   0.00000  Uiso   1.00
O156   O     0.56108   0.12846   0.25000   0.00000  Uiso   1.00
O157   O     0.56108   0.20487   0.25000   0.00000  Uiso   1.00
O158   O     0.43892   0.12846   0.25000   0.00000  Uiso   1.00
O159   O     0.49999   0.20489   0.18392   0.00000  Uiso   1.00
O160   O     0.50001   0.12844   0.31607   0.00000  Uiso   1.00
O161   O     0.50001   0.20489   0.31607   0.00000  Uiso   1.00
O162   O     0.49999   0.12844   0.18392   0.00000  Uiso   1.00
Zn163  Zn    0.50000   0.21771   0.25000   0.00000  Uiso   1.00
Zn164  Zn    0.50000   0.11563   0.25000   0.00000  Uiso   1.00
C165   C     0.75370   0.16667   0.24998   0.00000  Uiso   1.00
C166   C     0.70941   0.16668   0.24978   0.00000  Uiso   1.00
C167   C     0.86065   0.02406   0.27857   0.00000  Uiso   1.00
C168   C     0.80602   0.30927   0.22143   0.00000  Uiso   1.00
C169   C     0.80611   0.02372   0.22134   0.00000  Uiso   1.00
C170   C     0.86055   0.30961   0.27866   0.00000  Uiso   1.00
C171   C     0.83358   0.16645   0.16351   0.00000  Uiso   1.00
C172   C     0.83309   0.16688   0.33649   0.00000  Uiso   1.00
C173   C     0.84555   0.12921   0.40779   0.00000  Uiso   1.00
C174   C     0.82111   0.20413   0.09221   0.00000  Uiso   1.00
C175   C     0.83270   0.16740   0.38446   0.00000  Uiso   1.00
C176   C     0.91297   0.16667   0.25002   0.00000  Uiso   1.00
C177   C     0.83397   0.16594   0.11554   0.00000  Uiso   1.00
C178   C     0.81969   0.20566   0.40692   0.00000  Uiso   1.00
C179   C     0.84698   0.12767   0.09308   0.00000  Uiso   1.00
C180   C     0.81995   0.20582   0.45330   0.00000  Uiso   1.00
C181   C     0.84671   0.12752   0.04670   0.00000  Uiso   1.00
C182   C     0.83312   0.16697   0.47676   0.00000  Uiso   1.00
C183   C     0.83355   0.16636   0.02324   0.00000  Uiso   1.00
C184   C     0.84584   0.12867   0.45378   0.00000  Uiso   1.00
C185   C     0.82083   0.20467   0.04622   0.00000  Uiso   1.00
C186   C     0.80739   0.24375   0.47681   0.00000  Uiso   1.00
C187   C     0.80789   0.24300   0.02303   0.00000  Uiso   1.00
C188   C     0.85928   0.08958   0.02319   0.00000  Uiso   1.00
C189   C     0.70711   0.16642   0.16437   0.00000  Uiso   1.00
C190   C     0.95955   0.16691   0.33563   0.00000  Uiso   1.00
C191   C     0.94728   0.16619   0.16570   0.00000  Uiso   1.00
C192   C     0.71938   0.16715   0.33430   0.00000  Uiso   1.00
C193   C     0.89191   0.04783   0.31055   0.00000  Uiso   1.00
C194   C     0.77476   0.28551   0.18945   0.00000  Uiso   1.00
C195   C     0.77560   0.04717   0.18865   0.00000  Uiso   1.00
C196   C     0.89106   0.28616   0.31134   0.00000  Uiso   1.00
C197   C     0.85878   0.09033   0.47697   0.00000  Uiso   1.00
C198   C     0.68591   0.16653   0.20839   0.00000  Uiso   1.00
C199   C     0.98075   0.16680   0.29161   0.00000  Uiso   1.00
C200   C     0.97545   0.16650   0.20870   0.00000  Uiso   1.00
C201   C     0.69121   0.16684   0.29130   0.00000  Uiso   1.00
C202   C     0.95725   0.16666   0.25022   0.00000  Uiso   1.00
F203   F     0.80612   0.24221   0.38363   0.00000  Uiso   1.00
F204   F     0.86055   0.09112   0.11637   0.00000  Uiso   1.00
F205   F     0.79474   0.28168   0.45549   0.00000  Uiso   1.00
F206   F     0.87193   0.05166   0.04451   0.00000  Uiso   1.00
H207   H     0.85574   0.09988   0.39017   0.00000  Uiso   1.00
H208   H     0.96886   0.19729   0.35514   0.00000  Uiso   1.00
H209   H     0.92712   0.13597   0.16461   0.00000  Uiso   1.00
H210   H     0.92688   0.19622   0.16463   0.00000  Uiso   1.00
H211   H     0.96425   0.16607   0.13473   0.00000  Uiso   1.00
H212   H     0.73955   0.19737   0.33539   0.00000  Uiso   1.00
H213   H     0.70241   0.16727   0.36527   0.00000  Uiso   1.00
H214   H     0.73978   0.13712   0.33537   0.00000  Uiso   1.00
H215   H     0.89007   0.08388   0.30987   0.00000  Uiso   1.00
H216   H     0.88678   0.03830   0.34541   0.00000  Uiso   1.00
H217   H     0.92451   0.03914   0.30269   0.00000  Uiso   1.00
H218   H     0.81093   0.23345   0.10983   0.00000  Uiso   1.00
H219   H     0.77660   0.24946   0.19013   0.00000  Uiso   1.00
H220   H     0.74216   0.29420   0.19731   0.00000  Uiso   1.00
H221   H     0.77989   0.29503   0.15459   0.00000  Uiso   1.00
H222   H     0.77703   0.08324   0.19009   0.00000  Uiso   1.00
H223   H     0.78212   0.03787   0.15395   0.00000  Uiso   1.00
H224   H     0.74275   0.03812   0.19507   0.00000  Uiso   1.00
H225   H     0.88964   0.25010   0.30991   0.00000  Uiso   1.00
H226   H     0.92392   0.29521   0.30492   0.00000  Uiso   1.00
H227   H     0.88455   0.29546   0.34605   0.00000  Uiso   1.00
H228   H     0.79814   0.27247   0.04073   0.00000  Uiso   1.00
H229   H     0.86852   0.06086   0.45927   0.00000  Uiso   1.00
H230   H     0.74192   0.16652   0.16793   0.00000  Uiso   1.00
H231   H     0.69780   0.13604   0.14486   0.00000  Uiso   1.00
H232   H     0.69770   0.19662   0.14504   0.00000  Uiso   1.00
H233   H     0.92475   0.16680   0.33207   0.00000  Uiso   1.00
H234   H     0.96897   0.13671   0.35496   0.00000  Uiso   1.00
N235   N     0.83333   0.28573   0.25000   0.00000  Uiso   1.00
N236   N     0.83333   0.04760   0.25000   0.00000  Uiso   1.00
O237   O     0.77226   0.20487   0.25000   0.00000  Uiso   1.00
O238   O     0.89441   0.12846   0.25000   0.00000  Uiso   1.00
O239   O     0.89441   0.20487   0.25000   0.00000  Uiso   1.00
O240   O     0.77226   0.12846   0.25000   0.00000  Uiso   1.00
O241   O     0.83333   0.20489   0.18392   0.00000  Uiso   1.00
O242   O     0.83334   0.12844   0.31607   0.00000  Uiso   1.00
O243   O     0.83334   0.20489   0.31607   0.00000  Uiso   1.00
O244   O     0.83333   0.12844   0.18392   0.00000  Uiso   1.00
Zn245  Zn    0.83333   0.21771   0.25000   0.00000  Uiso   1.00
Zn246  Zn    0.83333   0.11563   0.25000   0.00000  Uiso   1.00
C247   C     0.08703   0.50000   0.24998   0.00000  Uiso   1.00
C248   C     0.04275   0.50001   0.24978   0.00000  Uiso   1.00
C249   C     0.19398   0.35740   0.27857   0.00000  Uiso   1.00
C250   C     0.13935   0.64260   0.22143   0.00000  Uiso   1.00
C251   C     0.13945   0.35706   0.22134   0.00000  Uiso   1.00
C252   C     0.19389   0.64294   0.27866   0.00000  Uiso   1.00
C253   C     0.16691   0.49978   0.16351   0.00000  Uiso   1.00
C254   C     0.16642   0.50021   0.33649   0.00000  Uiso   1.00
C255   C     0.17889   0.46254   0.40779   0.00000  Uiso   1.00
C256   C     0.15445   0.53746   0.09221   0.00000  Uiso   1.00
C257   C     0.16603   0.50073   0.38446   0.00000  Uiso   1.00
C258   C     0.24630   0.50000   0.25002   0.00000  Uiso   1.00
C259   C     0.16730   0.49927   0.11554   0.00000  Uiso   1.00
C260   C     0.15302   0.53899   0.40692   0.00000  Uiso   1.00
C261   C     0.18031   0.46101   0.09308   0.00000  Uiso   1.00
C262   C     0.15329   0.53915   0.45330   0.00000  Uiso   1.00
C263   C     0.18005   0.46085   0.04670   0.00000  Uiso   1.00
C264   C     0.16645   0.50031   0.47676   0.00000  Uiso   1.00
C265   C     0.16688   0.49969   0.02324   0.00000  Uiso   1.00
C266   C     0.17917   0.46200   0.45378   0.00000  Uiso   1.00
C267   C     0.15416   0.53800   0.04622   0.00000  Uiso   1.00
C268   C     0.14072   0.57709   0.47681   0.00000  Uiso   1.00
C269   C     0.14122   0.57633   0.02303   0.00000  Uiso   1.00
C270   C     0.19261   0.42291   0.02319   0.00000  Uiso   1.00
C271   C     0.04045   0.49976   0.16437   0.00000  Uiso   1.00
C272   C     0.29289   0.50024   0.33563   0.00000  Uiso   1.00
C273   C     0.28062   0.49952   0.16570   0.00000  Uiso   1.00
C274   C     0.05272   0.50048   0.33430   0.00000  Uiso   1.00
C275   C     0.22524   0.38116   0.31055   0.00000  Uiso   1.00
C276   C     0.10809   0.61884   0.18945   0.00000  Uiso   1.00
C277   C     0.10894   0.38051   0.18865   0.00000  Uiso   1.00
C278   C     0.22440   0.61949   0.31134   0.00000  Uiso   1.00
C279   C     0.19211   0.42367   0.47697   0.00000  Uiso   1.00
C280   C     0.01925   0.49987   0.20839   0.00000  Uiso   1.00
C281   C     0.31408   0.50013   0.29161   0.00000  Uiso   1.00
C282   C     0.30879   0.49983   0.20870   0.00000  Uiso   1.00
C283   C     0.02455   0.50017   0.29130   0.00000  Uiso   1.00
C284   C     0.29059   0.49999   0.25022   0.00000  Uiso   1.00
F285   F     0.13945   0.57554   0.38363   0.00000  Uiso   1.00
F286   F     0.19388   0.42446   0.11637   0.00000  Uiso   1.00
F287   F     0.12807   0.61501   0.45549   0.00000  Uiso   1.00
F288   F     0.20526   0.38499   0.04451   0.00000  Uiso   1.00
H289   H     0.18907   0.43322   0.39017   0.00000  Uiso   1.00
H290   H     0.30219   0.53062   0.35514   0.00000  Uiso   1.00
H291   H     0.26046   0.46930   0.16461   0.00000  Uiso   1.00
H292   H     0.26021   0.52955   0.16463   0.00000  Uiso   1.00
H293   H     0.29759   0.49941   0.13473   0.00000  Uiso   1.00
H294   H     0.07288   0.53070   0.33539   0.00000  Uiso   1.00
H295   H     0.03575   0.50061   0.36527   0.00000  Uiso   1.00
H296   H     0.07312   0.47045   0.33537   0.00000  Uiso   1.00
H297   H     0.22340   0.41721   0.30987   0.00000  Uiso   1.00
H298   H     0.22011   0.37164   0.34541   0.00000  Uiso   1.00
H299   H     0.25784   0.37247   0.30269   0.00000  Uiso   1.00
H300   H     0.14426   0.56678   0.10983   0.00000  Uiso   1.00
H301   H     0.10993   0.58279   0.19013   0.00000  Uiso   1.00
H302   H     0.07549   0.62753   0.19731   0.00000  Uiso   1.00
H303   H     0.11322   0.62836   0.15459   0.00000  Uiso   1.00
H304   H     0.11036   0.41657   0.19009   0.00000  Uiso   1.00
H305   H     0.11546   0.37121   0.15395   0.00000  Uiso   1.00
H306   H     0.07609   0.37146   0.19507   0.00000  Uiso   1.00
H307   H     0.22297   0.58343   0.30991   0.00000  Uiso   1.00
H308   H     0.25725   0.62854   0.30492   0.00000  Uiso   1.00
H309   H     0.21788   0.62879   0.34605   0.00000  Uiso   1.00
H310   H     0.13148   0.60580   0.04073   0.00000  Uiso   1.00
H311   H     0.20186   0.39420   0.45927   0.00000  Uiso   1.00
H312   H     0.07525   0.49986   0.16793   0.00000  Uiso   1.00
H313   H     0.03114   0.46938   0.14486   0.00000  Uiso   1.00
H314   H     0.03103   0.52996   0.14504   0.00000  Uiso   1.00
H315   H     0.25808   0.50013   0.33207   0.00000  Uiso   1.00
H316   H     0.30230   0.47004   0.35496   0.00000  Uiso   1.00
N317   N     0.16667   0.61907   0.25000   0.00000  Uiso   1.00
N318   N     0.16667   0.38093   0.25000   0.00000  Uiso   1.00
O319   O     0.10559   0.53821   0.25000   0.00000  Uiso   1.00
O320   O     0.22774   0.46179   0.25000   0.00000  Uiso   1.00
O321   O     0.22774   0.53821   0.25000   0.00000  Uiso   1.00
O322   O     0.10559   0.46179   0.25000   0.00000  Uiso   1.00
O323   O     0.16666   0.53823   0.18392   0.00000  Uiso   1.00
O324   O     0.16667   0.46177   0.31607   0.00000  Uiso   1.00
O325   O     0.16667   0.53823   0.31607   0.00000  Uiso   1.00
O326   O     0.16666   0.46177   0.18392   0.00000  Uiso   1.00
Zn327  Zn    0.16667   0.55104   0.25000   0.00000  Uiso   1.00
Zn328  Zn    0.16667   0.44896   0.25000   0.00000  Uiso   1.00
C329   C     0.42036   0.50000   0.24998   0.00000  Uiso   1.00
C330   C     0.37608   0.50001   0.24978   0.00000  Uiso   1.00
C331   C     0.52732   0.35740   0.27857   0.00000  Uiso   1.00
C332   C     0.47268   0.64260   0.22143   0.00000  Uiso   1.00
C333   C     0.47278   0.35706   0.22134   0.00000  Uiso   1.00
C334   C     0.52722   0.64294   0.27866   0.00000  Uiso   1.00
C335   C     0.50024   0.49978   0.16351   0.00000  Uiso   1.00
C336   C     0.49976   0.50021   0.33649   0.00000  Uiso   1.00
C337   C     0.51222   0.46254   0.40779   0.00000  Uiso   1.00
C338   C     0.48778   0.53746   0.09221   0.00000  Uiso   1.00
C339   C     0.49937   0.50073   0.38446   0.00000  Uiso   1.00
C340   C     0.57964   0.50000   0.25002   0.00000  Uiso   1.00
C341   C     0.50063   0.49927   0.11554   0.00000  Uiso   1.00
C342   C     0.48636   0.53899   0.40692   0.00000  Uiso   1.00
C343   C     0.51364   0.46101   0.09308   0.00000  Uiso   1.00
C344   C     0.48662   0.53915   0.45330   0.00000  Uiso   1.00
C345   C     0.51338   0.46085   0.04670   0.00000  Uiso   1.00
C346   C     0.49978   0.50031   0.47676   0.00000  Uiso   1.00
C347   C     0.50022   0.49969   0.02324   0.00000  Uiso   1.00
C348   C     0.51251   0.46200   0.45378   0.00000  Uiso   1.00
C349   C     0.48749   0.53800   0.04622   0.00000  Uiso   1.00
C350   C     0.47406   0.57709   0.47681   0.00000  Uiso   1.00
C351   C     0.47455   0.57633   0.02303   0.00000  Uiso   1.00
C352   C     0.52594   0.42291   0.02319   0.00000  Uiso   1.00
C353   C     0.37378   0.49976   0.16437   0.00000  Uiso   1.00
C354   C     0.62622   0.50024   0.33563   0.00000  Uiso   1.00
C355   C     0.61395   0.49952   0.16570   0.00000  Uiso   1.00
C356   C     0.38605   0.50048   0.33430   0.00000  Uiso   1.00
C357   C     0.55858   0.38116   0.31055   0.00000  Uiso   1.00
C358   C     0.44142   0.61884   0.18945   0.00000  Uiso   1.00
C359   C     0.44227   0.38051   0.18865   0.00000  Uiso   1.00
C360   C     0.55773   0.61949   0.31134   0.00000  Uiso   1.00
C361   C     0.52545   0.42367   0.47697   0.00000  Uiso   1.00
C362   C     0.35258   0.49987   0.20839   0.00000  Uiso   1.00
C363   C     0.64742   0.50013   0.29161   0.00000  Uiso   1.00
C364   C     0.64212   0.49983   0.20870   0.00000  Uiso   1.00
C365   C     0.35788   0.50017   0.29130   0.00000  Uiso   1.00
C366   C     0.62392   0.49999   0.25022   0.00000  Uiso   1.00
F367   F     0.47279   0.57554   0.38363   0.00000  Uiso   1.00
F368   F     0.52721   0.42446   0.11637   0.00000  Uiso   1.00
F369   F     0.46141   0.61501   0.45549   0.00000  Uiso   1.00
F370   F     0.53859   0.38499   0.04451   0.00000  Uiso   1.00
H371   H     0.52241   0.43322   0.39017   0.00000  Uiso   1.00
H372   H     0.63553   0.53062   0.35514   0.00000  Uiso   1.00
H373   H     0.59379   0.46930   0.16461   0.00000  Uiso   1.00
H374   H     0.59355   0.52955   0.16463   0.00000  Uiso   1.00
H375   H     0.63092   0.49941   0.13473   0.00000  Uiso   1.00
H376   H     0.40621   0.53070   0.33539   0.00000  Uiso   1.00
H377   H     0.36908   0.50061   0.36527   0.00000  Uiso   1.00
H378   H     0.40645   0.47045   0.33537   0.00000  Uiso   1.00
H379   H     0.55673   0.41721   0.30987   0.00000  Uiso   1.00
H380   H     0.55344   0.37164   0.34541   0.00000  Uiso   1.00
H381   H     0.59118   0.37247   0.30269   0.00000  Uiso   1.00
H382   H     0.47759   0.56678   0.10983   0.00000  Uiso   1.00
H383   H     0.44327   0.58279   0.19013   0.00000  Uiso   1.00
H384   H     0.40882   0.62753   0.19731   0.00000  Uiso   1.00
H385   H     0.44656   0.62836   0.15459   0.00000  Uiso   1.00
H386   H     0.44370   0.41657   0.19009   0.00000  Uiso   1.00
H387   H     0.44879   0.37121   0.15395   0.00000  Uiso   1.00
H388   H     0.40942   0.37146   0.19507   0.00000  Uiso   1.00
H389   H     0.55630   0.58343   0.30991   0.00000  Uiso   1.00
H390   H     0.59058   0.62854   0.30492   0.00000  Uiso   1.00
H391   H     0.55122   0.62879   0.34605   0.00000  Uiso   1.00
H392   H     0.46481   0.60580   0.04073   0.00000  Uiso   1.00
H393   H     0.53519   0.39420   0.45927   0.00000  Uiso   1.00
H394   H     0.40859   0.49986   0.16793   0.00000  Uiso   1.00
H395   H     0.36447   0.46938   0.14486   0.00000  Uiso   1.00
H396   H     0.36437   0.52996   0.14504   0.00000  Uiso   1.00
H397   H     0.59141   0.50013   0.33207   0.00000  Uiso   1.00
H398   H     0.63564   0.47004   0.35496   0.00000  Uiso   1.00
N399   N     0.50000   0.61907   0.25000   0.00000  Uiso   1.00
N400   N     0.50000   0.38093   0.25000   0.00000  Uiso   1.00
O401   O     0.43892   0.53821   0.25000   0.00000  Uiso   1.00
O402   O     0.56108   0.46179   0.25000   0.00000  Uiso   1.00
O403   O     0.56108   0.53821   0.25000   0.00000  Uiso   1.00
O404   O     0.43892   0.46179   0.25000   0.00000  Uiso   1.00
O405   O     0.49999   0.53823   0.18392   0.00000  Uiso   1.00
O406   O     0.50001   0.46177   0.31607   0.00000  Uiso   1.00
O407   O     0.50001   0.53823   0.31607   0.00000  Uiso   1.00
O408   O     0.49999   0.46177   0.18392   0.00000  Uiso   1.00
Zn409  Zn    0.50000   0.55104   0.25000   0.00000  Uiso   1.00
Zn410  Zn    0.50000   0.44896   0.25000   0.00000  Uiso   1.00
C411   C     0.75370   0.50000   0.24998   0.00000  Uiso   1.00
C412   C     0.70941   0.50001   0.24978   0.00000  Uiso   1.00
C413   C     0.86065   0.35740   0.27857   0.00000  Uiso   1.00
C414   C     0.80602   0.64260   0.22143   0.00000  Uiso   1.00
C415   C     0.80611   0.35706   0.22134   0.00000  Uiso   1.00
C416   C     0.86055   0.64294   0.27866   0.00000  Uiso   1.00
C417   C     0.83358   0.49978   0.16351   0.00000  Uiso   1.00
C418   C     0.83309   0.50021   0.33649   0.00000  Uiso   1.00
C419   C     0.84555   0.46254   0.40779   0.00000  Uiso   1.00
C420   C     0.82111   0.53746   0.09221   0.00000  Uiso   1.00
C421   C     0.83270   0.50073   0.38446   0.00000  Uiso   1.00
C422   C     0.91297   0.50000   0.25002   0.00000  Uiso   1.00
C423   C     0.83397   0.49927   0.11554   0.00000  Uiso   1.00
C424   C     0.81969   0.53899   0.40692   0.00000  Uiso   1.00
C425   C     0.84698   0.46101   0.09308   0.00000  Uiso   1.00
C426   C     0.81995   0.53915   0.45330   0.00000  Uiso   1.00
C427   C     0.84671   0.46085   0.04670   0.00000  Uiso   1.00
C428   C     0.83312   0.50031   0.47676   0.00000  Uiso   1.00
C429   C     0.83355   0.49969   0.02324   0.00000  Uiso   1.00
C430   C     0.84584   0.46200   0.45378   0.00000  Uiso   1.00
C431   C     0.82083   0.53800   0.04622   0.00000  Uiso   1.00
C432   C     0.80739   0.57709   0.47681   0.00000  Uiso   1.00
C433   C     0.80789   0.57633   0.02303   0.00000  Uiso   1.00
C434   C     0.85928   0.42291   0.02319   0.00000  Uiso   1.00
C435   C     0.70711   0.49976   0.16437   0.00000  Uiso   1.00
C436   C     0.95955   0.50024   0.33563   0.00000  Uiso   1.00
C437   C     0.94728   0.49952   0.16570   0.00000  Uiso   1.00
C438   C     0.71938   0.50048   0.33430   0.00000  Uiso   1.00
C439   C     0.89191   0.38116   0.31055   0.00000  Uiso   1.00
C440   C     0.77476   0.61884   0.18945   0.00000  Uiso   1.00
C441   C     0.77560   0.38051   0.18865   0.00000  Uiso   1.00
C442   C     0.89106   0.61949   0.31134   0.00000  Uiso   1.00
C443   C     0.85878   0.42367   0.47697   0.00000  Uiso   1.00
C444   C     0.68591   0.49987   0.20839   0.00000  Uiso   1.00
C445   C     0.98075   0.50013   0.29161   0.00000  Uiso   1.00
C446   C     0.97545   0.49983   0.20870   0.00000  Uiso   1.00
C447   C     0.69121   0.50017   0.29130   0.00000  Uiso   1.00
C448   C     0.95725   0.49999   0.25022   0.00000  Uiso   1.00
F449   F     0.80612   0.57554   0.38363   0.00000  Uiso   1.00
F450   F     0.86055   0.42446   0.11637   0.00000  Uiso   1.00
F451   F     0.79474   0.61501   0.45549   0.00000  Uiso   1.00
F452   F     0.87193   0.38499   0.04451   0.00000  Uiso   1.00
H453   H     0.85574   0.43322   0.39017   0.00000  Uiso   1.00
H454   H     0.96886   0.53062   0.35514   0.00000  Uiso   1.00
H455   H     0.92712   0.46930   0.16461   0.00000  Uiso   1.00
H456   H     0.92688   0.52955   0.16463   0.00000  Uiso   1.00
H457   H     0.96425   0.49941   0.13473   0.00000  Uiso   1.00
H458   H     0.73955   0.53070   0.33539   0.00000  Uiso   1.00
H459   H     0.70241   0.50061   0.36527   0.00000  Uiso   1.00
H460   H     0.73978   0.47045   0.33537   0.00000  Uiso   1.00
H461   H     0.89007   0.41721   0.30987   0.00000  Uiso   1.00
H462   H     0.88678   0.37164   0.34541   0.00000  Uiso   1.00
H463   H     0.92451   0.37247   0.30269   0.00000  Uiso   1.00
H464   H     0.81093   0.56678   0.10983   0.00000  Uiso   1.00
H465   H     0.77660   0.58279   0.19013   0.00000  Uiso   1.00
H466   H     0.74216   0.62753   0.19731   0.00000  Uiso   1.00
H467   H     0.77989   0.62836   0.15459   0.00000  Uiso   1.00
H468   H     0.77703   0.41657   0.19009   0.00000  Uiso   1.00
H469   H     0.78212   0.37121   0.15395   0.00000  Uiso   1.00
H470   H     0.74275   0.37146   0.19507   0.00000  Uiso   1.00
H471   H     0.88964   0.58343   0.30991   0.00000  Uiso   1.00
H472   H     0.92392   0.62854   0.30492   0.00000  Uiso   1.00
H473   H     0.88455   0.62879   0.34605   0.00000  Uiso   1.00
H474   H     0.79814   0.60580   0.04073   0.00000  Uiso   1.00
H475   H     0.86852   0.39420   0.45927   0.00000  Uiso   1.00
H476   H     0.74192   0.49986   0.16793   0.00000  Uiso   1.00
H477   H     0.69780   0.46938   0.14486   0.00000  Uiso   1.00
H478   H     0.69770   0.52996   0.14504   0.00000  Uiso   1.00
H479   H     0.92475   0.50013   0.33207   0.00000  Uiso   1.00
H480   H     0.96897   0.47004   0.35496   0.00000  Uiso   1.00
N481   N     0.83333   0.61907   0.25000   0.00000  Uiso   1.00
N482   N     0.83333   0.38093   0.25000   0.00000  Uiso   1.00
O483   O     0.77226   0.53821   0.25000   0.00000  Uiso   1.00
O484   O     0.89441   0.46179   0.25000   0.00000  Uiso   1.00
O485   O     0.89441   0.53821   0.25000   0.00000  Uiso   1.00
O486   O     0.77226   0.46179   0.25000   0.00000  Uiso   1.00
O487   O     0.83333   0.53823   0.18392   0.00000  Uiso   1.00
O488   O     0.83334   0.46177   0.31607   0.00000  Uiso   1.00
O489   O     0.83334   0.53823   0.31607   0.00000  Uiso   1.00
O490   O     0.83333   0.46177   0.18392   0.00000  Uiso   1.00
Zn491  Zn    0.83333   0.55104   0.25000   0.00000  Uiso   1.00
Zn492  Zn    0.83333   0.44896   0.25000   0.00000  Uiso   1.00
C493   C     0.08703   0.83333   0.24998   0.00000  Uiso   1.00
C494   C     0.04275   0.83334   0.24978   0.00000  Uiso   1.00
C495   C     0.19398   0.69073   0.27857   0.00000  Uiso   1.00
C496   C     0.13935   0.97594   0.22143   0.00000  Uiso   1.00
C497   C     0.13945   0.69039   0.22134   0.00000  Uiso   1.00
C498   C     0.19389   0.97628   0.27866   0.00000  Uiso   1.00
C499   C     0.16691   0.83312   0.16351   0.00000  Uiso   1.00
C500   C     0.16642   0.83355   0.33649   0.00000  Uiso   1.00
C501   C     0.17889   0.79587   0.40779   0.00000  Uiso   1.00
C502   C     0.15445   0.87079   0.09221   0.00000  Uiso   1.00
C503   C     0.16603   0.83406   0.38446   0.00000  Uiso   1.00
C504   C     0.24630   0.83333   0.25002   0.00000  Uiso   1.00
C505   C     0.16730   0.83260   0.11554   0.00000  Uiso   1.00
C506   C     0.15302   0.87233   0.40692   0.00000  Uiso   1.00
C507   C     0.18031   0.79434   0.09308   0.00000  Uiso   1.00
C508   C     0.15329   0.87248   0.45330   0.00000  Uiso   1.00
C509   C     0.18005   0.79418   0.04670   0.00000  Uiso   1.00
C510   C     0.16645   0.83364   0.47676   0.00000  Uiso   1.00
C511   C     0.16688   0.83303   0.02324   0.00000  Uiso   1.00
C512   C     0.17917   0.79533   0.45378   0.00000  Uiso   1.00
C513   C     0.15416   0.87133   0.04622   0.00000  Uiso   1.00
C514   C     0.14072   0.91042   0.47681   0.00000  Uiso   1.00
C515   C     0.14122   0.90966   0.02303   0.00000  Uiso   1.00
C516   C     0.19261   0.75625   0.02319   0.00000  Uiso   1.00
C517   C     0.04045   0.83309   0.16437   0.00000  Uiso   1.00
C518   C     0.29289   0.83357   0.33563   0.00000  Uiso   1.00
C519   C     0.28062   0.83285   0.16570   0.00000  Uiso   1.00
C520   C     0.05272   0.83382   0.33430   0.00000  Uiso   1.00
C521   C     0.22524   0.71449   0.31055   0.00000  Uiso   1.00
C522   C     0.10809   0.95217   0.18945   0.00000  Uiso   1.00
C523   C     0.10894   0.71384   0.18865   0.00000  Uiso   1.00
C524   C     0.22440   0.95283   0.31134   0.00000  Uiso   1.00
C525   C     0.19211   0.75700   0.47697   0.00000  Uiso   1.00
C526   C     0.01925   0.83320   0.20839   0.00000  Uiso   1.00
C527   C     0.31408   0.83347   0.29161   0.00000  Uiso   1.00
C528   C     0.30879   0.83316   0.20870   0.00000  Uiso   1.00
C529   C     0.02455   0.83350   0.29130   0.00000  Uiso   1.00
C530   C     0.29059   0.83332   0.25022   0.00000  Uiso   1.00
F531   F     0.13945   0.90888   0.38363   0.00000  Uiso   1.00
F532   F     0.19388   0.75779   0.11637   0.00000  Uiso   1.00
F533   F     0.12807   0.94834   0.45549   0.00000  Uiso   1.00
F534   F     0.20526   0.71832   0.04451   0.00000  Uiso   1.00
H535   H     0.18907   0.76655   0.39017   0.00000  Uiso   1.00
H536   H     0.30219   0.86396   0.35514   0.00000  Uiso   1.00
H537   H     0.26046   0.80264   0.16461   0.00000  Uiso   1.00
H538   H     0.26021   0.86288   0.16463   0.00000  Uiso   1.00
H539   H     0.29759   0.83274   0.13473   0.00000  Uiso   1.00
H540   H     0.07288   0.86403   0.33539   0.00000  Uiso   1.00
H541   H     0.03575   0.83394   0.36527   0.00000  Uiso   1.00
H542   H     0.07312   0.80379   0.33537   0.00000  Uiso   1.00
H543   H     0.22340   0.75054   0.30987   0.00000  Uiso   1.00
H544   H     0.22011   0.70497   0.34541   0.00000  Uiso   1.00
H545   H     0.25784   0.70580   0.30269   0.00000  Uiso   1.00
H546   H     0.14426   0.90011   0.10983   0.00000  Uiso   1.00
H547   H     0.10993   0.91612   0.19013   0.00000  Uiso   1.00
H548   H     0.07549   0.96086   0.19731   0.00000  Uiso   1.00
H549   H     0.11322   0.96170   0.15459   0.00000  Uiso   1.00
H550   H     0.11036   0.74990   0.19009   0.00000  Uiso   1.00
H551   H     0.11546   0.70454   0.15395   0.00000  Uiso   1.00
H552   H     0.07609   0.70479   0.19507   0.00000  Uiso   1.00
H553   H     0.22297   0.91676   0.30991   0.00000  Uiso   1.00
H554   H     0.25725   0.96187   0.30492   0.00000  Uiso   1.00
H555   H     0.21788   0.96213   0.34605   0.00000  Uiso   1.00
H556   H     0.13148   0.93914   0.04073   0.00000  Uiso   1.00
H557   H     0.20186   0.72753   0.45927   0.00000  Uiso   1.00
H558   H     0.07525   0.83319   0.16793   0.00000  Uiso   1.00
H559   H     0.03114   0.80271   0.14486   0.00000  Uiso   1.00
H560   H     0.03103   0.86329   0.14504   0.00000  Uiso   1.00
H561   H     0.25808   0.83347   0.33207   0.00000  Uiso   1.00
H562   H     0.30230   0.80337   0.35496   0.00000  Uiso   1.00
N563   N     0.16667   0.95240   0.25000   0.00000  Uiso   1.00
N564   N     0.16667   0.71427   0.25000   0.00000  Uiso   1.00
O565   O     0.10559   0.87154   0.25000   0.00000  Uiso   1.00
O566   O     0.22774   0.79513   0.25000   0.00000  Uiso   1.00
O567   O     0.22774   0.87154   0.25000   0.00000  Uiso   1.00
O568   O     0.10559   0.79513   0.25000   0.00000  Uiso   1.00
O569   O     0.16666   0.87156   0.18392   0.00000  Uiso   1.00
O570   O     0.16667   0.79511   0.31607   0.00000  Uiso   1.00
O571   O     0.16667   0.87156   0.31607   0.00000  Uiso   1.00
O572   O     0.16666   0.79511   0.18392   0.00000  Uiso   1.00
Zn573  Zn    0.16667   0.88437   0.25000   0.00000  Uiso   1.00
Zn574  Zn    0.16667   0.78229   0.25000   0.00000  Uiso   1.00
C575   C     0.42036   0.83333   0.24998   0.00000  Uiso   1.00
C576   C     0.37608   0.83334   0.24978   0.00000  Uiso   1.00
C577   C     0.52732   0.69073   0.27857   0.00000  Uiso   1.00
C578   C     0.47268   0.97594   0.22143   0.00000  Uiso   1.00
C579   C     0.47278   0.69039   0.22134   0.00000  Uiso   1.00
C580   C     0.52722   0.97628   0.27866   0.00000  Uiso   1.00
C581   C     0.50024   0.83312   0.16351   0.00000  Uiso   1.00
C582   C     0.49976   0.83355   0.33649   0.00000  Uiso   1.00
C583   C     0.51222   0.79587   0.40779   0.00000  Uiso   1.00
C584   C     0.48778   0.87079   0.09221   0.00000  Uiso   1.00
C585   C     0.49937   0.83406   0.38446   0.00000  Uiso   1.00
C586   C     0.57964   0.83333   0.25002   0.00000  Uiso   1.00
C587   C     0.50063   0.83260   0.11554   0.00000  Uiso   1.00
C588   C     0.48636   0.87233   0.40692   0.00000  Uiso   1.00
C589   C     0.51364   0.79434   0.09308   0.00000  Uiso   1.00
C590   C     0.48662   0.87248   0.45330   0.00000  Uiso   1.00
C591   C     0.51338   0.79418   0.04670   0.00000  Uiso   1.00
C592   C     0.49978   0.83364   0.47676   0.00000  Uiso   1.00
C593   C     0.50022   0.83303   0.02324   0.00000  Uiso   1.00
C594   C     0.51251   0.79533   0.45378   0.00000  Uiso   1.00
C595   C     0.48749   0.87133   0.04622   0.00000  Uiso   1.00
C596   C     0.47406   0.91042   0.47681   0.00000  Uiso   1.00
C597   C     0.47455   0.90966   0.02303   0.00000  Uiso   1.00
C598   C     0.52594   0.75625   0.02319   0.00000  Uiso   1.00
C599   C     0.37378   0.83309   0.16437   0.00000  Uiso   1.00
C600   C     0.62622   0.83357   0.33563   0.00000  Uiso   1.00
C601   C     0.61395   0.83285   0.16570   0.00000  Uiso   1.00
C602   C     0.38605   0.83382   0.33430   0.00000  Uiso   1.00
C603   C     0.55858   0.71449   0.31055   0.00000  Uiso   1.00
C604   C     0.44142   0.95217   0.18945   0.00000  Uiso   1.00
C605   C     0.44227   0.71384   0.18865   0.00000  Uiso   1.00
C606   C     0.55773   0.95283   0.31134   0.00000  Uiso   1.00
C607   C     0.52545   0.75700   0.47697   0.00000  Uiso   1.00
C608   C     0.35258   0.83320   0.20839   0.00000  Uiso   1.00
C609   C     0.64742   0.83347   0.29161   0.00000  Uiso   1.00
C610   C     0.64212   0.83316   0.20870   0.00000  Uiso   1.00
C611   C     0.35788   0.83350   0.29130   0.00000  Uiso   1.00
C612   C     0.62392   0.83332   0.25022   0.00000  Uiso   1.00
F613   F     0.47279   0.90888   0.38363   0.00000  Uiso   1.00
F614   F     0.52721   0.75779   0.11637   0.00000  Uiso   1.00
F615   F     0.46141   0.94834   0.45549   0.00000  Uiso   1.00
F616   F     0.53859   0.71832   0.04451   0.00000  Uiso   1.00
H617   H     0.52241   0.76655   0.39017   0.00000  Uiso   1.00
H618   H     0.63553   0.86396   0.35514   0.00000  Uiso   1.00
H619   H     0.59379   0.80264   0.16461   0.00000  Uiso   1.00
H620   H     0.59355   0.86288   0.16463   0.00000  Uiso   1.00
H621   H     0.63092   0.83274   0.13473   0.00000  Uiso   1.00
H622   H     0.40621   0.86403   0.33539   0.00000  Uiso   1.00
H623   H     0.36908   0.83394   0.36527   0.00000  Uiso   1.00
H624   H     0.40645   0.80379   0.33537   0.00000  Uiso   1.00
H625   H     0.55673   0.75054   0.30987   0.00000  Uiso   1.00
H626   H     0.55344   0.70497   0.34541   0.00000  Uiso   1.00
H627   H     0.59118   0.70580   0.30269   0.00000  Uiso   1.00
H628   H     0.47759   0.90011   0.10983   0.00000  Uiso   1.00
H629   H     0.44327   0.91612   0.19013   0.00000  Uiso   1.00
H630   H     0.40882   0.96086   0.19731   0.00000  Uiso   1.00
H631   H     0.44656   0.96170   0.15459   0.00000  Uiso   1.00
H632   H     0.44370   0.74990   0.19009   0.00000  Uiso   1.00
H633   H     0.44879   0.70454   0.15395   0.00000  Uiso   1.00
H634   H     0.40942   0.70479   0.19507   0.00000  Uiso   1.00
H635   H     0.55630   0.91676   0.30991   0.00000  Uiso   1.00
H636   H     0.59058   0.96187   0.30492   0.00000  Uiso   1.00
H637   H     0.55122   0.96213   0.34605   0.00000  Uiso   1.00
H638   H     0.46481   0.93914   0.04073   0.00000  Uiso   1.00
H639   H     0.53519   0.72753   0.45927   0.00000  Uiso   1.00
H640   H     0.40859   0.83319   0.16793   0.00000  Uiso   1.00
H641   H     0.36447   0.80271   0.14486   0.00000  Uiso   1.00
H642   H     0.36437   0.86329   0.14504   0.00000  Uiso   1.00
H643   H     0.59141   0.83347   0.33207   0.00000  Uiso   1.00
H644   H     0.63564   0.80337   0.35496   0.00000  Uiso   1.00
N645   N     0.50000   0.95240   0.25000   0.00000  Uiso   1.00
N646   N     0.50000   0.71427   0.25000   0.00000  Uiso   1.00
O647   O     0.43892   0.87154   0.25000   0.00000  Uiso   1.00
O648   O     0.56108   0.79513   0.25000   0.00000  Uiso   1.00
O649   O     0.56108   0.87154   0.25000   0.00000  Uiso   1.00
O650   O     0.43892   0.79513   0.25000   0.00000  Uiso   1.00
O651   O     0.49999   0.87156   0.18392   0.00000  Uiso   1.00
O652   O     0.50001   0.79511   0.31607   0.00000  Uiso   1.00
O653   O     0.50001   0.87156   0.31607   0.00000  Uiso   1.00
O654   O     0.49999   0.79511   0.18392   0.00000  Uiso   1.00
Zn655  Zn    0.50000   0.88437   0.25000   0.00000  Uiso   1.00
Zn656  Zn    0.50000   0.78229   0.25000   0.00000  Uiso   1.00
C657   C     0.75370   0.83333   0.24998   0.00000  Uiso   1.00
C658   C     0.70941   0.83334   0.24978   0.00000  Uiso   1.00
C659   C     0.86065   0.69073   0.27857   0.00000  Uiso   1.00
C660   C     0.80602   0.97594   0.22143   0.00000  Uiso   1.00
C661   C     0.80611   0.69039   0.22134   0.00000  Uiso   1.00
C662   C     0.86055   0.97628   0.27866   0.00000  Uiso   1.00
C663   C     0.83358   0.83312   0.16351   0.00000  Uiso   1.00
C664   C     0.83309   0.83355   0.33649   0.00000  Uiso   1.00
C665   C     0.84555   0.79587   0.40779   0.00000  Uiso   1.00
C666   C     0.82111   0.87079   0.09221   0.00000  Uiso   1.00
C667   C     0.83270   0.83406   0.38446   0.00000  Uiso   1.00
C668   C     0.91297   0.83333   0.25002   0.00000  Uiso   1.00
C669   C     0.83397   0.83260   0.11554   0.00000  Uiso   1.00
C670   C     0.81969   0.87233   0.40692   0.00000  Uiso   1.00
C671   C     0.84698   0.79434   0.09308   0.00000  Uiso   1.00
C672   C     0.81995   0.87248   0.45330   0.00000  Uiso   1.00
C673   C     0.84671   0.79418   0.04670   0.00000  Uiso   1.00
C674   C     0.83312   0.83364   0.47676   0.00000  Uiso   1.00
C675   C     0.83355   0.83303   0.02324   0.00000  Uiso   1.00
C676   C     0.84584   0.79533   0.45378   0.00000  Uiso   1.00
C677   C     0.82083   0.87133   0.04622   0.00000  Uiso   1.00
C678   C     0.80739   0.91042   0.47681   0.00000  Uiso   1.00
C679   C     0.80789   0.90966   0.02303   0.00000  Uiso   1.00
C680   C     0.85928   0.75625   0.02319   0.00000  Uiso   1.00
C681   C     0.70711   0.83309   0.16437   0.00000  Uiso   1.00
C682   C     0.95955   0.83357   0.33563   0.00000  Uiso   1.00
C683   C     0.94728   0.83285   0.16570   0.00000  Uiso   1.00
C684   C     0.71938   0.83382   0.33430   0.00000  Uiso   1.00
C685   C     0.89191   0.71449   0.31055   0.00000  Uiso   1.00
C686   C     0.77476   0.95217   0.18945   0.00000  Uiso   1.00
C687   C     0.77560   0.71384   0.18865   0.00000  Uiso   1.00
C688   C     0.89106   0.95283   0.31134   0.00000  Uiso   1.00
C689   C     0.85878   0.75700   0.47697   0.00000  Uiso   1.00
C690   C     0.68591   0.83320   0.20839   0.00000  Uiso   1.00
C691   C     0.98075   0.83347   0.29161   0.00000  Uiso   1.00
C692   C     0.97545   0.83316   0.20870   0.00000  Uiso   1.00
C693   C     0.69121   0.83350   0.29130   0.00000  Uiso   1.00
C694   C     0.95725   0.83332   0.25022   0.00000  Uiso   1.00
F695   F     0.80612   0.90888   0.38363   0.00000  Uiso   1.00
F696   F     0.86055   0.75779   0.11637   0.00000  Uiso   1.00
F697   F     0.79474   0.94834   0.45549   0.00000  Uiso   1.00
F698   F     0.87193   0.71832   0.04451   0.00000  Uiso   1.00
H699   H     0.85574   0.76655   0.39017   0.00000  Uiso   1.00
H700   H     0.96886   0.86396   0.35514   0.00000  Uiso   1.00
H701   H     0.92712   0.80264   0.16461   0.00000  Uiso   1.00
H702   H     0.92688   0.86288   0.16463   0.00000  Uiso   1.00
H703   H     0.96425   0.83274   0.13473   0.00000  Uiso   1.00
H704   H     0.73955   0.86403   0.33539   0.00000  Uiso   1.00
H705   H     0.70241   0.83394   0.36527   0.00000  Uiso   1.00
H706   H     0.73978   0.80379   0.33537   0.00000  Uiso   1.00
H707   H     0.89007   0.75054   0.30987   0.00000  Uiso   1.00
H708   H     0.88678   0.70497   0.34541   0.00000  Uiso   1.00
H709   H     0.92451   0.70580   0.30269   0.00000  Uiso   1.00
H710   H     0.81093   0.90011   0.10983   0.00000  Uiso   1.00
H711   H     0.77660   0.91612   0.19013   0.00000  Uiso   1.00
H712   H     0.74216   0.96086   0.19731   0.00000  Uiso   1.00
H713   H     0.77989   0.96170   0.15459   0.00000  Uiso   1.00
H714   H     0.77703   0.74990   0.19009   0.00000  Uiso   1.00
H715   H     0.78212   0.70454   0.15395   0.00000  Uiso   1.00
H716   H     0.74275   0.70479   0.19507   0.00000  Uiso   1.00
H717   H     0.88964   0.91676   0.30991   0.00000  Uiso   1.00
H718   H     0.92392   0.96187   0.30492   0.00000  Uiso   1.00
H719   H     0.88455   0.96213   0.34605   0.00000  Uiso   1.00
H720   H     0.79814   0.93914   0.04073   0.00000  Uiso   1.00
H721   H     0.86852   0.72753   0.45927   0.00000  Uiso   1.00
H722   H     0.74192   0.83319   0.16793   0.00000  Uiso   1.00
H723   H     0.69780   0.80271   0.14486   0.00000  Uiso   1.00
H724   H     0.69770   0.86329   0.14504   0.00000  Uiso   1.00
H725   H     0.92475   0.83347   0.33207   0.00000  Uiso   1.00
H726   H     0.96897   0.80337   0.35496   0.00000  Uiso   1.00
N727   N     0.83333   0.95240   0.25000   0.00000  Uiso   1.00
N728   N     0.83333   0.71427   0.25000   0.00000  Uiso   1.00
O729   O     0.77226   0.87154   0.25000   0.00000  Uiso   1.00
O730   O     0.89441   0.79513   0.25000   0.00000  Uiso   1.00
O731   O     0.89441   0.87154   0.25000   0.00000  Uiso   1.00
O732   O     0.77226   0.79513   0.25000   0.00000  Uiso   1.00
O733   O     0.83333   0.87156   0.18392   0.00000  Uiso   1.00
O734   O     0.83334   0.79511   0.31607   0.00000  Uiso   1.00
O735   O     0.83334   0.87156   0.31607   0.00000  Uiso   1.00
O736   O     0.83333   0.79511   0.18392   0.00000  Uiso   1.00
Zn737  Zn    0.83333   0.88437   0.25000   0.00000  Uiso   1.00
Zn738  Zn    0.83333   0.78229   0.25000   0.00000  Uiso   1.00
C739   C     0.08703   0.16667   0.74998   0.00000  Uiso   1.00
C740   C     0.04275   0.16668   0.74978   0.00000  Uiso   1.00
C741   C     0.19398   0.02406   0.77857   0.00000  Uiso   1.00
C742   C     0.13935   0.30927   0.72143   0.00000  Uiso   1.00
C743   C     0.13945   0.02372   0.72134   0.00000  Uiso   1.00
C744   C     0.19389   0.30961   0.77866   0.00000  Uiso   1.00
C745   C     0.16691   0.16645   0.66351   0.00000  Uiso   1.00
C746   C     0.16642   0.16688   0.83649   0.00000  Uiso   1.00
C747   C     0.17889   0.12921   0.90779   0.00000  Uiso   1.00
C748   C     0.15445   0.20413   0.59221   0.00000  Uiso   1.00
C749   C     0.16603   0.16740   0.88446   0.00000  Uiso   1.00
C750   C     0.24630   0.16667   0.75002   0.00000  Uiso   1.00
C751   C     0.16730   0.16594   0.61554   0.00000  Uiso   1.00
C752   C     0.15302   0.20566   0.90692   0.00000  Uiso   1.00
C753   C     0.18031   0.12767   0.59308   0.00000  Uiso   1.00
C754   C     0.15329   0.20582   0.95330   0.00000  Uiso   1.00
C755   C     0.18005   0.12752   0.54670   0.00000  Uiso   1.00
C756   C     0.16645   0.16697   0.97676   0.00000  Uiso   1.00
C757   C     0.16688   0.16636   0.52324   0.00000  Uiso   1.00
C758   C     0.17917   0.12867   0.95378   0.00000  Uiso   1.00
C759   C     0.15416   0.20467   0.54622   0.00000  Uiso   1.00
C760   C     0.14072   0.24375   0.97681   0.00000  Uiso   1.00
C761   C     0.14122   0.24300   0.52303   0.00000  Uiso   1.00
C762   C     0.19261   0.08958   0.52319   0.00000  Uiso   1.00
C763   C     0.04045   0.16642   0.66437   0.00000  Uiso   1.00
C764   C     0.29289   0.16691   0.83563   0.00000  Uiso   1.00
C765   C     0.28062   0.16619   0.66570   0.00000  Uiso   1.00
C766   C     0.05272   0.16715   0.83430   0.00000  Uiso   1.00
C767   C     0.22524   0.04783   0.81055   0.00000  Uiso   1.00
C768   C     0.10809   0.28551   0.68945   0.00000  Uiso   1.00
C769   C     0.10894   0.04717   0.68865   0.00000  Uiso   1.00
C770   C     0.22440   0.28616   0.81134   0.00000  Uiso   1.00
C771   C     0.19211   0.09033   0.97697   0.00000  Uiso   1.00
C772   C     0.01925   0.16653   0.70839   0.00000  Uiso   1.00
C773   C     0.31408   0.16680   0.79161   0.00000  Uiso   1.00
C774   C     0.30879   0.16650   0.70870   0.00000  Uiso   1.00
C775   C     0.02455   0.16684   0.79130   0.00000  Uiso   1.00
C776   C     0.29059   0.16666   0.75022   0.00000  Uiso   1.00
F777   F     0.13945   0.24221   0.88363   0.00000  Uiso   1.00
F778   F     0.19388   0.09112   0.61637   0.00000  Uiso   1.00
F779   F     0.12807   0.28168   0.95549   0.00000  Uiso   1.00
F780   F     0.20526   0.05166   0.54451   0.00000  Uiso   1.00
H781   H     0.18907   0.09988   0.89017   0.00000  Uiso   1.00
H782   H     0.30219   0.19729   0.85514   0.00000  Uiso   1.00
H783   H     0.26046   0.13597   0.66461   0.00000  Uiso   1.00
H784   H     0.26021   0.19622   0.66463   0.00000  Uiso   1.00
H785   H     0.29759   0.16607   0.63473   0.00000  Uiso   1.00
H786   H     0.07288   0.19737   0.83539   0.00000  Uiso   1.00
H787   H     0.03575   0.16727   0.86527   0.00000  Uiso   1.00
H788   H     0.07312   0.13712   0.83537   0.00000  Uiso   1.00
H789   H     0.22340   0.08388   0.80987   0.00000  Uiso   1.00
H790   H     0.22011   0.03830   0.84541   0.00000  Uiso   1.00
H791   H     0.25784   0.03914   0.80269   0.00000  Uiso   1.00
H792   H     0.14426   0.23345   0.60983   0.00000  Uiso   1.00
H793   H     0.10993   0.24946   0.69013   0.00000  Uiso   1.00
H794   H     0.07549   0.29420   0.69731   0.00000  Uiso   1.00
H795   H     0.11322   0.29503   0.65459   0.00000  Uiso   1.00
H796   H     0.11036   0.08324   0.69009   0.00000  Uiso   1.00
H797   H     0.11546   0.03787   0.65395   0.00000  Uiso   1.00
H798   H     0.07609   0.03812   0.69507   0.00000  Uiso   1.00
H799   H     0.22297   0.25010   0.80991   0.00000  Uiso   1.00
H800   H     0.25725   0.29521   0.80492   0.00000  Uiso   1.00
H801   H     0.21788   0.29546   0.84605   0.00000  Uiso   1.00
H802   H     0.13148   0.27247   0.54073   0.00000  Uiso   1.00
H803   H     0.20186   0.06086   0.95927   0.00000  Uiso   1.00
H804   H     0.07525   0.16652   0.66793   0.00000  Uiso   1.00
H805   H     0.03114   0.13604   0.64486   0.00000  Uiso   1.00
H806   H     0.03103   0.19662   0.64504   0.00000  Uiso   1.00
H807   H     0.25808   0.16680   0.83207   0.00000  Uiso   1.00
H808   H     0.30230   0.13671   0.85496   0.00000  Uiso   1.00
N809   N     0.16667   0.28573   0.75000   0.00000  Uiso   1.00
N810   N     0.16667   0.04760   0.75000   0.00000  Uiso   1.00
O811   O     0.10559   0.20487   0.75000   0.00000  Uiso   1.00
O812   O     0.22774   0.12846   0.75000   0.00000  Uiso   1.00
O813   O     0.22774   0.20487   0.75000   0.00000  Uiso   1.00
O814   O     0.10559   0.12846   0.75000   0.00000  Uiso   1.00
O815   O     0.16666   0.20489   0.68392   0.00000  Uiso   1.00
O816   O     0.16667   0.12844   0.81607   0.00000  Uiso   1.00
O817   O     0.16667   0.20489   0.81607   0.00000  Uiso   1.00
O818   O     0.16666   0.12844   0.68392   0.00000  Uiso   1.00
Zn819  Zn    0.16667   0.21771   0.75000   0.00000  Uiso   1.00
Zn820  Zn    0.16667   0.11563   0.75000   0.00000  Uiso   1.00
C821   C     0.42036   0.16667   0.74998   0.00000  Uiso   1.00
C822   C     0.37608   0.16668   0.74978   0.00000  Uiso   1.00
C823   C     0.52732   0.02406   0.77857   0.00000  Uiso   1.00
C824   C     0.47268   0.30927   0.72143   0.00000  Uiso   1.00
C825   C     0.47278   0.02372   0.72134   0.00000  Uiso   1.00
C826   C     0.52722   0.30961   0.77866   0.00000  Uiso   1.00
C827   C     0.50024   0.16645   0.66351   0.00000  Uiso   1.00
C828   C     0.49976   0.16688   0.83649   0.00000  Uiso   1.00
C829   C     0.51222   0.12921   0.90779   0.00000  Uiso   1.00
C830   C     0.48778   0.20413   0.59221   0.00000  Uiso   1.00
C831   C     0.49937   0.16740   0.88446   0.00000  Uiso   1.00
C832   C     0.57964   0.16667   0.75002   0.00000  Uiso   1.00
C833   C     0.50063   0.16594   0.61554   0.00000  Uiso   1.00
C834   C     0.48636   0.20566   0.90692   0.00000  Uiso   1.00
C835   C     0.51364   0.12767   0.59308   0.00000  Uiso   1.00
C836   C     0.48662   0.20582   0.95330   0.00000  Uiso   1.00
C837   C     0.51338   0.12752   0.54670   0.00000  Uiso   1.00
C838   C     0.49978   0.16697   0.97676   0.00000  Uiso   1.00
C839   C     0.50022   0.16636   0.52324   0.00000  Uiso   1.00
C840   C     0.51251   0.12867   0.95378   0.00000  Uiso   1.00
C841   C     0.48749   0.20467   0.54622   0.00000  Uiso   1.00
C842   C     0.47406   0.24375   0.97681   0.00000  Uiso   1.00
C843   C     0.47455   0.24300   0.52303   0.00000  Uiso   1.00
C844   C     0.52594   0.08958   0.52319   0.00000  Uiso   1.00
C845   C     0.37378   0.16642   0.66437   0.00000  Uiso   1.00
C846   C     0.62622   0.16691   0.83563   0.00000  Uiso   1.00
C847   C     0.61395   0.16619   0.66570   0.00000  Uiso   1.00
C848   C     0.38605   0.16715   0.83430   0.00000  Uiso   1.00
C849   C     0.55858   0.04783   0.81055   0.00000  Uiso   1.00
C850   C     0.44142   0.28551   0.68945   0.00000  Uiso   1.00
C851   C     0.44227   0.04717   0.68865   0.00000  Uiso   1.00
C852   C     0.55773   0.28616   0.81134   0.00000  Uiso   1.00
C853   C     0.52545   0.09033   0.97697   0.00000  Uiso   1.00
C854   C     0.35258   0.16653   0.70839   0.00000  Uiso   1.00
C855   C     0.64742   0.16680   0.79161   0.00000  Uiso   1.00
C856   C     0.64212   0.16650   0.70870   0.00000  Uiso   1.00
C857   C     0.35788   0.16684   0.79130   0.00000  Uiso   1.00
C858   C     0.62392   0.16666   0.75022   0.00000  Uiso   1.00
F859   F     0.47279   0.24221   0.88363   0.00000  Uiso   1.00
F860   F     0.52721   0.09112   0.61637   0.00000  Uiso   1.00
F861   F     0.46141   0.28168   0.95549   0.00000  Uiso   1.00
F862   F     0.53859   0.05166   0.54451   0.00000  Uiso   1.00
H863   H     0.52241   0.09988   0.89017   0.00000  Uiso   1.00
H864   H     0.63553   0.19729   0.85514   0.00000  Uiso   1.00
H865   H     0.59379   0.13597   0.66461   0.00000  Uiso   1.00
H866   H     0.59355   0.19622   0.66463   0.00000  Uiso   1.00
H867   H     0.63092   0.16607   0.63473   0.00000  Uiso   1.00
H868   H     0.40621   0.19737   0.83539   0.00000  Uiso   1.00
H869   H     0.36908   0.16727   0.86527   0.00000  Uiso   1.00
H870   H     0.40645   0.13712   0.83537   0.00000  Uiso   1.00
H871   H     0.55673   0.08388   0.80987   0.00000  Uiso   1.00
H872   H     0.55344   0.03830   0.84541   0.00000  Uiso   1.00
H873   H     0.59118   0.03914   0.80269   0.00000  Uiso   1.00
H874   H     0.47759   0.23345   0.60983   0.00000  Uiso   1.00
H875   H     0.44327   0.24946   0.69013   0.00000  Uiso   1.00
H876   H     0.40882   0.29420   0.69731   0.00000  Uiso   1.00
H877   H     0.44656   0.29503   0.65459   0.00000  Uiso   1.00
H878   H     0.44370   0.08324   0.69009   0.00000  Uiso   1.00
H879   H     0.44879   0.03787   0.65395   0.00000  Uiso   1.00
H880   H     0.40942   0.03812   0.69507   0.00000  Uiso   1.00
H881   H     0.55630   0.25010   0.80991   0.00000  Uiso   1.00
H882   H     0.59058   0.29521   0.80492   0.00000  Uiso   1.00
H883   H     0.55122   0.29546   0.84605   0.00000  Uiso   1.00
H884   H     0.46481   0.27247   0.54073   0.00000  Uiso   1.00
H885   H     0.53519   0.06086   0.95927   0.00000  Uiso   1.00
H886   H     0.40859   0.16652   0.66793   0.00000  Uiso   1.00
H887   H     0.36447   0.13604   0.64486   0.00000  Uiso   1.00
H888   H     0.36437   0.19662   0.64504   0.00000  Uiso   1.00
H889   H     0.59141   0.16680   0.83207   0.00000  Uiso   1.00
H890   H     0.63564   0.13671   0.85496   0.00000  Uiso   1.00
N891   N     0.50000   0.28573   0.75000   0.00000  Uiso   1.00
N892   N     0.50000   0.04760   0.75000   0.00000  Uiso   1.00
O893   O     0.43892   0.20487   0.75000   0.00000  Uiso   1.00
O894   O     0.56108   0.12846   0.75000   0.00000  Uiso   1.00
O895   O     0.56108   0.20487   0.75000   0.00000  Uiso   1.00
O896   O     0.43892   0.12846   0.75000   0.00000  Uiso   1.00
O897   O     0.49999   0.20489   0.68392   0.00000  Uiso   1.00
O898   O     0.50001   0.12844   0.81607   0.00000  Uiso   1.00
O899   O     0.50001   0.20489   0.81607   0.00000  Uiso   1.00
O900   O     0.49999   0.12844   0.68392   0.00000  Uiso   1.00
Zn901  Zn    0.50000   0.21771   0.75000   0.00000  Uiso   1.00
Zn902  Zn    0.50000   0.11563   0.75000   0.00000  Uiso   1.00
C903   C     0.75370   0.16667   0.74998   0.00000  Uiso   1.00
C904   C     0.70941   0.16668   0.74978   0.00000  Uiso   1.00
C905   C     0.86065   0.02406   0.77857   0.00000  Uiso   1.00
C906   C     0.80602   0.30927   0.72143   0.00000  Uiso   1.00
C907   C     0.80611   0.02372   0.72134   0.00000  Uiso   1.00
C908   C     0.86055   0.30961   0.77866   0.00000  Uiso   1.00
C909   C     0.83358   0.16645   0.66351   0.00000  Uiso   1.00
C910   C     0.83309   0.16688   0.83649   0.00000  Uiso   1.00
C911   C     0.84555   0.12921   0.90779   0.00000  Uiso   1.00
C912   C     0.82111   0.20413   0.59221   0.00000  Uiso   1.00
C913   C     0.83270   0.16740   0.88446   0.00000  Uiso   1.00
C914   C     0.91297   0.16667   0.75002   0.00000  Uiso   1.00
C915   C     0.83397   0.16594   0.61554   0.00000  Uiso   1.00
C916   C     0.81969   0.20566   0.90692   0.00000  Uiso   1.00
C917   C     0.84698   0.12767   0.59308   0.00000  Uiso   1.00
C918   C     0.81995   0.20582   0.95330   0.00000  Uiso   1.00
C919   C     0.84671   0.12752   0.54670   0.00000  Uiso   1.00
C920   C     0.83312   0.16697   0.97676   0.00000  Uiso   1.00
C921   C     0.83355   0.16636   0.52324   0.00000  Uiso   1.00
C922   C     0.84584   0.12867   0.95378   0.00000  Uiso   1.00
C923   C     0.82083   0.20467   0.54622   0.00000  Uiso   1.00
C924   C     0.80739   0.24375   0.97681   0.00000  Uiso   1.00
C925   C     0.80789   0.24300   0.52303   0.00000  Uiso   1.00
C926   C     0.85928   0.08958   0.52319   0.00000  Uiso   1.00
C927   C     0.70711   0.16642   0.66437   0.00000  Uiso   1.00
C928   C     0.95955   0.16691   0.83563   0.00000  Uiso   1.00
C929   C     0.94728   0.16619   0.66570   0.00000  Uiso   1.00
C930   C     0.71938   0.16715   0.83430   0.00000  Uiso   1.00
C931   C     0.89191   0.04783   0.81055   0.00000  Uiso   1.00
C932   C     0.77476   0.28551   0.68945   0.00000  Uiso   1.00
C933   C     0.77560   0.04717   0.68865   0.00000  Uiso   1.00
C934   C     0.89106   0.28616   0.81134   0.00000  Uiso   1.00
C935   C     0.85878   0.09033   0.97697   0.00000  Uiso   1.00
C936   C     0.68591   0.16653   0.70839   0.00000  Uiso   1.00
C937   C     0.98075   0.16680   0.79161   0.00000  Uiso   1.00
C938   C     0.97545   0.16650   0.70870   0.00000  Uiso   1.00
C939   C     0.69121   0.16684   0.79130   0.00000  Uiso   1.00
C940   C     0.95725   0.16666   0.75022   0.00000  Uiso   1.00
F941   F     0.80612   0.24221   0.88363   0.00000  Uiso   1.00
F942   F     0.86055   0.09112   0.61637   0.00000  Uiso   1.00
F943   F     0.79474   0.28168   0.95549   0.00000  Uiso   1.00
F944   F     0.87193   0.05166   0.54451   0.00000  Uiso   1.00
H945   H     0.85574   0.09988   0.89017   0.00000  Uiso   1.00
H946   H     0.96886   0.19729   0.85514   0.00000  Uiso   1.00
H947   H     0.92712   0.13597   0.66461   0.00000  Uiso   1.00
H948   H     0.92688   0.19622   0.66463   0.00000  Uiso   1.00
H949   H     0.96425   0.16607   0.63473   0.00000  Uiso   1.00
H950   H     0.73955   0.19737   0.83539   0.00000  Uiso   1.00
H951   H     0.70241   0.16727   0.86527   0.00000  Uiso   1.00
H952   H     0.73978   0.13712   0.83537   0.00000  Uiso   1.00
H953   H     0.89007   0.08388   0.80987   0.00000  Uiso   1.00
H954   H     0.88678   0.03830   0.84541   0.00000  Uiso   1.00
H955   H     0.92451   0.03914   0.80269   0.00000  Uiso   1.00
H956   H     0.81093   0.23345   0.60983   0.00000  Uiso   1.00
H957   H     0.77660   0.24946   0.69013   0.00000  Uiso   1.00
H958   H     0.74216   0.29420   0.69731   0.00000  Uiso   1.00
H959   H     0.77989   0.29503   0.65459   0.00000  Uiso   1.00
H960   H     0.77703   0.08324   0.69009   0.00000  Uiso   1.00
H961   H     0.78212   0.03787   0.65395   0.00000  Uiso   1.00
H962   H     0.74275   0.03812   0.69507   0.00000  Uiso   1.00
H963   H     0.88964   0.25010   0.80991   0.00000  Uiso   1.00
H964   H     0.92392   0.29521   0.80492   0.00000  Uiso   1.00
H965   H     0.88455   0.29546   0.84605   0.00000  Uiso   1.00
H966   H     0.79814   0.27247   0.54073   0.00000  Uiso   1.00
H967   H     0.86852   0.06086   0.95927   0.00000  Uiso   1.00
H968   H     0.74192   0.16652   0.66793   0.00000  Uiso   1.00
H969   H     0.69780   0.13604   0.64486   0.00000  Uiso   1.00
H970   H     0.69770   0.19662   0.64504   0.00000  Uiso   1.00
H971   H     0.92475   0.16680   0.83207   0.00000  Uiso   1.00
H972   H     0.96897   0.13671   0.85496   0.00000  Uiso   1.00
N973   N     0.83333   0.28573   0.75000   0.00000  Uiso   1.00
N974   N     0.83333   0.04760   0.75000   0.00000  Uiso   1.00
O975   O     0.77226   0.20487   0.75000   0.00000  Uiso   1.00
O976   O     0.89441   0.12846   0.75000   0.00000  Uiso   1.00
O977   O     0.89441   0.20487   0.75000   0.00000  Uiso   1.00
O978   O     0.77226   0.12846   0.75000   0.00000  Uiso   1.00
O979   O     0.83333   0.20489   0.68392   0.00000  Uiso   1.00
O980   O     0.83334   0.12844   0.81607   0.00000  Uiso   1.00
O981   O     0.83334   0.20489   0.81607   0.00000  Uiso   1.00
O982   O     0.83333   0.12844   0.68392   0.00000  Uiso   1.00
Zn983  Zn    0.83333   0.21771   0.75000   0.00000  Uiso   1.00
Zn984  Zn    0.83333   0.11563   0.75000   0.00000  Uiso   1.00
C985   C     0.08703   0.50000   0.74998   0.00000  Uiso   1.00
C986   C     0.04275   0.50001   0.74978   0.00000  Uiso   1.00
C987   C     0.19398   0.35740   0.77857   0.00000  Uiso   1.00
C988   C     0.13935   0.64260   0.72143   0.00000  Uiso   1.00
C989   C     0.13945   0.35706   0.72134   0.00000  Uiso   1.00
C990   C     0.19389   0.64294   0.77866   0.00000  Uiso   1.00
C991   C     0.16691   0.49978   0.66351   0.00000  Uiso   1.00
C992   C     0.16642   0.50021   0.83649   0.00000  Uiso   1.00
C993   C     0.17889   0.46254   0.90779   0.00000  Uiso   1.00
C994   C     0.15445   0.53746   0.59221   0.00000  Uiso   1.00
C995   C     0.16603   0.50073   0.88446   0.00000  Uiso   1.00
C996   C     0.24630   0.50000   0.75002   0.00000  Uiso   1.00
C997   C     0.16730   0.49927   0.61554   0.00000  Uiso   1.00
C998   C     0.15302   0.53899   0.90692   0.00000  Uiso   1.00
C999   C     0.18031   0.46101   0.59308   0.00000  Uiso   1.00
C1000  C     0.15329   0.53915   0.95330   0.00000  Uiso   1.00
C1001  C     0.18005   0.46085   0.54670   0.00000  Uiso   1.00
C1002  C     0.16645   0.50031   0.97676   0.00000  Uiso   1.00
C1003  C     0.16688   0.49969   0.52324   0.00000  Uiso   1.00
C1004  C     0.17917   0.46200   0.95378   0.00000  Uiso   1.00
C1005  C     0.15416   0.53800   0.54622   0.00000  Uiso   1.00
C1006  C     0.14072   0.57709   0.97681   0.00000  Uiso   1.00
C1007  C     0.14122   0.57633   0.52303   0.00000  Uiso   1.00
C1008  C     0.19261   0.42291   0.52319   0.00000  Uiso   1.00
C1009  C     0.04045   0.49976   0.66437   0.00000  Uiso   1.00
C1010  C     0.29289   0.50024   0.83563   0.00000  Uiso   1.00
C1011  C     0.28062   0.49952   0.66570   0.00000  Uiso   1.00
C1012  C     0.05272   0.50048   0.83430   0.00000  Uiso   1.00
C1013  C     0.22524   0.38116   0.81055   0.00000  Uiso   1.00
C1014  C     0.10809   0.61884   0.68945   0.00000  Uiso   1.00
C1015  C     0.10894   0.38051   0.68865   0.00000  Uiso   1.00
C1016  C     0.22440   0.61949   0.81134   0.00000  Uiso   1.00
C1017  C     0.19211   0.42367   0.97697   0.00000  Uiso   1.00
C1018  C     0.01925   0.49987   0.70839   0.00000  Uiso   1.00
C1019  C     0.31408   0.50013   0.79161   0.00000  Uiso   1.00
C1020  C     0.30879   0.49983   0.70870   0.00000  Uiso   1.00
C1021  C     0.02455   0.50017   0.79130   0.00000  Uiso   1.00
C1022  C     0.29059   0.49999   0.75022   0.00000  Uiso   1.00
F1023  F     0.13945   0.57554   0.88363   0.00000  Uiso   1.00
F1024  F     0.19388   0.42446   0.61637   0.00000  Uiso   1.00
F1025  F     0.12807   0.61501   0.95549   0.00000  Uiso   1.00
F1026  F     0.20526   0.38499   0.54451   0.00000  Uiso   1.00
H1027  H     0.18907   0.43322   0.89017   0.00000  Uiso   1.00
H1028  H     0.30219   0.53062   0.85514   0.00000  Uiso   1.00
H1029  H     0.26046   0.46930   0.66461   0.00000  Uiso   1.00
H1030  H     0.26021   0.52955   0.66463   0.00000  Uiso   1.00
H1031  H     0.29759   0.49941   0.63473   0.00000  Uiso   1.00
H1032  H     0.07288   0.53070   0.83539   0.00000  Uiso   1.00
H1033  H     0.03575   0.50061   0.86527   0.00000  Uiso   1.00
H1034  H     0.07312   0.47045   0.83537   0.00000  Uiso   1.00
H1035  H     0.22340   0.41721   0.80987   0.00000  Uiso   1.00
H1036  H     0.22011   0.37164   0.84541   0.00000  Uiso   1.00
H1037  H     0.25784   0.37247   0.80269   0.00000  Uiso   1.00
H1038  H     0.14426   0.56678   0.60983   0.00000  Uiso   1.00
H1039  H     0.10993   0.58279   0.69013   0.00000  Uiso   1.00
H1040  H     0.07549   0.62753   0.69731   0.00000  Uiso   1.00
H1041  H     0.11322   0.62836   0.65459   0.00000  Uiso   1.00
H1042  H     0.11036   0.41657   0.69009   0.00000  Uiso   1.00
H1043  H     0.11546   0.37121   0.65395   0.00000  Uiso   1.00
H1044  H     0.07609   0.37146   0.69507   0.00000  Uiso   1.00
H1045  H     0.22297   0.58343   0.80991   0.00000  Uiso   1.00
H1046  H     0.25725   0.62854   0.80492   0.00000  Uiso   1.00
H1047  H     0.21788   0.62879   0.84605   0.00000  Uiso   1.00
H1048  H     0.13148   0.60580   0.54073   0.00000  Uiso   1.00
H1049  H     0.20186   0.39420   0.95927   0.00000  Uiso   1.00
H1050  H     0.07525   0.49986   0.66793   0.00000  Uiso   1.00
H1051  H     0.03114   0.46938   0.64486   0.00000  Uiso   1.00
H1052  H     0.03103   0.52996   0.64504   0.00000  Uiso   1.00
H1053  H     0.25808   0.50013   0.83207   0.00000  Uiso   1.00
H1054  H     0.30230   0.47004   0.85496   0.00000  Uiso   1.00
N1055  N     0.16667   0.61907   0.75000   0.00000  Uiso   1.00
N1056  N     0.16667   0.38093   0.75000   0.00000  Uiso   1.00
O1057  O     0.10559   0.53821   0.75000   0.00000  Uiso   1.00
O1058  O     0.22774   0.46179   0.75000   0.00000  Uiso   1.00
O1059  O     0.22774   0.53821   0.75000   0.00000  Uiso   1.00
O1060  O     0.10559   0.46179   0.75000   0.00000  Uiso   1.00
O1061  O     0.16666   0.53823   0.68392   0.00000  Uiso   1.00
O1062  O     0.16667   0.46177   0.81607   0.00000  Uiso   1.00
O1063  O     0.16667   0.53823   0.81607   0.00000  Uiso   1.00
O1064  O     0.16666   0.46177   0.68392   0.00000  Uiso   1.00
Zn1065 Zn    0.16667   0.55104   0.75000   0.00000  Uiso   1.00
Zn1066 Zn    0.16667   0.44896   0.75000   0.00000  Uiso   1.00
C1067  C     0.42036   0.50000   0.74998   0.00000  Uiso   1.00
C1068  C     0.37608   0.50001   0.74978   0.00000  Uiso   1.00
C1069  C     0.52732   0.35740   0.77857   0.00000  Uiso   1.00
C1070  C     0.47268   0.64260   0.72143   0.00000  Uiso   1.00
C1071  C     0.47278   0.35706   0.72134   0.00000  Uiso   1.00
C1072  C     0.52722   0.64294   0.77866   0.00000  Uiso   1.00
C1073  C     0.50024   0.49978   0.66351   0.00000  Uiso   1.00
C1074  C     0.49976   0.50021   0.83649   0.00000  Uiso   1.00
C1075  C     0.51222   0.46254   0.90779   0.00000  Uiso   1.00
C1076  C     0.48778   0.53746   0.59221   0.00000  Uiso   1.00
C1077  C     0.49937   0.50073   0.88446   0.00000  Uiso   1.00
C1078  C     0.57964   0.50000   0.75002   0.00000  Uiso   1.00
C1079  C     0.50063   0.49927   0.61554   0.00000  Uiso   1.00
C1080  C     0.48636   0.53899   0.90692   0.00000  Uiso   1.00
C1081  C     0.51364   0.46101   0.59308   0.00000  Uiso   1.00
C1082  C     0.48662   0.53915   0.95330   0.00000  Uiso   1.00
C1083  C     0.51338   0.46085   0.54670   0.00000  Uiso   1.00
C1084  C     0.49978   0.50031   0.97676   0.00000  Uiso   1.00
C1085  C     0.50022   0.49969   0.52324   0.00000  Uiso   1.00
C1086  C     0.51251   0.46200   0.95378   0.00000  Uiso   1.00
C1087  C     0.48749   0.53800   0.54622   0.00000  Uiso   1.00
C1088  C     0.47406   0.57709   0.97681   0.00000  Uiso   1.00
C1089  C     0.47455   0.57633   0.52303   0.00000  Uiso   1.00
C1090  C     0.52594   0.42291   0.52319   0.00000  Uiso   1.00
C1091  C     0.37378   0.49976   0.66437   0.00000  Uiso   1.00
C1092  C     0.62622   0.50024   0.83563   0.00000  Uiso   1.00
C1093  C     0.61395   0.49952   0.66570   0.00000  Uiso   1.00
C1094  C     0.38605   0.50048   0.83430   0.00000  Uiso   1.00
C1095  C     0.55858   0.38116   0.81055   0.00000  Uiso   1.00
C1096  C     0.44142   0.61884   0.68945   0.00000  Uiso   1.00
C1097  C     0.44227   0.38051   0.68865   0.00000  Uiso   1.00
C1098  C     0.55773   0.61949   0.81134   0.00000  Uiso   1.00
C1099  C     0.52545   0.42367   0.97697   0.00000  Uiso   1.00
C1100  C     0.35258   0.49987   0.70839   0.00000  Uiso   1.00
C1101  C     0.64742   0.50013   0.79161   0.00000  Uiso   1.00
C1102  C     0.64212   0.49983   0.70870   0.00000  Uiso   1.00
C1103  C     0.35788   0.50017   0.79130   0.00000  Uiso   1.00
C1104  C     0.62392   0.49999   0.75022   0.00000  Uiso   1.00
F1105  F     0.47279   0.57554   0.88363   0.00000  Uiso   1.00
F1106  F     0.52721   0.42446   0.61637   0.00000  Uiso   1.00
F1107  F     0.46141   0.61501   0.95549   0.00000  Uiso   1.00
F1108  F     0.53859   0.38499   0.54451   0.00000  Uiso   1.00
H1109  H     0.52241   0.43322   0.89017   0.00000  Uiso   1.00
H1110  H     0.63553   0.53062   0.85514   0.00000  Uiso   1.00
H1111  H     0.59379   0.46930   0.66461   0.00000  Uiso   1.00
H1112  H     0.59355   0.52955   0.66463   0.00000  Uiso   1.00
H1113  H     0.63092   0.49941   0.63473   0.00000  Uiso   1.00
H1114  H     0.40621   0.53070   0.83539   0.00000  Uiso   1.00
H1115  H     0.36908   0.50061   0.86527   0.00000  Uiso   1.00
H1116  H     0.40645   0.47045   0.83537   0.00000  Uiso   1.00
H1117  H     0.55673   0.41721   0.80987   0.00000  Uiso   1.00
H1118  H     0.55344   0.37164   0.84541   0.00000  Uiso   1.00
H1119  H     0.59118   0.37247   0.80269   0.00000  Uiso   1.00
H1120  H     0.47759   0.56678   0.60983   0.00000  Uiso   1.00
H1121  H     0.44327   0.58279   0.69013   0.00000  Uiso   1.00
H1122  H     0.40882   0.62753   0.69731   0.00000  Uiso   1.00
H1123  H     0.44656   0.62836   0.65459   0.00000  Uiso   1.00
H1124  H     0.44370   0.41657   0.69009   0.00000  Uiso   1.00
H1125  H     0.44879   0.37121   0.65395   0.00000  Uiso   1.00
H1126  H     0.40942   0.37146   0.69507   0.00000  Uiso   1.00
H1127  H     0.55630   0.58343   0.80991   0.00000  Uiso   1.00
H1128  H     0.59058   0.62854   0.80492   0.00000  Uiso   1.00
H1129  H     0.55122   0.62879   0.84605   0.00000  Uiso   1.00
H1130  H     0.46481   0.60580   0.54073   0.00000  Uiso   1.00
H1131  H     0.53519   0.39420   0.95927   0.00000  Uiso   1.00
H1132  H     0.40859   0.49986   0.66793   0.00000  Uiso   1.00
H1133  H     0.36447   0.46938   0.64486   0.00000  Uiso   1.00
H1134  H     0.36437   0.52996   0.64504   0.00000  Uiso   1.00
H1135  H     0.59141   0.50013   0.83207   0.00000  Uiso   1.00
H1136  H     0.63564   0.47004   0.85496   0.00000  Uiso   1.00
N1137  N     0.50000   0.61907   0.75000   0.00000  Uiso   1.00
N1138  N     0.50000   0.38093   0.75000   0.00000  Uiso   1.00
O1139  O     0.43892   0.53821   0.75000   0.00000  Uiso   1.00
O1140  O     0.56108   0.46179   0.75000   0.00000  Uiso   1.00
O1141  O     0.56108   0.53821   0.75000   0.00000  Uiso   1.00
O1142  O     0.43892   0.46179   0.75000   0.00000  Uiso   1.00
O1143  O     0.49999   0.53823   0.68392   0.00000  Uiso   1.00
O1144  O     0.50001   0.46177   0.81607   0.00000  Uiso   1.00
O1145  O     0.50001   0.53823   0.81607   0.00000  Uiso   1.00
O1146  O     0.49999   0.46177   0.68392   0.00000  Uiso   1.00
Zn1147 Zn    0.50000   0.55104   0.75000   0.00000  Uiso   1.00
Zn1148 Zn    0.50000   0.44896   0.75000   0.00000  Uiso   1.00
C1149  C     0.75370   0.50000   0.74998   0.00000  Uiso   1.00
C1150  C     0.70941   0.50001   0.74978   0.00000  Uiso   1.00
C1151  C     0.86065   0.35740   0.77857   0.00000  Uiso   1.00
C1152  C     0.80602   0.64260   0.72143   0.00000  Uiso   1.00
C1153  C     0.80611   0.35706   0.72134   0.00000  Uiso   1.00
C1154  C     0.86055   0.64294   0.77866   0.00000  Uiso   1.00
C1155  C     0.83358   0.49978   0.66351   0.00000  Uiso   1.00
C1156  C     0.83309   0.50021   0.83649   0.00000  Uiso   1.00
C1157  C     0.84555   0.46254   0.90779   0.00000  Uiso   1.00
C1158  C     0.82111   0.53746   0.59221   0.00000  Uiso   1.00
C1159  C     0.83270   0.50073   0.88446   0.00000  Uiso   1.00
C1160  C     0.91297   0.50000   0.75002   0.00000  Uiso   1.00
C1161  C     0.83397   0.49927   0.61554   0.00000  Uiso   1.00
C1162  C     0.81969   0.53899   0.90692   0.00000  Uiso   1.00
C1163  C     0.84698   0.46101   0.59308   0.00000  Uiso   1.00
C1164  C     0.81995   0.53915   0.95330   0.00000  Uiso   1.00
C1165  C     0.84671   0.46085   0.54670   0.00000  Uiso   1.00
C1166  C     0.83312   0.50031   0.97676   0.00000  Uiso   1.00
C1167  C     0.83355   0.49969   0.52324   0.00000  Uiso   1.00
C1168  C     0.84584   0.46200   0.95378   0.00000  Uiso   1.00
C1169  C     0.82083   0.53800   0.54622   0.00000  Uiso   1.00
C1170  C     0.80739   0.57709   0.97681   0.00000  Uiso   1.00
C1171  C     0.80789   0.57633   0.52303   0.00000  Uiso   1.00
C1172  C     0.85928   0.42291   0.52319   0.00000  Uiso   1.00
C1173  C     0.70711   0.49976   0.66437   0.00000  Uiso   1.00
C1174  C     0.95955   0.50024   0.83563   0.00000  Uiso   1.00
C1175  C     0.94728   0.49952   0.66570   0.00000  Uiso   1.00
C1176  C     0.71938   0.50048   0.83430   0.00000  Uiso   1.00
C1177  C     0.89191   0.38116   0.81055   0.00000  Uiso   1.00
C1178  C     0.77476   0.61884   0.68945   0.00000  Uiso   1.00
C1179  C     0.77560   0.38051   0.68865   0.00000  Uiso   1.00
C1180  C     0.89106   0.61949   0.81134   0.00000  Uiso   1.00
C1181  C     0.85878   0.42367   0.97697   0.00000  Uiso   1.00
C1182  C     0.68591   0.49987   0.70839   0.00000  Uiso   1.00
C1183  C     0.98075   0.50013   0.79161   0.00000  Uiso   1.00
C1184  C     0.97545   0.49983   0.70870   0.00000  Uiso   1.00
C1185  C     0.69121   0.50017   0.79130   0.00000  Uiso   1.00
C1186  C     0.95725   0.49999   0.75022   0.00000  Uiso   1.00
F1187  F     0.80612   0.57554   0.88363   0.00000  Uiso   1.00
F1188  F     0.86055   0.42446   0.61637   0.00000  Uiso   1.00
F1189  F     0.79474   0.61501   0.95549   0.00000  Uiso   1.00
F1190  F     0.87193   0.38499   0.54451   0.00000  Uiso   1.00
H1191  H     0.85574   0.43322   0.89017   0.00000  Uiso   1.00
H1192  H     0.96886   0.53062   0.85514   0.00000  Uiso   1.00
H1193  H     0.92712   0.46930   0.66461   0.00000  Uiso   1.00
H1194  H     0.92688   0.52955   0.66463   0.00000  Uiso   1.00
H1195  H     0.96425   0.49941   0.63473   0.00000  Uiso   1.00
H1196  H     0.73955   0.53070   0.83539   0.00000  Uiso   1.00
H1197  H     0.70241   0.50061   0.86527   0.00000  Uiso   1.00
H1198  H     0.73978   0.47045   0.83537   0.00000  Uiso   1.00
H1199  H     0.89007   0.41721   0.80987   0.00000  Uiso   1.00
H1200  H     0.88678   0.37164   0.84541   0.00000  Uiso   1.00
H1201  H     0.92451   0.37247   0.80269   0.00000  Uiso   1.00
H1202  H     0.81093   0.56678   0.60983   0.00000  Uiso   1.00
H1203  H     0.77660   0.58279   0.69013   0.00000  Uiso   1.00
H1204  H     0.74216   0.62753   0.69731   0.00000  Uiso   1.00
H1205  H     0.77989   0.62836   0.65459   0.00000  Uiso   1.00
H1206  H     0.77703   0.41657   0.69009   0.00000  Uiso   1.00
H1207  H     0.78212   0.37121   0.65395   0.00000  Uiso   1.00
H1208  H     0.74275   0.37146   0.69507   0.00000  Uiso   1.00
H1209  H     0.88964   0.58343   0.80991   0.00000  Uiso   1.00
H1210  H     0.92392   0.62854   0.80492   0.00000  Uiso   1.00
H1211  H     0.88455   0.62879   0.84605   0.00000  Uiso   1.00
H1212  H     0.79814   0.60580   0.54073   0.00000  Uiso   1.00
H1213  H     0.86852   0.39420   0.95927   0.00000  Uiso   1.00
H1214  H     0.74192   0.49986   0.66793   0.00000  Uiso   1.00
H1215  H     0.69780   0.46938   0.64486   0.00000  Uiso   1.00
H1216  H     0.69770   0.52996   0.64504   0.00000  Uiso   1.00
H1217  H     0.92475   0.50013   0.83207   0.00000  Uiso   1.00
H1218  H     0.96897   0.47004   0.85496   0.00000  Uiso   1.00
N1219  N     0.83333   0.61907   0.75000   0.00000  Uiso   1.00
N1220  N     0.83333   0.38093   0.75000   0.00000  Uiso   1.00
O1221  O     0.77226   0.53821   0.75000   0.00000  Uiso   1.00
O1222  O     0.89441   0.46179   0.75000   0.00000  Uiso   1.00
O1223  O     0.89441   0.53821   0.75000   0.00000  Uiso   1.00
O1224  O     0.77226   0.46179   0.75000   0.00000  Uiso   1.00
O1225  O     0.83333   0.53823   0.68392   0.00000  Uiso   1.00
O1226  O     0.83334   0.46177   0.81607   0.00000  Uiso   1.00
O1227  O     0.83334   0.53823   0.81607   0.00000  Uiso   1.00
O1228  O     0.83333   0.46177   0.68392   0.00000  Uiso   1.00
Zn1229 Zn    0.83333   0.55104   0.75000   0.00000  Uiso   1.00
Zn1230 Zn    0.83333   0.44896   0.75000   0.00000  Uiso   1.00
C1231  C     0.08703   0.83333   0.74998   0.00000  Uiso   1.00
C1232  C     0.04275   0.83334   0.74978   0.00000  Uiso   1.00
C1233  C     0.19398   0.69073   0.77857   0.00000  Uiso   1.00
C1234  C     0.13935   0.97594   0.72143   0.00000  Uiso   1.00
C1235  C     0.13945   0.69039   0.72134   0.00000  Uiso   1.00
C1236  C     0.19389   0.97628   0.77866   0.00000  Uiso   1.00
C1237  C     0.16691   0.83312   0.66351   0.00000  Uiso   1.00
C1238  C     0.16642   0.83355   0.83649   0.00000  Uiso   1.00
C1239  C     0.17889   0.79587   0.90779   0.00000  Uiso   1.00
C1240  C     0.15445   0.87079   0.59221   0.00000  Uiso   1.00
C1241  C     0.16603   0.83406   0.88446   0.00000  Uiso   1.00
C1242  C     0.24630   0.83333   0.75002   0.00000  Uiso   1.00
C1243  C     0.16730   0.83260   0.61554   0.00000  Uiso   1.00
C1244  C     0.15302   0.87233   0.90692   0.00000  Uiso   1.00
C1245  C     0.18031   0.79434   0.59308   0.00000  Uiso   1.00
C1246  C     0.15329   0.87248   0.95330   0.00000  Uiso   1.00
C1247  C     0.18005   0.79418   0.54670   0.00000  Uiso   1.00
C1248  C     0.16645   0.83364   0.97676   0.00000  Uiso   1.00
C1249  C     0.16688   0.83303   0.52324   0.00000  Uiso   1.00
C1250  C     0.17917   0.79533   0.95378   0.00000  Uiso   1.00
C1251  C     0.15416   0.87133   0.54622   0.00000  Uiso   1.00
C1252  C     0.14072   0.91042   0.97681   0.00000  Uiso   1.00
C1253  C     0.14122   0.90966   0.52303   0.00000  Uiso   1.00
C1254  C     0.19261   0.75625   0.52319   0.00000  Uiso   1.00
C1255  C     0.04045   0.83309   0.66437   0.00000  Uiso   1.00
C1256  C     0.29289   0.83357   0.83563   0.00000  Uiso   1.00
C1257  C     0.28062   0.83285   0.66570   0.00000  Uiso   1.00
C1258  C     0.05272   0.83382   0.83430   0.00000  Uiso   1.00
C1259  C     0.22524   0.71449   0.81055   0.00000  Uiso   1.00
C1260  C     0.10809   0.95217   0.68945   0.00000  Uiso   1.00
C1261  C     0.10894   0.71384   0.68865   0.00000  Uiso   1.00
C1262  C     0.22440   0.95283   0.81134   0.00000  Uiso   1.00
C1263  C     0.19211   0.75700   0.97697   0.00000  Uiso   1.00
C1264  C     0.01925   0.83320   0.70839   0.00000  Uiso   1.00
C1265  C     0.31408   0.83347   0.79161   0.00000  Uiso   1.00
C1266  C     0.30879   0.83316   0.70870   0.00000  Uiso   1.00
C1267  C     0.02455   0.83350   0.79130   0.00000  Uiso   1.00
C1268  C     0.29059   0.83332   0.75022   0.00000  Uiso   1.00
F1269  F     0.13945   0.90888   0.88363   0.00000  Uiso   1.00
F1270  F     0.19388   0.75779   0.61637   0.00000  Uiso   1.00
F1271  F     0.12807   0.94834   0.95549   0.00000  Uiso   1.00
F1272  F     0.20526   0.71832   0.54451   0.00000  Uiso   1.00
H1273  H     0.18907   0.76655   0.89017   0.00000  Uiso   1.00
H1274  H     0.30219   0.86396   0.85514   0.00000  Uiso   1.00
H1275  H     0.26046   0.80264   0.66461   0.00000  Uiso   1.00
H1276  H     0.26021   0.86288   0.66463   0.00000  Uiso   1.00
H1277  H     0.29759   0.83274   0.63473   0.00000  Uiso   1.00
H1278  H     0.07288   0.86403   0.83539   0.00000  Uiso   1.00
H1279  H     0.03575   0.83394   0.86527   0.00000  Uiso   1.00
H1280  H     0.07312   0.80379   0.83537   0.00000  Uiso   1.00
H1281  H     0.22340   0.75054   0.80987   0.00000  Uiso   1.00
H1282  H     0.22011   0.70497   0.84541   0.00000  Uiso   1.00
H1283  H     0.25784   0.70580   0.80269   0.00000  Uiso   1.00
H1284  H     0.14426   0.90011   0.60983   0.00000  Uiso   1.00
H1285  H     0.10993   0.91612   0.69013   0.00000  Uiso   1.00
H1286  H     0.07549   0.96086   0.69731   0.00000  Uiso   1.00
H1287  H     0.11322   0.96170   0.65459   0.00000  Uiso   1.00
H1288  H     0.11036   0.74990   0.69009   0.00000  Uiso   1.00
H1289  H     0.11546   0.70454   0.65395   0.00000  Uiso   1.00
H1290  H     0.07609   0.70479   0.69507   0.00000  Uiso   1.00
H1291  H     0.22297   0.91676   0.80991   0.00000  Uiso   1.00
H1292  H     0.25725   0.96187   0.80492   0.00000  Uiso   1.00
H1293  H     0.21788   0.96213   0.84605   0.00000  Uiso   1.00
H1294  H     0.13148   0.93914   0.54073   0.00000  Uiso   1.00
H1295  H     0.20186   0.72753   0.95927   0.00000  Uiso   1.00
H1296  H     0.07525   0.83319   0.66793   0.00000  Uiso   1.00
H1297  H     0.03114   0.80271   0.64486   0.00000  Uiso   1.00
H1298  H     0.03103   0.86329   0.64504   0.00000  Uiso   1.00
H1299  H     0.25808   0.83347   0.83207   0.00000  Uiso   1.00
H1300  H     0.30230   0.80337   0.85496   0.00000  Uiso   1.00
N1301  N     0.16667   0.95240   0.75000   0.00000  Uiso   1.00
N1302  N     0.16667   0.71427   0.75000   0.00000  Uiso   1.00
O1303  O     0.10559   0.87154   0.75000   0.00000  Uiso   1.00
O1304  O     0.22774   0.79513   0.75000   0.00000  Uiso   1.00
O1305  O     0.22774   0.87154   0.75000   0.00000  Uiso   1.00
O1306  O     0.10559   0.79513   0.75000   0.00000  Uiso   1.00
O1307  O     0.16666   0.87156   0.68392   0.00000  Uiso   1.00
O1308  O     0.16667   0.79511   0.81607   0.00000  Uiso   1.00
O1309  O     0.16667   0.87156   0.81607   0.00000  Uiso   1.00
O1310  O     0.16666   0.79511   0.68392   0.00000  Uiso   1.00
Zn1311 Zn    0.16667   0.88437   0.75000   0.00000  Uiso   1.00
Zn1312 Zn    0.16667   0.78229   0.75000   0.00000  Uiso   1.00
C1313  C     0.42036   0.83333   0.74998   0.00000  Uiso   1.00
C1314  C     0.37608   0.83334   0.74978   0.00000  Uiso   1.00
C1315  C     0.52732   0.69073   0.77857   0.00000  Uiso   1.00
C1316  C     0.47268   0.97594   0.72143   0.00000  Uiso   1.00
C1317  C     0.47278   0.69039   0.72134   0.00000  Uiso   1.00
C1318  C     0.52722   0.97628   0.77866   0.00000  Uiso   1.00
C1319  C     0.50024   0.83312   0.66351   0.00000  Uiso   1.00
C1320  C     0.49976   0.83355   0.83649   0.00000  Uiso   1.00
C1321  C     0.51222   0.79587   0.90779   0.00000  Uiso   1.00
C1322  C     0.48778   0.87079   0.59221   0.00000  Uiso   1.00
C1323  C     0.49937   0.83406   0.88446   0.00000  Uiso   1.00
C1324  C     0.57964   0.83333   0.75002   0.00000  Uiso   1.00
C1325  C     0.50063   0.83260   0.61554   0.00000  Uiso   1.00
C1326  C     0.48636   0.87233   0.90692   0.00000  Uiso   1.00
C1327  C     0.51364   0.79434   0.59308   0.00000  Uiso   1.00
C1328  C     0.48662   0.87248   0.95330   0.00000  Uiso   1.00
C1329  C     0.51338   0.79418   0.54670   0.00000  Uiso   1.00
C1330  C     0.49978   0.83364   0.97676   0.00000  Uiso   1.00
C1331  C     0.50022   0.83303   0.52324   0.00000  Uiso   1.00
C1332  C     0.51251   0.79533   0.95378   0.00000  Uiso   1.00
C1333  C     0.48749   0.87133   0.54622   0.00000  Uiso   1.00
C1334  C     0.47406   0.91042   0.97681   0.00000  Uiso   1.00
C1335  C     0.47455   0.90966   0.52303   0.00000  Uiso   1.00
C1336  C     0.52594   0.75625   0.52319   0.00000  Uiso   1.00
C1337  C     0.37378   0.83309   0.66437   0.00000  Uiso   1.00
C1338  C     0.62622   0.83357   0.83563   0.00000  Uiso   1.00
C1339  C     0.61395   0.83285   0.66570   0.00000  Uiso   1.00
C1340  C     0.38605   0.83382   0.83430   0.00000  Uiso   1.00
C1341  C     0.55858   0.71449   0.81055   0.00000  Uiso   1.00
C1342  C     0.44142   0.95217   0.68945   0.00000  Uiso   1.00
C1343  C     0.44227   0.71384   0.68865   0.00000  Uiso   1.00
C1344  C     0.55773   0.95283   0.81134   0.00000  Uiso   1.00
C1345  C     0.52545   0.75700   0.97697   0.00000  Uiso   1.00
C1346  C     0.35258   0.83320   0.70839   0.00000  Uiso   1.00
C1347  C     0.64742   0.83347   0.79161   0.00000  Uiso   1.00
C1348  C     0.64212   0.83316   0.70870   0.00000  Uiso   1.00
C1349  C     0.35788   0.83350   0.79130   0.00000  Uiso   1.00
C1350  C     0.62392   0.83332   0.75022   0.00000  Uiso   1.00
F1351  F     0.47279   0.90888   0.88363   0.00000  Uiso   1.00
F1352  F     0.52721   0.75779   0.61637   0.00000  Uiso   1.00
F1353  F     0.46141   0.94834   0.95549   0.00000  Uiso   1.00
F1354  F     0.53859   0.71832   0.54451   0.00000  Uiso   1.00
H1355  H     0.52241   0.76655   0.89017   0.00000  Uiso   1.00
H1356  H     0.63553   0.86396   0.85514   0.00000  Uiso   1.00
H1357  H     0.59379   0.80264   0.66461   0.00000  Uiso   1.00
H1358  H     0.59355   0.86288   0.66463   0.00000  Uiso   1.00
H1359  H     0.63092   0.83274   0.63473   0.00000  Uiso   1.00
H1360  H     0.40621   0.86403   0.83539   0.00000  Uiso   1.00
H1361  H     0.36908   0.83394   0.86527   0.00000  Uiso   1.00
H1362  H     0.40645   0.80379   0.83537   0.00000  Uiso   1.00
H1363  H     0.55673   0.75054   0.80987   0.00000  Uiso   1.00
H1364  H     0.55344   0.70497   0.84541   0.00000  Uiso   1.00
H1365  H     0.59118   0.70580   0.80269   0.00000  Uiso   1.00
H1366  H     0.47759   0.90011   0.60983   0.00000  Uiso   1.00
H1367  H     0.44327   0.91612   0.69013   0.00000  Uiso   1.00
H1368  H     0.40882   0.96086   0.69731   0.00000  Uiso   1.00
H1369  H     0.44656   0.96170   0.65459   0.00000  Uiso   1.00
H1370  H     0.44370   0.74990   0.69009   0.00000  Uiso   1.00
H1371  H     0.44879   0.70454   0.65395   0.00000  Uiso   1.00
H1372  H     0.40942   0.70479   0.69507   0.00000  Uiso   1.00
H1373  H     0.55630   0.91676   0.80991   0.00000  Uiso   1.00
H1374  H     0.59058   0.96187   0.80492   0.00000  Uiso   1.00
H1375  H     0.55122   0.96213   0.84605   0.00000  Uiso   1.00
H1376  H     0.46481   0.93914   0.54073   0.00000  Uiso   1.00
H1377  H     0.53519   0.72753   0.95927   0.00000  Uiso   1.00
H1378  H     0.40859   0.83319   0.66793   0.00000  Uiso   1.00
H1379  H     0.36447   0.80271   0.64486   0.00000  Uiso   1.00
H1380  H     0.36437   0.86329   0.64504   0.00000  Uiso   1.00
H1381  H     0.59141   0.83347   0.83207   0.00000  Uiso   1.00
H1382  H     0.63564   0.80337   0.85496   0.00000  Uiso   1.00
N1383  N     0.50000   0.95240   0.75000   0.00000  Uiso   1.00
N1384  N     0.50000   0.71427   0.75000   0.00000  Uiso   1.00
O1385  O     0.43892   0.87154   0.75000   0.00000  Uiso   1.00
O1386  O     0.56108   0.79513   0.75000   0.00000  Uiso   1.00
O1387  O     0.56108   0.87154   0.75000   0.00000  Uiso   1.00
O1388  O     0.43892   0.79513   0.75000   0.00000  Uiso   1.00
O1389  O     0.49999   0.87156   0.68392   0.00000  Uiso   1.00
O1390  O     0.50001   0.79511   0.81607   0.00000  Uiso   1.00
O1391  O     0.50001   0.87156   0.81607   0.00000  Uiso   1.00
O1392  O     0.49999   0.79511   0.68392   0.00000  Uiso   1.00
Zn1393 Zn    0.50000   0.88437   0.75000   0.00000  Uiso   1.00
Zn1394 Zn    0.50000   0.78229   0.75000   0.00000  Uiso   1.00
C1395  C     0.75370   0.83333   0.74998   0.00000  Uiso   1.00
C1396  C     0.70941   0.83334   0.74978   0.00000  Uiso   1.00
C1397  C     0.86065   0.69073   0.77857   0.00000  Uiso   1.00
C1398  C     0.80602   0.97594   0.72143   0.00000  Uiso   1.00
C1399  C     0.80611   0.69039   0.72134   0.00000  Uiso   1.00
C1400  C     0.86055   0.97628   0.77866   0.00000  Uiso   1.00
C1401  C     0.83358   0.83312   0.66351   0.00000  Uiso   1.00
C1402  C     0.83309   0.83355   0.83649   0.00000  Uiso   1.00
C1403  C     0.84555   0.79587   0.90779   0.00000  Uiso   1.00
C1404  C     0.82111   0.87079   0.59221   0.00000  Uiso   1.00
C1405  C     0.83270   0.83406   0.88446   0.00000  Uiso   1.00
C1406  C     0.91297   0.83333   0.75002   0.00000  Uiso   1.00
C1407  C     0.83397   0.83260   0.61554   0.00000  Uiso   1.00
C1408  C     0.81969   0.87233   0.90692   0.00000  Uiso   1.00
C1409  C     0.84698   0.79434   0.59308   0.00000  Uiso   1.00
C1410  C     0.81995   0.87248   0.95330   0.00000  Uiso   1.00
C1411  C     0.84671   0.79418   0.54670   0.00000  Uiso   1.00
C1412  C     0.83312   0.83364   0.97676   0.00000  Uiso   1.00
C1413  C     0.83355   0.83303   0.52324   0.00000  Uiso   1.00
C1414  C     0.84584   0.79533   0.95378   0.00000  Uiso   1.00
C1415  C     0.82083   0.87133   0.54622   0.00000  Uiso   1.00
C1416  C     0.80739   0.91042   0.97681   0.00000  Uiso   1.00
C1417  C     0.80789   0.90966   0.52303   0.00000  Uiso   1.00
C1418  C     0.85928   0.75625   0.52319   0.00000  Uiso   1.00
C1419  C     0.70711   0.83309   0.66437   0.00000  Uiso   1.00
C1420  C     0.95955   0.83357   0.83563   0.00000  Uiso   1.00
C1421  C     0.94728   0.83285   0.66570   0.00000  Uiso   1.00
C1422  C     0.71938   0.83382   0.83430   0.00000  Uiso   1.00
C1423  C     0.89191   0.71449   0.81055   0.00000  Uiso   1.00
C1424  C     0.77476   0.95217   0.68945   0.00000  Uiso   1.00
C1425  C     0.77560   0.71384   0.68865   0.00000  Uiso   1.00
C1426  C     0.89106   0.95283   0.81134   0.00000  Uiso   1.00
C1427  C     0.85878   0.75700   0.97697   0.00000  Uiso   1.00
C1428  C     0.68591   0.83320   0.70839   0.00000  Uiso   1.00
C1429  C     0.98075   0.83347   0.79161   0.00000  Uiso   1.00
C1430  C     0.97545   0.83316   0.70870   0.00000  Uiso   1.00
C1431  C     0.69121   0.83350   0.79130   0.00000  Uiso   1.00
C1432  C     0.95725   0.83332   0.75022   0.00000  Uiso   1.00
F1433  F     0.80612   0.90888   0.88363   0.00000  Uiso   1.00
F1434  F     0.86055   0.75779   0.61637   0.00000  Uiso   1.00
F1435  F     0.79474   0.94834   0.95549   0.00000  Uiso   1.00
F1436  F     0.87193   0.71832   0.54451   0.00000  Uiso   1.00
H1437  H     0.85574   0.76655   0.89017   0.00000  Uiso   1.00
H1438  H     0.96886   0.86396   0.85514   0.00000  Uiso   1.00
H1439  H     0.92712   0.80264   0.66461   0.00000  Uiso   1.00
H1440  H     0.92688   0.86288   0.66463   0.00000  Uiso   1.00
H1441  H     0.96425   0.83274   0.63473   0.00000  Uiso   1.00
H1442  H     0.73955   0.86403   0.83539   0.00000  Uiso   1.00
H1443  H     0.70241   0.83394   0.86527   0.00000  Uiso   1.00
H1444  H     0.73978   0.80379   0.83537   0.00000  Uiso   1.00
H1445  H     0.89007   0.75054   0.80987   0.00000  Uiso   1.00
H1446  H     0.88678   0.70497   0.84541   0.00000  Uiso   1.00
H1447  H     0.92451   0.70580   0.80269   0.00000  Uiso   1.00
H1448  H     0.81093   0.90011   0.60983   0.00000  Uiso   1.00
H1449  H     0.77660   0.91612   0.69013   0.00000  Uiso   1.00
H1450  H     0.74216   0.96086   0.69731   0.00000  Uiso   1.00
H1451  H     0.77989   0.96170   0.65459   0.00000  Uiso   1.00
H1452  H     0.77703   0.74990   0.69009   0.00000  Uiso   1.00
H1453  H     0.78212   0.70454   0.65395   0.00000  Uiso   1.00
H1454  H     0.74275   0.70479   0.69507   0.00000  Uiso   1.00
H1455  H     0.88964   0.91676   0.80991   0.00000  Uiso   1.00
H1456  H     0.92392   0.96187   0.80492   0.00000  Uiso   1.00
H1457  H     0.88455   0.96213   0.84605   0.00000  Uiso   1.00
H1458  H     0.79814   0.93914   0.54073   0.00000  Uiso   1.00
H1459  H     0.86852   0.72753   0.95927   0.00000  Uiso   1.00
H1460  H     0.74192   0.83319   0.66793   0.00000  Uiso   1.00
H1461  H     0.69780   0.80271   0.64486   0.00000  Uiso   1.00
H1462  H     0.69770   0.86329   0.64504   0.00000  Uiso   1.00
H1463  H     0.92475   0.83347   0.83207   0.00000  Uiso   1.00
H1464  H     0.96897   0.80337   0.85496   0.00000  Uiso   1.00
N1465  N     0.83333   0.95240   0.75000   0.00000  Uiso   1.00
N1466  N     0.83333   0.71427   0.75000   0.00000  Uiso   1.00
O1467  O     0.77226   0.87154   0.75000   0.00000  Uiso   1.00
O1468  O     0.89441   0.79513   0.75000   0.00000  Uiso   1.00
O1469  O     0.89441   0.87154   0.75000   0.00000  Uiso   1.00
O1470  O     0.77226   0.79513   0.75000   0.00000  Uiso   1.00
O1471  O     0.83333   0.87156   0.68392   0.00000  Uiso   1.00
O1472  O     0.83334   0.79511   0.81607   0.00000  Uiso   1.00
O1473  O     0.83334   0.87156   0.81607   0.00000  Uiso   1.00
O1474  O     0.83333   0.79511   0.68392   0.00000  Uiso   1.00
Zn1475 Zn    0.83333   0.88437   0.75000   0.00000  Uiso   1.00
Zn1476 Zn    0.83333   0.78229   0.75000   0.00000  Uiso   1.00
loop_
_geom_bond_atom_site_label_1
_geom_bond_atom_site_label_2
_geom_bond_distance
_geom_bond_site_symmetry_2
_ccdc_geom_bond_type
C1     C2      1.409   .     S
C1     O76     1.290   .     A
C1     O73     1.290   .     A
C2     C37     1.408   .     A
C2     C34     1.409   .     A
C3     C29     1.513   .     S
C3     N72     1.380   .     A
C3     C498    1.434   1_545 S
C4     N71     1.380   .     A
C4     C30     1.513   .     S
C4     C251    1.434   .     S
C5     N72     1.379   .     A
C5     C31     1.513   .     S
C5     C496    1.434   1_545 S
C6     C32     1.513   .     S
C6     N71     1.379   .     A
C6     C249    1.434   .     S
C7     O77     1.303   .     A
C7     C13     1.441   .     S
C7     O80     1.299   .     A
C8     O79     1.299   .     A
C8     O78     1.303   .     A
C8     C11     1.441   .     S
C9     H43     1.084   .     S
C9     C20     1.381   .     A
C9     C11     1.395   .     A
C10    C21     1.381   .     A
C10    C13     1.395   .     A
C10    H54     1.084   .     S
C11    C14     1.404   .     A
C12    O74     1.290   .     A
C12    C38     1.409   .     S
C12    O75     1.290   .     A
C13    C15     1.404   .     A
C14    F39     1.360   .     S
C14    C16     1.392   .     A
C15    C17     1.392   .     A
C15    F40     1.360   .     S
C16    C22     1.407   .     A
C16    C18     1.416   .     A
C17    C24     1.407   .     A
C17    C19     1.416   .     A
C18    C20     1.410   .     A
C18    C757    1.395   .     S
C19    C21     1.410   .     A
C19    C756    1.395   1_554 S
C20    C33     1.397   .     A
C21    C23     1.397   .     A
C22    F41     1.358   .     S
C22    C761    1.387   .     S
C23    H64     1.084   .     S
C23    C760    1.387   1_554 S
C24    F42     1.358   .     S
C24    C771    1.387   1_554 S
C25    H67     1.110   .     S
C25    C34     1.522   .     S
C25    H68     1.110   .     S
C25    H66     1.106   .     S
C26    H44     1.110   .     S
C26    H70     1.110   .     S
C26    C35     1.522   .     S
C26    H69     1.106   .     S
C27    H45     1.110   .     S
C27    H46     1.110   .     S
C27    H47     1.105   .     S
C27    C36     1.524   .     S
C28    H50     1.110   .     S
C28    H49     1.105   .     S
C28    H48     1.110   .     S
C28    C37     1.524   .     S
C29    H51     1.084   .     S
C29    H53     1.110   .     S
C29    H52     1.109   .     S
C30    H57     1.109   .     S
C30    H56     1.110   .     S
C30    H55     1.084   .     S
C31    H58     1.084   .     S
C31    H59     1.110   .     S
C31    H60     1.110   .     S
C32    H61     1.084   .     S
C32    H63     1.110   .     S
C32    H62     1.110   .     S
C33    H65     1.084   .     S
C33    C762    1.387   .     S
C34    C200    1.395   1_455 S
C35    C38     1.409   .     A
C35    C119    1.395   .     S
C36    C38     1.408   .     A
C36    C116    1.395   .     S
C37    C199    1.395   1_455 S
N71    Zn81    2.041   .     S
N72    Zn82    2.041   .     S
O73    Zn81    1.982   .     S
O74    Zn82    1.982   .     S
O75    Zn81    1.982   .     S
O76    Zn82    1.982   .     S
O77    Zn81    2.019   .     S
O78    Zn82    2.019   .     S
O79    Zn81    2.024   .     S
O80    Zn82    2.024   .     S
C83    C84     1.409   .     S
C83    O158    1.290   .     A
C83    O155    1.290   .     A
C84    C119    1.408   .     A
C84    C116    1.409   .     A
C85    C111    1.513   .     S
C85    N154    1.380   .     A
C85    C580    1.434   1_545 S
C86    N153    1.380   .     A
C86    C112    1.513   .     S
C86    C333    1.434   .     S
C87    N154    1.379   .     A
C87    C113    1.513   .     S
C87    C578    1.434   1_545 S
C88    C114    1.513   .     S
C88    N153    1.379   .     A
C88    C331    1.434   .     S
C89    O159    1.303   .     A
C89    C95     1.441   .     S
C89    O162    1.299   .     A
C90    O161    1.299   .     A
C90    O160    1.303   .     A
C90    C93     1.441   .     S
C91    H125    1.084   .     S
C91    C102    1.381   .     A
C91    C93     1.395   .     A
C92    C103    1.381   .     A
C92    C95     1.395   .     A
C92    H136    1.084   .     S
C93    C96     1.404   .     A
C94    O156    1.290   .     A
C94    C120    1.409   .     S
C94    O157    1.290   .     A
C95    C97     1.404   .     A
C96    F121    1.360   .     S
C96    C98     1.392   .     A
C97    C99     1.392   .     A
C97    F122    1.360   .     S
C98    C104    1.407   .     A
C98    C100    1.416   .     A
C99    C106    1.407   .     A
C99    C101    1.416   .     A
C100   C102    1.410   .     A
C100   C839    1.395   .     S
C101   C103    1.410   .     A
C101   C838    1.395   1_554 S
C102   C115    1.397   .     A
C103   C105    1.397   .     A
C104   F123    1.358   .     S
C104   C843    1.387   .     S
C105   H146    1.084   .     S
C105   C842    1.387   1_554 S
C106   F124    1.358   .     S
C106   C853    1.387   1_554 S
C107   H149    1.110   .     S
C107   C116    1.522   .     S
C107   H150    1.110   .     S
C107   H148    1.106   .     S
C108   H126    1.110   .     S
C108   H152    1.110   .     S
C108   C117    1.522   .     S
C108   H151    1.106   .     S
C109   H127    1.110   .     S
C109   H128    1.110   .     S
C109   H129    1.105   .     S
C109   C118    1.524   .     S
C110   H132    1.110   .     S
C110   H131    1.105   .     S
C110   H130    1.110   .     S
C110   C119    1.524   .     S
C111   H133    1.084   .     S
C111   H135    1.110   .     S
C111   H134    1.109   .     S
C112   H139    1.109   .     S
C112   H138    1.110   .     S
C112   H137    1.084   .     S
C113   H140    1.084   .     S
C113   H141    1.110   .     S
C113   H142    1.110   .     S
C114   H143    1.084   .     S
C114   H145    1.110   .     S
C114   H144    1.110   .     S
C115   H147    1.084   .     S
C115   C844    1.387   .     S
C117   C120    1.409   .     A
C117   C201    1.395   .     S
C118   C120    1.408   .     A
C118   C198    1.395   .     S
N153   Zn163   2.041   .     S
N154   Zn164   2.041   .     S
O155   Zn163   1.982   .     S
O156   Zn164   1.982   .     S
O157   Zn163   1.982   .     S
O158   Zn164   1.982   .     S
O159   Zn163   2.019   .     S
O160   Zn164   2.019   .     S
O161   Zn163   2.024   .     S
O162   Zn164   2.024   .     S
C165   C166    1.409   .     S
C165   O240    1.290   .     A
C165   O237    1.290   .     A
C166   C201    1.408   .     A
C166   C198    1.409   .     A
C167   C193    1.513   .     S
C167   N236    1.380   .     A
C167   C662    1.434   1_545 S
C168   N235    1.380   .     A
C168   C194    1.513   .     S
C168   C415    1.434   .     S
C169   N236    1.379   .     A
C169   C195    1.513   .     S
C169   C660    1.434   1_545 S
C170   C196    1.513   .     S
C170   N235    1.379   .     A
C170   C413    1.434   .     S
C171   O241    1.303   .     A
C171   C177    1.441   .     S
C171   O244    1.299   .     A
C172   O243    1.299   .     A
C172   O242    1.303   .     A
C172   C175    1.441   .     S
C173   H207    1.084   .     S
C173   C184    1.381   .     A
C173   C175    1.395   .     A
C174   C185    1.381   .     A
C174   C177    1.395   .     A
C174   H218    1.084   .     S
C175   C178    1.404   .     A
C176   O238    1.290   .     A
C176   C202    1.409   .     S
C176   O239    1.290   .     A
C177   C179    1.404   .     A
C178   F203    1.360   .     S
C178   C180    1.392   .     A
C179   C181    1.392   .     A
C179   F204    1.360   .     S
C180   C186    1.407   .     A
C180   C182    1.416   .     A
C181   C188    1.407   .     A
C181   C183    1.416   .     A
C182   C184    1.410   .     A
C182   C921    1.395   .     S
C183   C185    1.410   .     A
C183   C920    1.395   1_554 S
C184   C197    1.397   .     A
C185   C187    1.397   .     A
C186   F205    1.358   .     S
C186   C925    1.387   .     S
C187   H228    1.084   .     S
C187   C924    1.387   1_554 S
C188   F206    1.358   .     S
C188   C935    1.387   1_554 S
C189   H231    1.110   .     S
C189   C198    1.522   .     S
C189   H232    1.110   .     S
C189   H230    1.106   .     S
C190   H208    1.110   .     S
C190   H234    1.110   .     S
C190   C199    1.522   .     S
C190   H233    1.106   .     S
C191   H209    1.110   .     S
C191   H210    1.110   .     S
C191   H211    1.105   .     S
C191   C200    1.524   .     S
C192   H214    1.110   .     S
C192   H213    1.105   .     S
C192   H212    1.110   .     S
C192   C201    1.524   .     S
C193   H215    1.084   .     S
C193   H217    1.110   .     S
C193   H216    1.109   .     S
C194   H221    1.109   .     S
C194   H220    1.110   .     S
C194   H219    1.084   .     S
C195   H222    1.084   .     S
C195   H223    1.110   .     S
C195   H224    1.110   .     S
C196   H225    1.084   .     S
C196   H227    1.110   .     S
C196   H226    1.110   .     S
C197   H229    1.084   .     S
C197   C926    1.387   .     S
C199   C202    1.409   .     A
C199   C37     1.395   1_655 S
C200   C202    1.408   .     A
C200   C34     1.395   1_655 S
N235   Zn245   2.041   .     S
N236   Zn246   2.041   .     S
O237   Zn245   1.982   .     S
O238   Zn246   1.982   .     S
O239   Zn245   1.982   .     S
O240   Zn246   1.982   .     S
O241   Zn245   2.019   .     S
O242   Zn246   2.019   .     S
O243   Zn245   2.024   .     S
O244   Zn246   2.024   .     S
C247   C248    1.409   .     S
C247   O322    1.290   .     A
C247   O319    1.290   .     A
C248   C283    1.408   .     A
C248   C280    1.409   .     A
C249   C275    1.513   .     S
C249   N318    1.380   .     A
C250   N317    1.380   .     A
C250   C276    1.513   .     S
C250   C497    1.434   .     S
C251   N318    1.379   .     A
C251   C277    1.513   .     S
C252   C278    1.513   .     S
C252   N317    1.379   .     A
C252   C495    1.434   .     S
C253   O323    1.303   .     A
C253   C259    1.441   .     S
C253   O326    1.299   .     A
C254   O325    1.299   .     A
C254   O324    1.303   .     A
C254   C257    1.441   .     S
C255   H289    1.084   .     S
C255   C266    1.381   .     A
C255   C257    1.395   .     A
C256   C267    1.381   .     A
C256   C259    1.395   .     A
C256   H300    1.084   .     S
C257   C260    1.404   .     A
C258   O320    1.290   .     A
C258   C284    1.409   .     S
C258   O321    1.290   .     A
C259   C261    1.404   .     A
C260   F285    1.360   .     S
C260   C262    1.392   .     A
C261   C263    1.392   .     A
C261   F286    1.360   .     S
C262   C268    1.407   .     A
C262   C264    1.416   .     A
C263   C270    1.407   .     A
C263   C265    1.416   .     A
C264   C266    1.410   .     A
C264   C1003   1.395   .     S
C265   C267    1.410   .     A
C265   C1002   1.395   1_554 S
C266   C279    1.397   .     A
C267   C269    1.397   .     A
C268   F287    1.358   .     S
C268   C1007   1.387   .     S
C269   H310    1.084   .     S
C269   C1006   1.387   1_554 S
C270   F288    1.358   .     S
C270   C1017   1.387   1_554 S
C271   H313    1.110   .     S
C271   C280    1.522   .     S
C271   H314    1.110   .     S
C271   H312    1.106   .     S
C272   H290    1.110   .     S
C272   H316    1.110   .     S
C272   C281    1.522   .     S
C272   H315    1.106   .     S
C273   H291    1.110   .     S
C273   H292    1.110   .     S
C273   H293    1.105   .     S
C273   C282    1.524   .     S
C274   H296    1.110   .     S
C274   H295    1.105   .     S
C274   H294    1.110   .     S
C274   C283    1.524   .     S
C275   H297    1.084   .     S
C275   H299    1.110   .     S
C275   H298    1.109   .     S
C276   H303    1.109   .     S
C276   H302    1.110   .     S
C276   H301    1.084   .     S
C277   H304    1.084   .     S
C277   H305    1.110   .     S
C277   H306    1.110   .     S
C278   H307    1.084   .     S
C278   H309    1.110   .     S
C278   H308    1.110   .     S
C279   H311    1.084   .     S
C279   C1008   1.387   .     S
C280   C446    1.395   1_455 S
C281   C284    1.409   .     A
C281   C365    1.395   .     S
C282   C284    1.408   .     A
C282   C362    1.395   .     S
C283   C445    1.395   1_455 S
N317   Zn327   2.041   .     S
N318   Zn328   2.041   .     S
O319   Zn327   1.982   .     S
O320   Zn328   1.982   .     S
O321   Zn327   1.982   .     S
O322   Zn328   1.982   .     S
O323   Zn327   2.019   .     S
O324   Zn328   2.019   .     S
O325   Zn327   2.024   .     S
O326   Zn328   2.024   .     S
C329   C330    1.409   .     S
C329   O404    1.290   .     A
C329   O401    1.290   .     A
C330   C365    1.408   .     A
C330   C362    1.409   .     A
C331   C357    1.513   .     S
C331   N400    1.380   .     A
C332   N399    1.380   .     A
C332   C358    1.513   .     S
C332   C579    1.434   .     S
C333   N400    1.379   .     A
C333   C359    1.513   .     S
C334   C360    1.513   .     S
C334   N399    1.379   .     A
C334   C577    1.434   .     S
C335   O405    1.303   .     A
C335   C341    1.441   .     S
C335   O408    1.299   .     A
C336   O407    1.299   .     A
C336   O406    1.303   .     A
C336   C339    1.441   .     S
C337   H371    1.084   .     S
C337   C348    1.381   .     A
C337   C339    1.395   .     A
C338   C349    1.381   .     A
C338   C341    1.395   .     A
C338   H382    1.084   .     S
C339   C342    1.404   .     A
C340   O402    1.290   .     A
C340   C366    1.409   .     S
C340   O403    1.290   .     A
C341   C343    1.404   .     A
C342   F367    1.360   .     S
C342   C344    1.392   .     A
C343   C345    1.392   .     A
C343   F368    1.360   .     S
C344   C350    1.407   .     A
C344   C346    1.416   .     A
C345   C352    1.407   .     A
C345   C347    1.416   .     A
C346   C348    1.410   .     A
C346   C1085   1.395   .     S
C347   C349    1.410   .     A
C347   C1084   1.395   1_554 S
C348   C361    1.397   .     A
C349   C351    1.397   .     A
C350   F369    1.358   .     S
C350   C1089   1.387   .     S
C351   H392    1.084   .     S
C351   C1088   1.387   1_554 S
C352   F370    1.358   .     S
C352   C1099   1.387   1_554 S
C353   H395    1.110   .     S
C353   C362    1.522   .     S
C353   H396    1.110   .     S
C353   H394    1.106   .     S
C354   H372    1.110   .     S
C354   H398    1.110   .     S
C354   C363    1.522   .     S
C354   H397    1.106   .     S
C355   H373    1.110   .     S
C355   H374    1.110   .     S
C355   H375    1.105   .     S
C355   C364    1.524   .     S
C356   H378    1.110   .     S
C356   H377    1.105   .     S
C356   H376    1.110   .     S
C356   C365    1.524   .     S
C357   H379    1.084   .     S
C357   H381    1.110   .     S
C357   H380    1.109   .     S
C358   H385    1.109   .     S
C358   H384    1.110   .     S
C358   H383    1.084   .     S
C359   H386    1.084   .     S
C359   H387    1.110   .     S
C359   H388    1.110   .     S
C360   H389    1.084   .     S
C360   H391    1.110   .     S
C360   H390    1.110   .     S
C361   H393    1.084   .     S
C361   C1090   1.387   .     S
C363   C366    1.409   .     A
C363   C447    1.395   .     S
C364   C366    1.408   .     A
C364   C444    1.395   .     S
N399   Zn409   2.041   .     S
N400   Zn410   2.041   .     S
O401   Zn409   1.982   .     S
O402   Zn410   1.982   .     S
O403   Zn409   1.982   .     S
O404   Zn410   1.982   .     S
O405   Zn409   2.019   .     S
O406   Zn410   2.019   .     S
O407   Zn409   2.024   .     S
O408   Zn410   2.024   .     S
C411   C412    1.409   .     S
C411   O486    1.290   .     A
C411   O483    1.290   .     A
C412   C447    1.408   .     A
C412   C444    1.409   .     A
C413   C439    1.513   .     S
C413   N482    1.380   .     A
C414   N481    1.380   .     A
C414   C440    1.513   .     S
C414   C661    1.434   .     S
C415   N482    1.379   .     A
C415   C441    1.513   .     S
C416   C442    1.513   .     S
C416   N481    1.379   .     A
C416   C659    1.434   .     S
C417   O487    1.303   .     A
C417   C423    1.441   .     S
C417   O490    1.299   .     A
C418   O489    1.299   .     A
C418   O488    1.303   .     A
C418   C421    1.441   .     S
C419   H453    1.084   .     S
C419   C430    1.381   .     A
C419   C421    1.395   .     A
C420   C431    1.381   .     A
C420   C423    1.395   .     A
C420   H464    1.084   .     S
C421   C424    1.404   .     A
C422   O484    1.290   .     A
C422   C448    1.409   .     S
C422   O485    1.290   .     A
C423   C425    1.404   .     A
C424   F449    1.360   .     S
C424   C426    1.392   .     A
C425   C427    1.392   .     A
C425   F450    1.360   .     S
C426   C432    1.407   .     A
C426   C428    1.416   .     A
C427   C434    1.407   .     A
C427   C429    1.416   .     A
C428   C430    1.410   .     A
C428   C1167   1.395   .     S
C429   C431    1.410   .     A
C429   C1166   1.395   1_554 S
C430   C443    1.397   .     A
C431   C433    1.397   .     A
C432   F451    1.358   .     S
C432   C1171   1.387   .     S
C433   H474    1.084   .     S
C433   C1170   1.387   1_554 S
C434   F452    1.358   .     S
C434   C1181   1.387   1_554 S
C435   H477    1.110   .     S
C435   C444    1.522   .     S
C435   H478    1.110   .     S
C435   H476    1.106   .     S
C436   H454    1.110   .     S
C436   H480    1.110   .     S
C436   C445    1.522   .     S
C436   H479    1.106   .     S
C437   H455    1.110   .     S
C437   H456    1.110   .     S
C437   H457    1.105   .     S
C437   C446    1.524   .     S
C438   H460    1.110   .     S
C438   H459    1.105   .     S
C438   H458    1.110   .     S
C438   C447    1.524   .     S
C439   H461    1.084   .     S
C439   H463    1.110   .     S
C439   H462    1.109   .     S
C440   H467    1.109   .     S
C440   H466    1.110   .     S
C440   H465    1.084   .     S
C441   H468    1.084   .     S
C441   H469    1.110   .     S
C441   H470    1.110   .     S
C442   H471    1.084   .     S
C442   H473    1.110   .     S
C442   H472    1.110   .     S
C443   H475    1.084   .     S
C443   C1172   1.387   .     S
C445   C448    1.409   .     A
C445   C283    1.395   1_655 S
C446   C448    1.408   .     A
C446   C280    1.395   1_655 S
N481   Zn491   2.041   .     S
N482   Zn492   2.041   .     S
O483   Zn491   1.982   .     S
O484   Zn492   1.982   .     S
O485   Zn491   1.982   .     S
O486   Zn492   1.982   .     S
O487   Zn491   2.019   .     S
O488   Zn492   2.019   .     S
O489   Zn491   2.024   .     S
O490   Zn492   2.024   .     S
C493   C494    1.409   .     S
C493   O568    1.290   .     A
C493   O565    1.290   .     A
C494   C529    1.408   .     A
C494   C526    1.409   .     A
C495   C521    1.513   .     S
C495   N564    1.380   .     A
C496   N563    1.380   .     A
C496   C522    1.513   .     S
C496   C5      1.434   1_565 S
C497   N564    1.379   .     A
C497   C523    1.513   .     S
C498   C524    1.513   .     S
C498   N563    1.379   .     A
C498   C3      1.434   1_565 S
C499   O569    1.303   .     A
C499   C505    1.441   .     S
C499   O572    1.299   .     A
C500   O571    1.299   .     A
C500   O570    1.303   .     A
C500   C503    1.441   .     S
C501   H535    1.084   .     S
C501   C512    1.381   .     A
C501   C503    1.395   .     A
C502   C513    1.381   .     A
C502   C505    1.395   .     A
C502   H546    1.084   .     S
C503   C506    1.404   .     A
C504   O566    1.290   .     A
C504   C530    1.409   .     S
C504   O567    1.290   .     A
C505   C507    1.404   .     A
C506   F531    1.360   .     S
C506   C508    1.392   .     A
C507   C509    1.392   .     A
C507   F532    1.360   .     S
C508   C514    1.407   .     A
C508   C510    1.416   .     A
C509   C516    1.407   .     A
C509   C511    1.416   .     A
C510   C512    1.410   .     A
C510   C1249   1.395   .     S
C511   C513    1.410   .     A
C511   C1248   1.395   1_554 S
C512   C525    1.397   .     A
C513   C515    1.397   .     A
C514   F533    1.358   .     S
C514   C1253   1.387   .     S
C515   H556    1.084   .     S
C515   C1252   1.387   1_554 S
C516   F534    1.358   .     S
C516   C1263   1.387   1_554 S
C517   H559    1.110   .     S
C517   C526    1.522   .     S
C517   H560    1.110   .     S
C517   H558    1.106   .     S
C518   H536    1.110   .     S
C518   H562    1.110   .     S
C518   C527    1.522   .     S
C518   H561    1.106   .     S
C519   H537    1.110   .     S
C519   H538    1.110   .     S
C519   H539    1.105   .     S
C519   C528    1.524   .     S
C520   H542    1.110   .     S
C520   H541    1.105   .     S
C520   H540    1.110   .     S
C520   C529    1.524   .     S
C521   H543    1.084   .     S
C521   H545    1.110   .     S
C521   H544    1.109   .     S
C522   H549    1.109   .     S
C522   H548    1.110   .     S
C522   H547    1.084   .     S
C523   H550    1.084   .     S
C523   H551    1.110   .     S
C523   H552    1.110   .     S
C524   H553    1.084   .     S
C524   H555    1.110   .     S
C524   H554    1.110   .     S
C525   H557    1.084   .     S
C525   C1254   1.387   .     S
C526   C692    1.395   1_455 S
C527   C530    1.409   .     A
C527   C611    1.395   .     S
C528   C530    1.408   .     A
C528   C608    1.395   .     S
C529   C691    1.395   1_455 S
N563   Zn573   2.041   .     S
N564   Zn574   2.041   .     S
O565   Zn573   1.982   .     S
O566   Zn574   1.982   .     S
O567   Zn573   1.982   .     S
O568   Zn574   1.982   .     S
O569   Zn573   2.019   .     S
O570   Zn574   2.019   .     S
O571   Zn573   2.024   .     S
O572   Zn574   2.024   .     S
C575   C576    1.409   .     S
C575   O650    1.290   .     A
C575   O647    1.290   .     A
C576   C611    1.408   .     A
C576   C608    1.409   .     A
C577   C603    1.513   .     S
C577   N646    1.380   .     A
C578   N645    1.380   .     A
C578   C604    1.513   .     S
C578   C87     1.434   1_565 S
C579   N646    1.379   .     A
C579   C605    1.513   .     S
C580   C606    1.513   .     S
C580   N645    1.379   .     A
C580   C85     1.434   1_565 S
C581   O651    1.303   .     A
C581   C587    1.441   .     S
C581   O654    1.299   .     A
C582   O653    1.299   .     A
C582   O652    1.303   .     A
C582   C585    1.441   .     S
C583   H617    1.084   .     S
C583   C594    1.381   .     A
C583   C585    1.395   .     A
C584   C595    1.381   .     A
C584   C587    1.395   .     A
C584   H628    1.084   .     S
C585   C588    1.404   .     A
C586   O648    1.290   .     A
C586   C612    1.409   .     S
C586   O649    1.290   .     A
C587   C589    1.404   .     A
C588   F613    1.360   .     S
C588   C590    1.392   .     A
C589   C591    1.392   .     A
C589   F614    1.360   .     S
C590   C596    1.407   .     A
C590   C592    1.416   .     A
C591   C598    1.407   .     A
C591   C593    1.416   .     A
C592   C594    1.410   .     A
C592   C1331   1.395   .     S
C593   C595    1.410   .     A
C593   C1330   1.395   1_554 S
C594   C607    1.397   .     A
C595   C597    1.397   .     A
C596   F615    1.358   .     S
C596   C1335   1.387   .     S
C597   H638    1.084   .     S
C597   C1334   1.387   1_554 S
C598   F616    1.358   .     S
C598   C1345   1.387   1_554 S
C599   H641    1.110   .     S
C599   C608    1.522   .     S
C599   H642    1.110   .     S
C599   H640    1.106   .     S
C600   H618    1.110   .     S
C600   H644    1.110   .     S
C600   C609    1.522   .     S
C600   H643    1.106   .     S
C601   H619    1.110   .     S
C601   H620    1.110   .     S
C601   H621    1.105   .     S
C601   C610    1.524   .     S
C602   H624    1.110   .     S
C602   H623    1.105   .     S
C602   H622    1.110   .     S
C602   C611    1.524   .     S
C603   H625    1.084   .     S
C603   H627    1.110   .     S
C603   H626    1.109   .     S
C604   H631    1.109   .     S
C604   H630    1.110   .     S
C604   H629    1.084   .     S
C605   H632    1.084   .     S
C605   H633    1.110   .     S
C605   H634    1.110   .     S
C606   H635    1.084   .     S
C606   H637    1.110   .     S
C606   H636    1.110   .     S
C607   H639    1.084   .     S
C607   C1336   1.387   .     S
C609   C612    1.409   .     A
C609   C693    1.395   .     S
C610   C612    1.408   .     A
C610   C690    1.395   .     S
N645   Zn655   2.041   .     S
N646   Zn656   2.041   .     S
O647   Zn655   1.982   .     S
O648   Zn656   1.982   .     S
O649   Zn655   1.982   .     S
O650   Zn656   1.982   .     S
O651   Zn655   2.019   .     S
O652   Zn656   2.019   .     S
O653   Zn655   2.024   .     S
O654   Zn656   2.024   .     S
C657   C658    1.409   .     S
C657   O732    1.290   .     A
C657   O729    1.290   .     A
C658   C693    1.408   .     A
C658   C690    1.409   .     A
C659   C685    1.513   .     S
C659   N728    1.380   .     A
C660   N727    1.380   .     A
C660   C686    1.513   .     S
C660   C169    1.434   1_565 S
C661   N728    1.379   .     A
C661   C687    1.513   .     S
C662   C688    1.513   .     S
C662   N727    1.379   .     A
C662   C167    1.434   1_565 S
C663   O733    1.303   .     A
C663   C669    1.441   .     S
C663   O736    1.299   .     A
C664   O735    1.299   .     A
C664   O734    1.303   .     A
C664   C667    1.441   .     S
C665   H699    1.084   .     S
C665   C676    1.381   .     A
C665   C667    1.395   .     A
C666   C677    1.381   .     A
C666   C669    1.395   .     A
C666   H710    1.084   .     S
C667   C670    1.404   .     A
C668   O730    1.290   .     A
C668   C694    1.409   .     S
C668   O731    1.290   .     A
C669   C671    1.404   .     A
C670   F695    1.360   .     S
C670   C672    1.392   .     A
C671   C673    1.392   .     A
C671   F696    1.360   .     S
C672   C678    1.407   .     A
C672   C674    1.416   .     A
C673   C680    1.407   .     A
C673   C675    1.416   .     A
C674   C676    1.410   .     A
C674   C1413   1.395   .     S
C675   C677    1.410   .     A
C675   C1412   1.395   1_554 S
C676   C689    1.397   .     A
C677   C679    1.397   .     A
C678   F697    1.358   .     S
C678   C1417   1.387   .     S
C679   H720    1.084   .     S
C679   C1416   1.387   1_554 S
C680   F698    1.358   .     S
C680   C1427   1.387   1_554 S
C681   H723    1.110   .     S
C681   C690    1.522   .     S
C681   H724    1.110   .     S
C681   H722    1.106   .     S
C682   H700    1.110   .     S
C682   H726    1.110   .     S
C682   C691    1.522   .     S
C682   H725    1.106   .     S
C683   H701    1.110   .     S
C683   H702    1.110   .     S
C683   H703    1.105   .     S
C683   C692    1.524   .     S
C684   H706    1.110   .     S
C684   H705    1.105   .     S
C684   H704    1.110   .     S
C684   C693    1.524   .     S
C685   H707    1.084   .     S
C685   H709    1.110   .     S
C685   H708    1.109   .     S
C686   H713    1.109   .     S
C686   H712    1.110   .     S
C686   H711    1.084   .     S
C687   H714    1.084   .     S
C687   H715    1.110   .     S
C687   H716    1.110   .     S
C688   H717    1.084   .     S
C688   H719    1.110   .     S
C688   H718    1.110   .     S
C689   H721    1.084   .     S
C689   C1418   1.387   .     S
C691   C694    1.409   .     A
C691   C529    1.395   1_655 S
C692   C694    1.408   .     A
C692   C526    1.395   1_655 S
N727   Zn737   2.041   .     S
N728   Zn738   2.041   .     S
O729   Zn737   1.982   .     S
O730   Zn738   1.982   .     S
O731   Zn737   1.982   .     S
O732   Zn738   1.982   .     S
O733   Zn737   2.019   .     S
O734   Zn738   2.019   .     S
O735   Zn737   2.024   .     S
O736   Zn738   2.024   .     S
C739   C740    1.409   .     S
C739   O814    1.290   .     A
C739   O811    1.290   .     A
C740   C775    1.408   .     A
C740   C772    1.409   .     A
C741   C767    1.513   .     S
C741   N810    1.380   .     A
C741   C1236   1.434   1_545 S
C742   N809    1.380   .     A
C742   C768    1.513   .     S
C742   C989    1.434   .     S
C743   N810    1.379   .     A
C743   C769    1.513   .     S
C743   C1234   1.434   1_545 S
C744   C770    1.513   .     S
C744   N809    1.379   .     A
C744   C987    1.434   .     S
C745   O815    1.303   .     A
C745   C751    1.441   .     S
C745   O818    1.299   .     A
C746   O817    1.299   .     A
C746   O816    1.303   .     A
C746   C749    1.441   .     S
C747   H781    1.084   .     S
C747   C758    1.381   .     A
C747   C749    1.395   .     A
C748   C759    1.381   .     A
C748   C751    1.395   .     A
C748   H792    1.084   .     S
C749   C752    1.404   .     A
C750   O812    1.290   .     A
C750   C776    1.409   .     S
C750   O813    1.290   .     A
C751   C753    1.404   .     A
C752   F777    1.360   .     S
C752   C754    1.392   .     A
C753   C755    1.392   .     A
C753   F778    1.360   .     S
C754   C760    1.407   .     A
C754   C756    1.416   .     A
C755   C762    1.407   .     A
C755   C757    1.416   .     A
C756   C758    1.410   .     A
C756   C19     1.395   1_556 S
C757   C759    1.410   .     A
C758   C771    1.397   .     A
C759   C761    1.397   .     A
C760   F779    1.358   .     S
C760   C23     1.387   1_556 S
C761   H802    1.084   .     S
C762   F780    1.358   .     S
C763   H805    1.110   .     S
C763   C772    1.522   .     S
C763   H806    1.110   .     S
C763   H804    1.106   .     S
C764   H782    1.110   .     S
C764   H808    1.110   .     S
C764   C773    1.522   .     S
C764   H807    1.106   .     S
C765   H783    1.110   .     S
C765   H784    1.110   .     S
C765   H785    1.105   .     S
C765   C774    1.524   .     S
C766   H788    1.110   .     S
C766   H787    1.105   .     S
C766   H786    1.110   .     S
C766   C775    1.524   .     S
C767   H789    1.084   .     S
C767   H791    1.110   .     S
C767   H790    1.109   .     S
C768   H795    1.109   .     S
C768   H794    1.110   .     S
C768   H793    1.084   .     S
C769   H796    1.084   .     S
C769   H797    1.110   .     S
C769   H798    1.110   .     S
C770   H799    1.084   .     S
C770   H801    1.110   .     S
C770   H800    1.110   .     S
C771   H803    1.084   .     S
C771   C24     1.387   1_556 S
C772   C938    1.395   1_455 S
C773   C776    1.409   .     A
C773   C857    1.395   .     S
C774   C776    1.408   .     A
C774   C854    1.395   .     S
C775   C937    1.395   1_455 S
N809   Zn819   2.041   .     S
N810   Zn820   2.041   .     S
O811   Zn819   1.982   .     S
O812   Zn820   1.982   .     S
O813   Zn819   1.982   .     S
O814   Zn820   1.982   .     S
O815   Zn819   2.019   .     S
O816   Zn820   2.019   .     S
O817   Zn819   2.024   .     S
O818   Zn820   2.024   .     S
C821   C822    1.409   .     S
C821   O896    1.290   .     A
C821   O893    1.290   .     A
C822   C857    1.408   .     A
C822   C854    1.409   .     A
C823   C849    1.513   .     S
C823   N892    1.380   .     A
C823   C1318   1.434   1_545 S
C824   N891    1.380   .     A
C824   C850    1.513   .     S
C824   C1071   1.434   .     S
C825   N892    1.379   .     A
C825   C851    1.513   .     S
C825   C1316   1.434   1_545 S
C826   C852    1.513   .     S
C826   N891    1.379   .     A
C826   C1069   1.434   .     S
C827   O897    1.303   .     A
C827   C833    1.441   .     S
C827   O900    1.299   .     A
C828   O899    1.299   .     A
C828   O898    1.303   .     A
C828   C831    1.441   .     S
C829   H863    1.084   .     S
C829   C840    1.381   .     A
C829   C831    1.395   .     A
C830   C841    1.381   .     A
C830   C833    1.395   .     A
C830   H874    1.084   .     S
C831   C834    1.404   .     A
C832   O894    1.290   .     A
C832   C858    1.409   .     S
C832   O895    1.290   .     A
C833   C835    1.404   .     A
C834   F859    1.360   .     S
C834   C836    1.392   .     A
C835   C837    1.392   .     A
C835   F860    1.360   .     S
C836   C842    1.407   .     A
C836   C838    1.416   .     A
C837   C844    1.407   .     A
C837   C839    1.416   .     A
C838   C840    1.410   .     A
C838   C101    1.395   1_556 S
C839   C841    1.410   .     A
C840   C853    1.397   .     A
C841   C843    1.397   .     A
C842   F861    1.358   .     S
C842   C105    1.387   1_556 S
C843   H884    1.084   .     S
C844   F862    1.358   .     S
C845   H887    1.110   .     S
C845   C854    1.522   .     S
C845   H888    1.110   .     S
C845   H886    1.106   .     S
C846   H864    1.110   .     S
C846   H890    1.110   .     S
C846   C855    1.522   .     S
C846   H889    1.106   .     S
C847   H865    1.110   .     S
C847   H866    1.110   .     S
C847   H867    1.105   .     S
C847   C856    1.524   .     S
C848   H870    1.110   .     S
C848   H869    1.105   .     S
C848   H868    1.110   .     S
C848   C857    1.524   .     S
C849   H871    1.084   .     S
C849   H873    1.110   .     S
C849   H872    1.109   .     S
C850   H877    1.109   .     S
C850   H876    1.110   .     S
C850   H875    1.084   .     S
C851   H878    1.084   .     S
C851   H879    1.110   .     S
C851   H880    1.110   .     S
C852   H881    1.084   .     S
C852   H883    1.110   .     S
C852   H882    1.110   .     S
C853   H885    1.084   .     S
C853   C106    1.387   1_556 S
C855   C858    1.409   .     A
C855   C939    1.395   .     S
C856   C858    1.408   .     A
C856   C936    1.395   .     S
N891   Zn901   2.041   .     S
N892   Zn902   2.041   .     S
O893   Zn901   1.982   .     S
O894   Zn902   1.982   .     S
O895   Zn901   1.982   .     S
O896   Zn902   1.982   .     S
O897   Zn901   2.019   .     S
O898   Zn902   2.019   .     S
O899   Zn901   2.024   .     S
O900   Zn902   2.024   .     S
C903   C904    1.409   .     S
C903   O978    1.290   .     A
C903   O975    1.290   .     A
C904   C939    1.408   .     A
C904   C936    1.409   .     A
C905   C931    1.513   .     S
C905   N974    1.380   .     A
C905   C1400   1.434   1_545 S
C906   N973    1.380   .     A
C906   C932    1.513   .     S
C906   C1153   1.434   .     S
C907   N974    1.379   .     A
C907   C933    1.513   .     S
C907   C1398   1.434   1_545 S
C908   C934    1.513   .     S
C908   N973    1.379   .     A
C908   C1151   1.434   .     S
C909   O979    1.303   .     A
C909   C915    1.441   .     S
C909   O982    1.299   .     A
C910   O981    1.299   .     A
C910   O980    1.303   .     A
C910   C913    1.441   .     S
C911   H945    1.084   .     S
C911   C922    1.381   .     A
C911   C913    1.395   .     A
C912   C923    1.381   .     A
C912   C915    1.395   .     A
C912   H956    1.084   .     S
C913   C916    1.404   .     A
C914   O976    1.290   .     A
C914   C940    1.409   .     S
C914   O977    1.290   .     A
C915   C917    1.404   .     A
C916   F941    1.360   .     S
C916   C918    1.392   .     A
C917   C919    1.392   .     A
C917   F942    1.360   .     S
C918   C924    1.407   .     A
C918   C920    1.416   .     A
C919   C926    1.407   .     A
C919   C921    1.416   .     A
C920   C922    1.410   .     A
C920   C183    1.395   1_556 S
C921   C923    1.410   .     A
C922   C935    1.397   .     A
C923   C925    1.397   .     A
C924   F943    1.358   .     S
C924   C187    1.387   1_556 S
C925   H966    1.084   .     S
C926   F944    1.358   .     S
C927   H969    1.110   .     S
C927   C936    1.522   .     S
C927   H970    1.110   .     S
C927   H968    1.106   .     S
C928   H946    1.110   .     S
C928   H972    1.110   .     S
C928   C937    1.522   .     S
C928   H971    1.106   .     S
C929   H947    1.110   .     S
C929   H948    1.110   .     S
C929   H949    1.105   .     S
C929   C938    1.524   .     S
C930   H952    1.110   .     S
C930   H951    1.105   .     S
C930   H950    1.110   .     S
C930   C939    1.524   .     S
C931   H953    1.084   .     S
C931   H955    1.110   .     S
C931   H954    1.109   .     S
C932   H959    1.109   .     S
C932   H958    1.110   .     S
C932   H957    1.084   .     S
C933   H960    1.084   .     S
C933   H961    1.110   .     S
C933   H962    1.110   .     S
C934   H963    1.084   .     S
C934   H965    1.110   .     S
C934   H964    1.110   .     S
C935   H967    1.084   .     S
C935   C188    1.387   1_556 S
C937   C940    1.409   .     A
C937   C775    1.395   1_655 S
C938   C940    1.408   .     A
C938   C772    1.395   1_655 S
N973   Zn983   2.041   .     S
N974   Zn984   2.041   .     S
O975   Zn983   1.982   .     S
O976   Zn984   1.982   .     S
O977   Zn983   1.982   .     S
O978   Zn984   1.982   .     S
O979   Zn983   2.019   .     S
O980   Zn984   2.019   .     S
O981   Zn983   2.024   .     S
O982   Zn984   2.024   .     S
C985   C986    1.409   .     S
C985   O1060   1.290   .     A
C985   O1057   1.290   .     A
C986   C1021   1.408   .     A
C986   C1018   1.409   .     A
C987   C1013   1.513   .     S
C987   N1056   1.380   .     A
C988   N1055   1.380   .     A
C988   C1014   1.513   .     S
C988   C1235   1.434   .     S
C989   N1056   1.379   .     A
C989   C1015   1.513   .     S
C990   C1016   1.513   .     S
C990   N1055   1.379   .     A
C990   C1233   1.434   .     S
C991   O1061   1.303   .     A
C991   C997    1.441   .     S
C991   O1064   1.299   .     A
C992   O1063   1.299   .     A
C992   O1062   1.303   .     A
C992   C995    1.441   .     S
C993   H1027   1.084   .     S
C993   C1004   1.381   .     A
C993   C995    1.395   .     A
C994   C1005   1.381   .     A
C994   C997    1.395   .     A
C994   H1038   1.084   .     S
C995   C998    1.404   .     A
C996   O1058   1.290   .     A
C996   C1022   1.409   .     S
C996   O1059   1.290   .     A
C997   C999    1.404   .     A
C998   F1023   1.360   .     S
C998   C1000   1.392   .     A
C999   C1001   1.392   .     A
C999   F1024   1.360   .     S
C1000  C1006   1.407   .     A
C1000  C1002   1.416   .     A
C1001  C1008   1.407   .     A
C1001  C1003   1.416   .     A
C1002  C1004   1.410   .     A
C1002  C265    1.395   1_556 S
C1003  C1005   1.410   .     A
C1004  C1017   1.397   .     A
C1005  C1007   1.397   .     A
C1006  F1025   1.358   .     S
C1006  C269    1.387   1_556 S
C1007  H1048   1.084   .     S
C1008  F1026   1.358   .     S
C1009  H1051   1.110   .     S
C1009  C1018   1.522   .     S
C1009  H1052   1.110   .     S
C1009  H1050   1.106   .     S
C1010  H1028   1.110   .     S
C1010  H1054   1.110   .     S
C1010  C1019   1.522   .     S
C1010  H1053   1.106   .     S
C1011  H1029   1.110   .     S
C1011  H1030   1.110   .     S
C1011  H1031   1.105   .     S
C1011  C1020   1.524   .     S
C1012  H1034   1.110   .     S
C1012  H1033   1.105   .     S
C1012  H1032   1.110   .     S
C1012  C1021   1.524   .     S
C1013  H1035   1.084   .     S
C1013  H1037   1.110   .     S
C1013  H1036   1.109   .     S
C1014  H1041   1.109   .     S
C1014  H1040   1.110   .     S
C1014  H1039   1.084   .     S
C1015  H1042   1.084   .     S
C1015  H1043   1.110   .     S
C1015  H1044   1.110   .     S
C1016  H1045   1.084   .     S
C1016  H1047   1.110   .     S
C1016  H1046   1.110   .     S
C1017  H1049   1.084   .     S
C1017  C270    1.387   1_556 S
C1018  C1184   1.395   1_455 S
C1019  C1022   1.409   .     A
C1019  C1103   1.395   .     S
C1020  C1022   1.408   .     A
C1020  C1100   1.395   .     S
C1021  C1183   1.395   1_455 S
N1055  Zn1065  2.041   .     S
N1056  Zn1066  2.041   .     S
O1057  Zn1065  1.982   .     S
O1058  Zn1066  1.982   .     S
O1059  Zn1065  1.982   .     S
O1060  Zn1066  1.982   .     S
O1061  Zn1065  2.019   .     S
O1062  Zn1066  2.019   .     S
O1063  Zn1065  2.024   .     S
O1064  Zn1066  2.024   .     S
C1067  C1068   1.409   .     S
C1067  O1142   1.290   .     A
C1067  O1139   1.290   .     A
C1068  C1103   1.408   .     A
C1068  C1100   1.409   .     A
C1069  C1095   1.513   .     S
C1069  N1138   1.380   .     A
C1070  N1137   1.380   .     A
C1070  C1096   1.513   .     S
C1070  C1317   1.434   .     S
C1071  N1138   1.379   .     A
C1071  C1097   1.513   .     S
C1072  C1098   1.513   .     S
C1072  N1137   1.379   .     A
C1072  C1315   1.434   .     S
C1073  O1143   1.303   .     A
C1073  C1079   1.441   .     S
C1073  O1146   1.299   .     A
C1074  O1145   1.299   .     A
C1074  O1144   1.303   .     A
C1074  C1077   1.441   .     S
C1075  H1109   1.084   .     S
C1075  C1086   1.381   .     A
C1075  C1077   1.395   .     A
C1076  C1087   1.381   .     A
C1076  C1079   1.395   .     A
C1076  H1120   1.084   .     S
C1077  C1080   1.404   .     A
C1078  O1140   1.290   .     A
C1078  C1104   1.409   .     S
C1078  O1141   1.290   .     A
C1079  C1081   1.404   .     A
C1080  F1105   1.360   .     S
C1080  C1082   1.392   .     A
C1081  C1083   1.392   .     A
C1081  F1106   1.360   .     S
C1082  C1088   1.407   .     A
C1082  C1084   1.416   .     A
C1083  C1090   1.407   .     A
C1083  C1085   1.416   .     A
C1084  C1086   1.410   .     A
C1084  C347    1.395   1_556 S
C1085  C1087   1.410   .     A
C1086  C1099   1.397   .     A
C1087  C1089   1.397   .     A
C1088  F1107   1.358   .     S
C1088  C351    1.387   1_556 S
C1089  H1130   1.084   .     S
C1090  F1108   1.358   .     S
C1091  H1133   1.110   .     S
C1091  C1100   1.522   .     S
C1091  H1134   1.110   .     S
C1091  H1132   1.106   .     S
C1092  H1110   1.110   .     S
C1092  H1136   1.110   .     S
C1092  C1101   1.522   .     S
C1092  H1135   1.106   .     S
C1093  H1111   1.110   .     S
C1093  H1112   1.110   .     S
C1093  H1113   1.105   .     S
C1093  C1102   1.524   .     S
C1094  H1116   1.110   .     S
C1094  H1115   1.105   .     S
C1094  H1114   1.110   .     S
C1094  C1103   1.524   .     S
C1095  H1117   1.084   .     S
C1095  H1119   1.110   .     S
C1095  H1118   1.109   .     S
C1096  H1123   1.109   .     S
C1096  H1122   1.110   .     S
C1096  H1121   1.084   .     S
C1097  H1124   1.084   .     S
C1097  H1125   1.110   .     S
C1097  H1126   1.110   .     S
C1098  H1127   1.084   .     S
C1098  H1129   1.110   .     S
C1098  H1128   1.110   .     S
C1099  H1131   1.084   .     S
C1099  C352    1.387   1_556 S
C1101  C1104   1.409   .     A
C1101  C1185   1.395   .     S
C1102  C1104   1.408   .     A
C1102  C1182   1.395   .     S
N1137  Zn1147  2.041   .     S
N1138  Zn1148  2.041   .     S
O1139  Zn1147  1.982   .     S
O1140  Zn1148  1.982   .     S
O1141  Zn1147  1.982   .     S
O1142  Zn1148  1.982   .     S
O1143  Zn1147  2.019   .     S
O1144  Zn1148  2.019   .     S
O1145  Zn1147  2.024   .     S
O1146  Zn1148  2.024   .     S
C1149  C1150   1.409   .     S
C1149  O1224   1.290   .     A
C1149  O1221   1.290   .     A
C1150  C1185   1.408   .     A
C1150  C1182   1.409   .     A
C1151  C1177   1.513   .     S
C1151  N1220   1.380   .     A
C1152  N1219   1.380   .     A
C1152  C1178   1.513   .     S
C1152  C1399   1.434   .     S
C1153  N1220   1.379   .     A
C1153  C1179   1.513   .     S
C1154  C1180   1.513   .     S
C1154  N1219   1.379   .     A
C1154  C1397   1.434   .     S
C1155  O1225   1.303   .     A
C1155  C1161   1.441   .     S
C1155  O1228   1.299   .     A
C1156  O1227   1.299   .     A
C1156  O1226   1.303   .     A
C1156  C1159   1.441   .     S
C1157  H1191   1.084   .     S
C1157  C1168   1.381   .     A
C1157  C1159   1.395   .     A
C1158  C1169   1.381   .     A
C1158  C1161   1.395   .     A
C1158  H1202   1.084   .     S
C1159  C1162   1.404   .     A
C1160  O1222   1.290   .     A
C1160  C1186   1.409   .     S
C1160  O1223   1.290   .     A
C1161  C1163   1.404   .     A
C1162  F1187   1.360   .     S
C1162  C1164   1.392   .     A
C1163  C1165   1.392   .     A
C1163  F1188   1.360   .     S
C1164  C1170   1.407   .     A
C1164  C1166   1.416   .     A
C1165  C1172   1.407   .     A
C1165  C1167   1.416   .     A
C1166  C1168   1.410   .     A
C1166  C429    1.395   1_556 S
C1167  C1169   1.410   .     A
C1168  C1181   1.397   .     A
C1169  C1171   1.397   .     A
C1170  F1189   1.358   .     S
C1170  C433    1.387   1_556 S
C1171  H1212   1.084   .     S
C1172  F1190   1.358   .     S
C1173  H1215   1.110   .     S
C1173  C1182   1.522   .     S
C1173  H1216   1.110   .     S
C1173  H1214   1.106   .     S
C1174  H1192   1.110   .     S
C1174  H1218   1.110   .     S
C1174  C1183   1.522   .     S
C1174  H1217   1.106   .     S
C1175  H1193   1.110   .     S
C1175  H1194   1.110   .     S
C1175  H1195   1.105   .     S
C1175  C1184   1.524   .     S
C1176  H1198   1.110   .     S
C1176  H1197   1.105   .     S
C1176  H1196   1.110   .     S
C1176  C1185   1.524   .     S
C1177  H1199   1.084   .     S
C1177  H1201   1.110   .     S
C1177  H1200   1.109   .     S
C1178  H1205   1.109   .     S
C1178  H1204   1.110   .     S
C1178  H1203   1.084   .     S
C1179  H1206   1.084   .     S
C1179  H1207   1.110   .     S
C1179  H1208   1.110   .     S
C1180  H1209   1.084   .     S
C1180  H1211   1.110   .     S
C1180  H1210   1.110   .     S
C1181  H1213   1.084   .     S
C1181  C434    1.387   1_556 S
C1183  C1186   1.409   .     A
C1183  C1021   1.395   1_655 S
C1184  C1186   1.408   .     A
C1184  C1018   1.395   1_655 S
N1219  Zn1229  2.041   .     S
N1220  Zn1230  2.041   .     S
O1221  Zn1229  1.982   .     S
O1222  Zn1230  1.982   .     S
O1223  Zn1229  1.982   .     S
O1224  Zn1230  1.982   .     S
O1225  Zn1229  2.019   .     S
O1226  Zn1230  2.019   .     S
O1227  Zn1229  2.024   .     S
O1228  Zn1230  2.024   .     S
C1231  C1232   1.409   .     S
C1231  O1306   1.290   .     A
C1231  O1303   1.290   .     A
C1232  C1267   1.408   .     A
C1232  C1264   1.409   .     A
C1233  C1259   1.513   .     S
C1233  N1302   1.380   .     A
C1234  N1301   1.380   .     A
C1234  C1260   1.513   .     S
C1234  C743    1.434   1_565 S
C1235  N1302   1.379   .     A
C1235  C1261   1.513   .     S
C1236  C1262   1.513   .     S
C1236  N1301   1.379   .     A
C1236  C741    1.434   1_565 S
C1237  O1307   1.303   .     A
C1237  C1243   1.441   .     S
C1237  O1310   1.299   .     A
C1238  O1309   1.299   .     A
C1238  O1308   1.303   .     A
C1238  C1241   1.441   .     S
C1239  H1273   1.084   .     S
C1239  C1250   1.381   .     A
C1239  C1241   1.395   .     A
C1240  C1251   1.381   .     A
C1240  C1243   1.395   .     A
C1240  H1284   1.084   .     S
C1241  C1244   1.404   .     A
C1242  O1304   1.290   .     A
C1242  C1268   1.409   .     S
C1242  O1305   1.290   .     A
C1243  C1245   1.404   .     A
C1244  F1269   1.360   .     S
C1244  C1246   1.392   .     A
C1245  C1247   1.392   .     A
C1245  F1270   1.360   .     S
C1246  C1252   1.407   .     A
C1246  C1248   1.416   .     A
C1247  C1254   1.407   .     A
C1247  C1249   1.416   .     A
C1248  C1250   1.410   .     A
C1248  C511    1.395   1_556 S
C1249  C1251   1.410   .     A
C1250  C1263   1.397   .     A
C1251  C1253   1.397   .     A
C1252  F1271   1.358   .     S
C1252  C515    1.387   1_556 S
C1253  H1294   1.084   .     S
C1254  F1272   1.358   .     S
C1255  H1297   1.110   .     S
C1255  C1264   1.522   .     S
C1255  H1298   1.110   .     S
C1255  H1296   1.106   .     S
C1256  H1274   1.110   .     S
C1256  H1300   1.110   .     S
C1256  C1265   1.522   .     S
C1256  H1299   1.106   .     S
C1257  H1275   1.110   .     S
C1257  H1276   1.110   .     S
C1257  H1277   1.105   .     S
C1257  C1266   1.524   .     S
C1258  H1280   1.110   .     S
C1258  H1279   1.105   .     S
C1258  H1278   1.110   .     S
C1258  C1267   1.524   .     S
C1259  H1281   1.084   .     S
C1259  H1283   1.110   .     S
C1259  H1282   1.109   .     S
C1260  H1287   1.109   .     S
C1260  H1286   1.110   .     S
C1260  H1285   1.084   .     S
C1261  H1288   1.084   .     S
C1261  H1289   1.110   .     S
C1261  H1290   1.110   .     S
C1262  H1291   1.084   .     S
C1262  H1293   1.110   .     S
C1262  H1292   1.110   .     S
C1263  H1295   1.084   .     S
C1263  C516    1.387   1_556 S
C1264  C1430   1.395   1_455 S
C1265  C1268   1.409   .     A
C1265  C1349   1.395   .     S
C1266  C1268   1.408   .     A
C1266  C1346   1.395   .     S
C1267  C1429   1.395   1_455 S
N1301  Zn1311  2.041   .     S
N1302  Zn1312  2.041   .     S
O1303  Zn1311  1.982   .     S
O1304  Zn1312  1.982   .     S
O1305  Zn1311  1.982   .     S
O1306  Zn1312  1.982   .     S
O1307  Zn1311  2.019   .     S
O1308  Zn1312  2.019   .     S
O1309  Zn1311  2.024   .     S
O1310  Zn1312  2.024   .     S
C1313  C1314   1.409   .     S
C1313  O1388   1.290   .     A
C1313  O1385   1.290   .     A
C1314  C1349   1.408   .     A
C1314  C1346   1.409   .     A
C1315  C1341   1.513   .     S
C1315  N1384   1.380   .     A
C1316  N1383   1.380   .     A
C1316  C1342   1.513   .     S
C1316  C825    1.434   1_565 S
C1317  N1384   1.379   .     A
C1317  C1343   1.513   .     S
C1318  C1344   1.513   .     S
C1318  N1383   1.379   .     A
C1318  C823    1.434   1_565 S
C1319  O1389   1.303   .     A
C1319  C1325   1.441   .     S
C1319  O1392   1.299   .     A
C1320  O1391   1.299   .     A
C1320  O1390   1.303   .     A
C1320  C1323   1.441   .     S
C1321  H1355   1.084   .     S
C1321  C1332   1.381   .     A
C1321  C1323   1.395   .     A
C1322  C1333   1.381   .     A
C1322  C1325   1.395   .     A
C1322  H1366   1.084   .     S
C1323  C1326   1.404   .     A
C1324  O1386   1.290   .     A
C1324  C1350   1.409   .     S
C1324  O1387   1.290   .     A
C1325  C1327   1.404   .     A
C1326  F1351   1.360   .     S
C1326  C1328   1.392   .     A
C1327  C1329   1.392   .     A
C1327  F1352   1.360   .     S
C1328  C1334   1.407   .     A
C1328  C1330   1.416   .     A
C1329  C1336   1.407   .     A
C1329  C1331   1.416   .     A
C1330  C1332   1.410   .     A
C1330  C593    1.395   1_556 S
C1331  C1333   1.410   .     A
C1332  C1345   1.397   .     A
C1333  C1335   1.397   .     A
C1334  F1353   1.358   .     S
C1334  C597    1.387   1_556 S
C1335  H1376   1.084   .     S
C1336  F1354   1.358   .     S
C1337  H1379   1.110   .     S
C1337  C1346   1.522   .     S
C1337  H1380   1.110   .     S
C1337  H1378   1.106   .     S
C1338  H1356   1.110   .     S
C1338  H1382   1.110   .     S
C1338  C1347   1.522   .     S
C1338  H1381   1.106   .     S
C1339  H1357   1.110   .     S
C1339  H1358   1.110   .     S
C1339  H1359   1.105   .     S
C1339  C1348   1.524   .     S
C1340  H1362   1.110   .     S
C1340  H1361   1.105   .     S
C1340  H1360   1.110   .     S
C1340  C1349   1.524   .     S
C1341  H1363   1.084   .     S
C1341  H1365   1.110   .     S
C1341  H1364   1.109   .     S
C1342  H1369   1.109   .     S
C1342  H1368   1.110   .     S
C1342  H1367   1.084   .     S
C1343  H1370   1.084   .     S
C1343  H1371   1.110   .     S
C1343  H1372   1.110   .     S
C1344  H1373   1.084   .     S
C1344  H1375   1.110   .     S
C1344  H1374   1.110   .     S
C1345  H1377   1.084   .     S
C1345  C598    1.387   1_556 S
C1347  C1350   1.409   .     A
C1347  C1431   1.395   .     S
C1348  C1350   1.408   .     A
C1348  C1428   1.395   .     S
N1383  Zn1393  2.041   .     S
N1384  Zn1394  2.041   .     S
O1385  Zn1393  1.982   .     S
O1386  Zn1394  1.982   .     S
O1387  Zn1393  1.982   .     S
O1388  Zn1394  1.982   .     S
O1389  Zn1393  2.019   .     S
O1390  Zn1394  2.019   .     S
O1391  Zn1393  2.024   .     S
O1392  Zn1394  2.024   .     S
C1395  C1396   1.409   .     S
C1395  O1470   1.290   .     A
C1395  O1467   1.290   .     A
C1396  C1431   1.408   .     A
C1396  C1428   1.409   .     A
C1397  C1423   1.513   .     S
C1397  N1466   1.380   .     A
C1398  N1465   1.380   .     A
C1398  C1424   1.513   .     S
C1398  C907    1.434   1_565 S
C1399  N1466   1.379   .     A
C1399  C1425   1.513   .     S
C1400  C1426   1.513   .     S
C1400  N1465   1.379   .     A
C1400  C905    1.434   1_565 S
C1401  O1471   1.303   .     A
C1401  C1407   1.441   .     S
C1401  O1474   1.299   .     A
C1402  O1473   1.299   .     A
C1402  O1472   1.303   .     A
C1402  C1405   1.441   .     S
C1403  H1437   1.084   .     S
C1403  C1414   1.381   .     A
C1403  C1405   1.395   .     A
C1404  C1415   1.381   .     A
C1404  C1407   1.395   .     A
C1404  H1448   1.084   .     S
C1405  C1408   1.404   .     A
C1406  O1468   1.290   .     A
C1406  C1432   1.409   .     S
C1406  O1469   1.290   .     A
C1407  C1409   1.404   .     A
C1408  F1433   1.360   .     S
C1408  C1410   1.392   .     A
C1409  C1411   1.392   .     A
C1409  F1434   1.360   .     S
C1410  C1416   1.407   .     A
C1410  C1412   1.416   .     A
C1411  C1418   1.407   .     A
C1411  C1413   1.416   .     A
C1412  C1414   1.410   .     A
C1412  C675    1.395   1_556 S
C1413  C1415   1.410   .     A
C1414  C1427   1.397   .     A
C1415  C1417   1.397   .     A
C1416  F1435   1.358   .     S
C1416  C679    1.387   1_556 S
C1417  H1458   1.084   .     S
C1418  F1436   1.358   .     S
C1419  H1461   1.110   .     S
C1419  C1428   1.522   .     S
C1419  H1462   1.110   .     S
C1419  H1460   1.106   .     S
C1420  H1438   1.110   .     S
C1420  H1464   1.110   .     S
C1420  C1429   1.522   .     S
C1420  H1463   1.106   .     S
C1421  H1439   1.110   .     S
C1421  H1440   1.110   .     S
C1421  H1441   1.105   .     S
C1421  C1430   1.524   .     S
C1422  H1444   1.110   .     S
C1422  H1443   1.105   .     S
C1422  H1442   1.110   .     S
C1422  C1431   1.524   .     S
C1423  H1445   1.084   .     S
C1423  H1447   1.110   .     S
C1423  H1446   1.109   .     S
C1424  H1451   1.109   .     S
C1424  H1450   1.110   .     S
C1424  H1449   1.084   .     S
C1425  H1452   1.084   .     S
C1425  H1453   1.110   .     S
C1425  H1454   1.110   .     S
C1426  H1455   1.084   .     S
C1426  H1457   1.110   .     S
C1426  H1456   1.110   .     S
C1427  H1459   1.084   .     S
C1427  C680    1.387   1_556 S
C1429  C1432   1.409   .     A
C1429  C1267   1.395   1_655 S
C1430  C1432   1.408   .     A
C1430  C1264   1.395   1_655 S
N1465  Zn1475  2.041   .     S
N1466  Zn1476  2.041   .     S
O1467  Zn1475  1.982   .     S
O1468  Zn1476  1.982   .     S
O1469  Zn1475  1.982   .     S
O1470  Zn1476  1.982   .     S
O1471  Zn1475  2.019   .     S
O1472  Zn1476  2.019   .     S
O1473  Zn1475  2.024   .     S
O1474  Zn1476  2.024   .     S
