data_str_m2_o1_o10_pcu_sym.131
_audit_creation_date              2020-01-03
_audit_creation_method            'Materials Studio'
_symmetry_space_group_name_H-M    'P1'
_symmetry_Int_Tables_number       1
_symmetry_cell_setting            triclinic
loop_
_symmetry_equiv_pos_as_xyz
  x,y,z
_cell_length_a                    26.5618
_cell_length_b                    32.2863
_cell_length_c                    28.7756
_cell_angle_alpha                 91.2961
_cell_angle_beta                  98.4535
_cell_angle_gamma                 92.6566
loop_
_atom_site_label
_atom_site_type_symbol
_atom_site_fract_x
_atom_site_fract_y
_atom_site_fract_z
_atom_site_U_iso_or_equiv
_atom_site_adp_type
_atom_site_occupancy
C1     C     0.16766   0.08754   0.16643   0.00000  Uiso   1.00
C2     C     0.16566   0.24579   0.16690   0.00000  Uiso   1.00
C3     C     0.06815   0.16658   0.15470   0.00000  Uiso   1.00
C4     C     0.26518   0.16676   0.17864   0.00000  Uiso   1.00
C5     C     0.01321   0.16555   0.14800   0.00000  Uiso   1.00
C6     C     0.32013   0.16781   0.18533   0.00000  Uiso   1.00
C7     C     0.13263   0.02009   0.13395   0.00000  Uiso   1.00
C8     C     0.20068   0.31325   0.19938   0.00000  Uiso   1.00
C9     C     0.13044   0.31045   0.13438   0.00000  Uiso   1.00
C10    C     0.20287   0.02288   0.19895   0.00000  Uiso   1.00
C11    C     0.16484   0.29039   0.16724   0.00000  Uiso   1.00
C12    C     0.16847   0.04294   0.16609   0.00000  Uiso   1.00
C13    C     0.13795   0.13695   0.01910   0.00000  Uiso   1.00
C14    C     0.19539   0.19639   0.31423   0.00000  Uiso   1.00
C15    C     0.13986   0.13682   0.30334   0.00000  Uiso   1.00
C16    C     0.19348   0.19651   0.02999   0.00000  Uiso   1.00
Cu17   Cu    0.16667   0.16667   0.21355   0.00000  Uiso   1.00
Cu18   Cu    0.16667   0.16666   0.11978   0.00000  Uiso   1.00
H19    H     0.10545   0.03568   0.10946   0.00000  Uiso   1.00
H20    H     0.22787   0.29765   0.22386   0.00000  Uiso   1.00
H21    H     0.11984   0.11286   0.28010   0.00000  Uiso   1.00
H22    H     0.21350   0.22046   0.05324   0.00000  Uiso   1.00
N23    N     0.16668   0.16668   0.28403   0.00000  Uiso   1.00
N24    N     0.16665   0.16666   0.04931   0.00000  Uiso   1.00
O25    O     0.16666   0.10655   0.20625   0.00000  Uiso   1.00
O26    O     0.16667   0.22678   0.12709   0.00000  Uiso   1.00
O27    O     0.16666   0.10654   0.12706   0.00000  Uiso   1.00
O28    O     0.16667   0.22679   0.20628   0.00000  Uiso   1.00
O29    O     0.09161   0.16667   0.19712   0.00000  Uiso   1.00
O30    O     0.24172   0.16666   0.13621   0.00000  Uiso   1.00
O31    O     0.09161   0.16666   0.11793   0.00000  Uiso   1.00
O32    O     0.24172   0.16667   0.21540   0.00000  Uiso   1.00
Br33   Br    0.31683   0.15938   0.08214   0.00000  Uiso   1.00
Br34   Br    0.01650   0.17401   0.25119   0.00000  Uiso   1.00
Br35   Br    0.07802   0.28087   0.09147   0.00000  Uiso   1.00
Br36   Br    0.25529   0.05246   0.24186   0.00000  Uiso   1.00
C37    C     0.10569   0.10201   0.03644   0.00000  Uiso   1.00
C38    C     0.05246   0.09384   0.00736   0.00000  Uiso   1.00
C39    C     0.02117   0.06111   0.02995   0.00000  Uiso   1.00
H40    H     0.03950   0.03086   0.03013   0.00000  Uiso   1.00
H41    H     0.01768   0.07064   0.06662   0.00000  Uiso   1.00
H42    H     0.31566   0.05711   0.00958   0.00000  Uiso   1.00
H43    H     0.03198   0.12307   0.00480   0.00000  Uiso   1.00
H44    H     0.05509   0.08211   0.30467   0.00000  Uiso   1.00
H45    H     0.12696   0.07313   0.03678   0.00000  Uiso   1.00
H46    H     0.09822   0.10895   0.07191   0.00000  Uiso   1.00
C47    C     0.22760   0.23135   0.29688   0.00000  Uiso   1.00
C48    C     0.28080   0.23962   0.32599   0.00000  Uiso   1.00
C49    C     0.31205   0.27235   0.30336   0.00000  Uiso   1.00
H50    H     0.31571   0.26273   0.26676   0.00000  Uiso   1.00
H51    H     0.29360   0.30254   0.30300   0.00000  Uiso   1.00
H52    H     0.01750   0.27650   0.32383   0.00000  Uiso   1.00
H53    H     0.27809   0.25141   0.02864   0.00000  Uiso   1.00
H54    H     0.30134   0.21043   0.32865   0.00000  Uiso   1.00
H55    H     0.23514   0.22437   0.26143   0.00000  Uiso   1.00
H56    H     0.20628   0.26018   0.29645   0.00000  Uiso   1.00
C57    C     0.50100   0.08754   0.16643   0.00000  Uiso   1.00
C58    C     0.49900   0.24579   0.16690   0.00000  Uiso   1.00
C59    C     0.40148   0.16658   0.15470   0.00000  Uiso   1.00
C60    C     0.59852   0.16676   0.17864   0.00000  Uiso   1.00
C61    C     0.34654   0.16555   0.14800   0.00000  Uiso   1.00
C62    C     0.65346   0.16781   0.18533   0.00000  Uiso   1.00
C63    C     0.46597   0.02009   0.13395   0.00000  Uiso   1.00
C64    C     0.53401   0.31325   0.19938   0.00000  Uiso   1.00
C65    C     0.46377   0.31045   0.13438   0.00000  Uiso   1.00
C66    C     0.53621   0.02288   0.19895   0.00000  Uiso   1.00
C67    C     0.49818   0.29039   0.16724   0.00000  Uiso   1.00
C68    C     0.50180   0.04294   0.16609   0.00000  Uiso   1.00
C69    C     0.47128   0.13695   0.01910   0.00000  Uiso   1.00
C70    C     0.52872   0.19639   0.31423   0.00000  Uiso   1.00
C71    C     0.47320   0.13682   0.30334   0.00000  Uiso   1.00
C72    C     0.52681   0.19651   0.02999   0.00000  Uiso   1.00
Cu73   Cu    0.50000   0.16667   0.21355   0.00000  Uiso   1.00
Cu74   Cu    0.50000   0.16666   0.11978   0.00000  Uiso   1.00
H75    H     0.43878   0.03568   0.10946   0.00000  Uiso   1.00
H76    H     0.56121   0.29765   0.22386   0.00000  Uiso   1.00
H77    H     0.45317   0.11286   0.28010   0.00000  Uiso   1.00
H78    H     0.54684   0.22046   0.05324   0.00000  Uiso   1.00
N79    N     0.50001   0.16668   0.28403   0.00000  Uiso   1.00
N80    N     0.49999   0.16666   0.04931   0.00000  Uiso   1.00
O81    O     0.50000   0.10655   0.20625   0.00000  Uiso   1.00
O82    O     0.50000   0.22678   0.12709   0.00000  Uiso   1.00
O83    O     0.50000   0.10654   0.12706   0.00000  Uiso   1.00
O84    O     0.50000   0.22679   0.20628   0.00000  Uiso   1.00
O85    O     0.42495   0.16667   0.19712   0.00000  Uiso   1.00
O86    O     0.57505   0.16666   0.13621   0.00000  Uiso   1.00
O87    O     0.42494   0.16666   0.11793   0.00000  Uiso   1.00
O88    O     0.57506   0.16667   0.21540   0.00000  Uiso   1.00
Br89   Br    0.65016   0.15938   0.08214   0.00000  Uiso   1.00
Br90   Br    0.34983   0.17401   0.25119   0.00000  Uiso   1.00
Br91   Br    0.41135   0.28087   0.09147   0.00000  Uiso   1.00
Br92   Br    0.58863   0.05246   0.24186   0.00000  Uiso   1.00
C93    C     0.43903   0.10201   0.03644   0.00000  Uiso   1.00
C94    C     0.38579   0.09384   0.00736   0.00000  Uiso   1.00
C95    C     0.35450   0.06111   0.02995   0.00000  Uiso   1.00
H96    H     0.37283   0.03086   0.03013   0.00000  Uiso   1.00
H97    H     0.35101   0.07064   0.06662   0.00000  Uiso   1.00
H98    H     0.64899   0.05711   0.00958   0.00000  Uiso   1.00
H99    H     0.36531   0.12307   0.00480   0.00000  Uiso   1.00
H100   H     0.38842   0.08211   0.30467   0.00000  Uiso   1.00
H101   H     0.46029   0.07313   0.03678   0.00000  Uiso   1.00
H102   H     0.43155   0.10895   0.07191   0.00000  Uiso   1.00
C103   C     0.56094   0.23135   0.29688   0.00000  Uiso   1.00
C104   C     0.61413   0.23962   0.32599   0.00000  Uiso   1.00
C105   C     0.64539   0.27235   0.30336   0.00000  Uiso   1.00
H106   H     0.64904   0.26273   0.26676   0.00000  Uiso   1.00
H107   H     0.62693   0.30254   0.30300   0.00000  Uiso   1.00
H108   H     0.35083   0.27650   0.32383   0.00000  Uiso   1.00
H109   H     0.61142   0.25141   0.02864   0.00000  Uiso   1.00
H110   H     0.63468   0.21043   0.32865   0.00000  Uiso   1.00
H111   H     0.56847   0.22437   0.26143   0.00000  Uiso   1.00
H112   H     0.53961   0.26018   0.29645   0.00000  Uiso   1.00
C113   C     0.83433   0.08754   0.16643   0.00000  Uiso   1.00
C114   C     0.83233   0.24579   0.16690   0.00000  Uiso   1.00
C115   C     0.73482   0.16658   0.15470   0.00000  Uiso   1.00
C116   C     0.93185   0.16676   0.17864   0.00000  Uiso   1.00
C117   C     0.67987   0.16555   0.14800   0.00000  Uiso   1.00
C118   C     0.98680   0.16781   0.18533   0.00000  Uiso   1.00
C119   C     0.79930   0.02009   0.13395   0.00000  Uiso   1.00
C120   C     0.86735   0.31325   0.19938   0.00000  Uiso   1.00
C121   C     0.79710   0.31045   0.13438   0.00000  Uiso   1.00
C122   C     0.86954   0.02288   0.19895   0.00000  Uiso   1.00
C123   C     0.83151   0.29039   0.16724   0.00000  Uiso   1.00
C124   C     0.83514   0.04294   0.16609   0.00000  Uiso   1.00
C125   C     0.80461   0.13695   0.01910   0.00000  Uiso   1.00
C126   C     0.86205   0.19639   0.31423   0.00000  Uiso   1.00
C127   C     0.80653   0.13682   0.30334   0.00000  Uiso   1.00
C128   C     0.86015   0.19651   0.02999   0.00000  Uiso   1.00
Cu129  Cu    0.83333   0.16667   0.21355   0.00000  Uiso   1.00
Cu130  Cu    0.83333   0.16666   0.11978   0.00000  Uiso   1.00
H131   H     0.77212   0.03568   0.10946   0.00000  Uiso   1.00
H132   H     0.89454   0.29765   0.22386   0.00000  Uiso   1.00
H133   H     0.78651   0.11286   0.28010   0.00000  Uiso   1.00
H134   H     0.88017   0.22046   0.05324   0.00000  Uiso   1.00
N135   N     0.83335   0.16668   0.28403   0.00000  Uiso   1.00
N136   N     0.83332   0.16666   0.04931   0.00000  Uiso   1.00
O137   O     0.83333   0.10655   0.20625   0.00000  Uiso   1.00
O138   O     0.83334   0.22678   0.12709   0.00000  Uiso   1.00
O139   O     0.83333   0.10654   0.12706   0.00000  Uiso   1.00
O140   O     0.83334   0.22679   0.20628   0.00000  Uiso   1.00
O141   O     0.75828   0.16667   0.19712   0.00000  Uiso   1.00
O142   O     0.90839   0.16666   0.13621   0.00000  Uiso   1.00
O143   O     0.75828   0.16666   0.11793   0.00000  Uiso   1.00
O144   O     0.90839   0.16667   0.21540   0.00000  Uiso   1.00
Br145  Br    0.98350   0.15938   0.08214   0.00000  Uiso   1.00
Br146  Br    0.68317   0.17401   0.25119   0.00000  Uiso   1.00
Br147  Br    0.74469   0.28087   0.09147   0.00000  Uiso   1.00
Br148  Br    0.92196   0.05246   0.24186   0.00000  Uiso   1.00
C149   C     0.77236   0.10201   0.03644   0.00000  Uiso   1.00
C150   C     0.71913   0.09384   0.00736   0.00000  Uiso   1.00
C151   C     0.68784   0.06111   0.02995   0.00000  Uiso   1.00
H152   H     0.70616   0.03086   0.03013   0.00000  Uiso   1.00
H153   H     0.68434   0.07064   0.06662   0.00000  Uiso   1.00
H154   H     0.98232   0.05711   0.00958   0.00000  Uiso   1.00
H155   H     0.69864   0.12307   0.00480   0.00000  Uiso   1.00
H156   H     0.72175   0.08211   0.30467   0.00000  Uiso   1.00
H157   H     0.79362   0.07313   0.03678   0.00000  Uiso   1.00
H158   H     0.76489   0.10895   0.07191   0.00000  Uiso   1.00
C159   C     0.89427   0.23135   0.29688   0.00000  Uiso   1.00
C160   C     0.94746   0.23962   0.32599   0.00000  Uiso   1.00
C161   C     0.97872   0.27235   0.30336   0.00000  Uiso   1.00
H162   H     0.98237   0.26273   0.26676   0.00000  Uiso   1.00
H163   H     0.96027   0.30254   0.30300   0.00000  Uiso   1.00
H164   H     0.68417   0.27650   0.32383   0.00000  Uiso   1.00
H165   H     0.94476   0.25141   0.02864   0.00000  Uiso   1.00
H166   H     0.96801   0.21043   0.32865   0.00000  Uiso   1.00
H167   H     0.90180   0.22437   0.26143   0.00000  Uiso   1.00
H168   H     0.87294   0.26018   0.29645   0.00000  Uiso   1.00
C169   C     0.16766   0.42088   0.16643   0.00000  Uiso   1.00
C170   C     0.16566   0.57912   0.16690   0.00000  Uiso   1.00
C171   C     0.06815   0.49992   0.15470   0.00000  Uiso   1.00
C172   C     0.26518   0.50009   0.17864   0.00000  Uiso   1.00
C173   C     0.01321   0.49888   0.14800   0.00000  Uiso   1.00
C174   C     0.32013   0.50115   0.18533   0.00000  Uiso   1.00
C175   C     0.13263   0.35342   0.13395   0.00000  Uiso   1.00
C176   C     0.20068   0.64658   0.19938   0.00000  Uiso   1.00
C177   C     0.13044   0.64378   0.13438   0.00000  Uiso   1.00
C178   C     0.20287   0.35622   0.19895   0.00000  Uiso   1.00
C179   C     0.16484   0.62373   0.16724   0.00000  Uiso   1.00
C180   C     0.16847   0.37627   0.16609   0.00000  Uiso   1.00
C181   C     0.13795   0.47028   0.01910   0.00000  Uiso   1.00
C182   C     0.19539   0.52972   0.31423   0.00000  Uiso   1.00
C183   C     0.13986   0.47015   0.30334   0.00000  Uiso   1.00
C184   C     0.19348   0.52984   0.02999   0.00000  Uiso   1.00
Cu185  Cu    0.16667   0.50001   0.21355   0.00000  Uiso   1.00
Cu186  Cu    0.16667   0.49999   0.11978   0.00000  Uiso   1.00
H187   H     0.10545   0.36902   0.10946   0.00000  Uiso   1.00
H188   H     0.22787   0.63098   0.22386   0.00000  Uiso   1.00
H189   H     0.11984   0.44619   0.28010   0.00000  Uiso   1.00
H190   H     0.21350   0.55380   0.05324   0.00000  Uiso   1.00
N191   N     0.16668   0.50001   0.28403   0.00000  Uiso   1.00
N192   N     0.16665   0.49999   0.04931   0.00000  Uiso   1.00
O193   O     0.16666   0.43989   0.20625   0.00000  Uiso   1.00
O194   O     0.16667   0.56011   0.12709   0.00000  Uiso   1.00
O195   O     0.16666   0.43988   0.12706   0.00000  Uiso   1.00
O196   O     0.16667   0.56012   0.20628   0.00000  Uiso   1.00
O197   O     0.09161   0.50000   0.19712   0.00000  Uiso   1.00
O198   O     0.24172   0.50000   0.13621   0.00000  Uiso   1.00
O199   O     0.09161   0.49999   0.11793   0.00000  Uiso   1.00
O200   O     0.24172   0.50001   0.21540   0.00000  Uiso   1.00
Br201  Br    0.31683   0.49271   0.08214   0.00000  Uiso   1.00
Br202  Br    0.01650   0.50734   0.25119   0.00000  Uiso   1.00
Br203  Br    0.07802   0.61421   0.09147   0.00000  Uiso   1.00
Br204  Br    0.25529   0.38579   0.24186   0.00000  Uiso   1.00
C205   C     0.10569   0.43534   0.03644   0.00000  Uiso   1.00
C206   C     0.05246   0.42717   0.00736   0.00000  Uiso   1.00
C207   C     0.02117   0.39444   0.02995   0.00000  Uiso   1.00
H208   H     0.03950   0.36419   0.03013   0.00000  Uiso   1.00
H209   H     0.01768   0.40397   0.06662   0.00000  Uiso   1.00
H210   H     0.31566   0.39044   0.00958   0.00000  Uiso   1.00
H211   H     0.03198   0.45640   0.00480   0.00000  Uiso   1.00
H212   H     0.05509   0.41544   0.30467   0.00000  Uiso   1.00
H213   H     0.12696   0.40647   0.03678   0.00000  Uiso   1.00
H214   H     0.09822   0.44229   0.07191   0.00000  Uiso   1.00
C215   C     0.22760   0.56468   0.29688   0.00000  Uiso   1.00
C216   C     0.28080   0.57296   0.32599   0.00000  Uiso   1.00
C217   C     0.31205   0.60568   0.30336   0.00000  Uiso   1.00
H218   H     0.31571   0.59606   0.26676   0.00000  Uiso   1.00
H219   H     0.29360   0.63588   0.30300   0.00000  Uiso   1.00
H220   H     0.01750   0.60983   0.32383   0.00000  Uiso   1.00
H221   H     0.27809   0.58475   0.02864   0.00000  Uiso   1.00
H222   H     0.30134   0.54376   0.32865   0.00000  Uiso   1.00
H223   H     0.23514   0.55770   0.26143   0.00000  Uiso   1.00
H224   H     0.20628   0.59352   0.29645   0.00000  Uiso   1.00
C225   C     0.50100   0.42088   0.16643   0.00000  Uiso   1.00
C226   C     0.49900   0.57912   0.16690   0.00000  Uiso   1.00
C227   C     0.40148   0.49992   0.15470   0.00000  Uiso   1.00
C228   C     0.59852   0.50009   0.17864   0.00000  Uiso   1.00
C229   C     0.34654   0.49888   0.14800   0.00000  Uiso   1.00
C230   C     0.65346   0.50115   0.18533   0.00000  Uiso   1.00
C231   C     0.46597   0.35342   0.13395   0.00000  Uiso   1.00
C232   C     0.53401   0.64658   0.19938   0.00000  Uiso   1.00
C233   C     0.46377   0.64378   0.13438   0.00000  Uiso   1.00
C234   C     0.53621   0.35622   0.19895   0.00000  Uiso   1.00
C235   C     0.49818   0.62373   0.16724   0.00000  Uiso   1.00
C236   C     0.50180   0.37627   0.16609   0.00000  Uiso   1.00
C237   C     0.47128   0.47028   0.01910   0.00000  Uiso   1.00
C238   C     0.52872   0.52972   0.31423   0.00000  Uiso   1.00
C239   C     0.47320   0.47015   0.30334   0.00000  Uiso   1.00
C240   C     0.52681   0.52984   0.02999   0.00000  Uiso   1.00
Cu241  Cu    0.50000   0.50001   0.21355   0.00000  Uiso   1.00
Cu242  Cu    0.50000   0.49999   0.11978   0.00000  Uiso   1.00
H243   H     0.43878   0.36902   0.10946   0.00000  Uiso   1.00
H244   H     0.56121   0.63098   0.22386   0.00000  Uiso   1.00
H245   H     0.45317   0.44619   0.28010   0.00000  Uiso   1.00
H246   H     0.54684   0.55380   0.05324   0.00000  Uiso   1.00
N247   N     0.50001   0.50001   0.28403   0.00000  Uiso   1.00
N248   N     0.49999   0.49999   0.04931   0.00000  Uiso   1.00
O249   O     0.50000   0.43989   0.20625   0.00000  Uiso   1.00
O250   O     0.50000   0.56011   0.12709   0.00000  Uiso   1.00
O251   O     0.50000   0.43988   0.12706   0.00000  Uiso   1.00
O252   O     0.50000   0.56012   0.20628   0.00000  Uiso   1.00
O253   O     0.42495   0.50000   0.19712   0.00000  Uiso   1.00
O254   O     0.57505   0.50000   0.13621   0.00000  Uiso   1.00
O255   O     0.42494   0.49999   0.11793   0.00000  Uiso   1.00
O256   O     0.57506   0.50001   0.21540   0.00000  Uiso   1.00
Br257  Br    0.65016   0.49271   0.08214   0.00000  Uiso   1.00
Br258  Br    0.34983   0.50734   0.25119   0.00000  Uiso   1.00
Br259  Br    0.41135   0.61421   0.09147   0.00000  Uiso   1.00
Br260  Br    0.58863   0.38579   0.24186   0.00000  Uiso   1.00
C261   C     0.43903   0.43534   0.03644   0.00000  Uiso   1.00
C262   C     0.38579   0.42717   0.00736   0.00000  Uiso   1.00
C263   C     0.35450   0.39444   0.02995   0.00000  Uiso   1.00
H264   H     0.37283   0.36419   0.03013   0.00000  Uiso   1.00
H265   H     0.35101   0.40397   0.06662   0.00000  Uiso   1.00
H266   H     0.64899   0.39044   0.00958   0.00000  Uiso   1.00
H267   H     0.36531   0.45640   0.00480   0.00000  Uiso   1.00
H268   H     0.38842   0.41544   0.30467   0.00000  Uiso   1.00
H269   H     0.46029   0.40647   0.03678   0.00000  Uiso   1.00
H270   H     0.43155   0.44229   0.07191   0.00000  Uiso   1.00
C271   C     0.56094   0.56468   0.29688   0.00000  Uiso   1.00
C272   C     0.61413   0.57296   0.32599   0.00000  Uiso   1.00
C273   C     0.64539   0.60568   0.30336   0.00000  Uiso   1.00
H274   H     0.64904   0.59606   0.26676   0.00000  Uiso   1.00
H275   H     0.62693   0.63588   0.30300   0.00000  Uiso   1.00
H276   H     0.35083   0.60983   0.32383   0.00000  Uiso   1.00
H277   H     0.61142   0.58475   0.02864   0.00000  Uiso   1.00
H278   H     0.63468   0.54376   0.32865   0.00000  Uiso   1.00
H279   H     0.56847   0.55770   0.26143   0.00000  Uiso   1.00
H280   H     0.53961   0.59352   0.29645   0.00000  Uiso   1.00
C281   C     0.83433   0.42088   0.16643   0.00000  Uiso   1.00
C282   C     0.83233   0.57912   0.16690   0.00000  Uiso   1.00
C283   C     0.73482   0.49992   0.15470   0.00000  Uiso   1.00
C284   C     0.93185   0.50009   0.17864   0.00000  Uiso   1.00
C285   C     0.67987   0.49888   0.14800   0.00000  Uiso   1.00
C286   C     0.98680   0.50115   0.18533   0.00000  Uiso   1.00
C287   C     0.79930   0.35342   0.13395   0.00000  Uiso   1.00
C288   C     0.86735   0.64658   0.19938   0.00000  Uiso   1.00
C289   C     0.79710   0.64378   0.13438   0.00000  Uiso   1.00
C290   C     0.86954   0.35622   0.19895   0.00000  Uiso   1.00
C291   C     0.83151   0.62373   0.16724   0.00000  Uiso   1.00
C292   C     0.83514   0.37627   0.16609   0.00000  Uiso   1.00
C293   C     0.80461   0.47028   0.01910   0.00000  Uiso   1.00
C294   C     0.86205   0.52972   0.31423   0.00000  Uiso   1.00
C295   C     0.80653   0.47015   0.30334   0.00000  Uiso   1.00
C296   C     0.86015   0.52984   0.02999   0.00000  Uiso   1.00
Cu297  Cu    0.83333   0.50001   0.21355   0.00000  Uiso   1.00
Cu298  Cu    0.83333   0.49999   0.11978   0.00000  Uiso   1.00
H299   H     0.77212   0.36902   0.10946   0.00000  Uiso   1.00
H300   H     0.89454   0.63098   0.22386   0.00000  Uiso   1.00
H301   H     0.78651   0.44619   0.28010   0.00000  Uiso   1.00
H302   H     0.88017   0.55380   0.05324   0.00000  Uiso   1.00
N303   N     0.83335   0.50001   0.28403   0.00000  Uiso   1.00
N304   N     0.83332   0.49999   0.04931   0.00000  Uiso   1.00
O305   O     0.83333   0.43989   0.20625   0.00000  Uiso   1.00
O306   O     0.83334   0.56011   0.12709   0.00000  Uiso   1.00
O307   O     0.83333   0.43988   0.12706   0.00000  Uiso   1.00
O308   O     0.83334   0.56012   0.20628   0.00000  Uiso   1.00
O309   O     0.75828   0.50000   0.19712   0.00000  Uiso   1.00
O310   O     0.90839   0.50000   0.13621   0.00000  Uiso   1.00
O311   O     0.75828   0.49999   0.11793   0.00000  Uiso   1.00
O312   O     0.90839   0.50001   0.21540   0.00000  Uiso   1.00
Br313  Br    0.98350   0.49271   0.08214   0.00000  Uiso   1.00
Br314  Br    0.68317   0.50734   0.25119   0.00000  Uiso   1.00
Br315  Br    0.74469   0.61421   0.09147   0.00000  Uiso   1.00
Br316  Br    0.92196   0.38579   0.24186   0.00000  Uiso   1.00
C317   C     0.77236   0.43534   0.03644   0.00000  Uiso   1.00
C318   C     0.71913   0.42717   0.00736   0.00000  Uiso   1.00
C319   C     0.68784   0.39444   0.02995   0.00000  Uiso   1.00
H320   H     0.70616   0.36419   0.03013   0.00000  Uiso   1.00
H321   H     0.68434   0.40397   0.06662   0.00000  Uiso   1.00
H322   H     0.98232   0.39044   0.00958   0.00000  Uiso   1.00
H323   H     0.69864   0.45640   0.00480   0.00000  Uiso   1.00
H324   H     0.72175   0.41544   0.30467   0.00000  Uiso   1.00
H325   H     0.79362   0.40647   0.03678   0.00000  Uiso   1.00
H326   H     0.76489   0.44229   0.07191   0.00000  Uiso   1.00
C327   C     0.89427   0.56468   0.29688   0.00000  Uiso   1.00
C328   C     0.94746   0.57296   0.32599   0.00000  Uiso   1.00
C329   C     0.97872   0.60568   0.30336   0.00000  Uiso   1.00
H330   H     0.98237   0.59606   0.26676   0.00000  Uiso   1.00
H331   H     0.96027   0.63588   0.30300   0.00000  Uiso   1.00
H332   H     0.68417   0.60983   0.32383   0.00000  Uiso   1.00
H333   H     0.94476   0.58475   0.02864   0.00000  Uiso   1.00
H334   H     0.96801   0.54376   0.32865   0.00000  Uiso   1.00
H335   H     0.90180   0.55770   0.26143   0.00000  Uiso   1.00
H336   H     0.87294   0.59352   0.29645   0.00000  Uiso   1.00
C337   C     0.16766   0.75421   0.16643   0.00000  Uiso   1.00
C338   C     0.16566   0.91246   0.16690   0.00000  Uiso   1.00
C339   C     0.06815   0.83325   0.15470   0.00000  Uiso   1.00
C340   C     0.26518   0.83342   0.17864   0.00000  Uiso   1.00
C341   C     0.01321   0.83221   0.14800   0.00000  Uiso   1.00
C342   C     0.32013   0.83448   0.18533   0.00000  Uiso   1.00
C343   C     0.13263   0.68675   0.13395   0.00000  Uiso   1.00
C344   C     0.20068   0.97991   0.19938   0.00000  Uiso   1.00
C345   C     0.13044   0.97712   0.13438   0.00000  Uiso   1.00
C346   C     0.20287   0.68955   0.19895   0.00000  Uiso   1.00
C347   C     0.16484   0.95706   0.16724   0.00000  Uiso   1.00
C348   C     0.16847   0.70961   0.16609   0.00000  Uiso   1.00
C349   C     0.13795   0.80361   0.01910   0.00000  Uiso   1.00
C350   C     0.19539   0.86306   0.31423   0.00000  Uiso   1.00
C351   C     0.13986   0.80348   0.30334   0.00000  Uiso   1.00
C352   C     0.19348   0.86318   0.02999   0.00000  Uiso   1.00
Cu353  Cu    0.16667   0.83334   0.21355   0.00000  Uiso   1.00
Cu354  Cu    0.16667   0.83333   0.11978   0.00000  Uiso   1.00
H355   H     0.10545   0.70235   0.10946   0.00000  Uiso   1.00
H356   H     0.22787   0.96431   0.22386   0.00000  Uiso   1.00
H357   H     0.11984   0.77953   0.28010   0.00000  Uiso   1.00
H358   H     0.21350   0.88713   0.05324   0.00000  Uiso   1.00
N359   N     0.16668   0.83334   0.28403   0.00000  Uiso   1.00
N360   N     0.16665   0.83332   0.04931   0.00000  Uiso   1.00
O361   O     0.16666   0.77322   0.20625   0.00000  Uiso   1.00
O362   O     0.16667   0.89345   0.12709   0.00000  Uiso   1.00
O363   O     0.16666   0.77321   0.12706   0.00000  Uiso   1.00
O364   O     0.16667   0.89346   0.20628   0.00000  Uiso   1.00
O365   O     0.09161   0.83334   0.19712   0.00000  Uiso   1.00
O366   O     0.24172   0.83333   0.13621   0.00000  Uiso   1.00
O367   O     0.09161   0.83333   0.11793   0.00000  Uiso   1.00
O368   O     0.24172   0.83334   0.21540   0.00000  Uiso   1.00
Br369  Br    0.31683   0.82605   0.08214   0.00000  Uiso   1.00
Br370  Br    0.01650   0.84067   0.25119   0.00000  Uiso   1.00
Br371  Br    0.07802   0.94754   0.09147   0.00000  Uiso   1.00
Br372  Br    0.25529   0.71912   0.24186   0.00000  Uiso   1.00
C373   C     0.10569   0.76867   0.03644   0.00000  Uiso   1.00
C374   C     0.05246   0.76050   0.00736   0.00000  Uiso   1.00
C375   C     0.02117   0.72778   0.02995   0.00000  Uiso   1.00
H376   H     0.03950   0.69753   0.03013   0.00000  Uiso   1.00
H377   H     0.01768   0.73730   0.06662   0.00000  Uiso   1.00
H378   H     0.31566   0.72378   0.00958   0.00000  Uiso   1.00
H379   H     0.03198   0.78974   0.00480   0.00000  Uiso   1.00
H380   H     0.05509   0.74877   0.30467   0.00000  Uiso   1.00
H381   H     0.12696   0.73980   0.03678   0.00000  Uiso   1.00
H382   H     0.09822   0.77562   0.07191   0.00000  Uiso   1.00
C383   C     0.22760   0.89801   0.29688   0.00000  Uiso   1.00
C384   C     0.28080   0.90629   0.32599   0.00000  Uiso   1.00
C385   C     0.31205   0.93902   0.30336   0.00000  Uiso   1.00
H386   H     0.31571   0.92939   0.26676   0.00000  Uiso   1.00
H387   H     0.29360   0.96921   0.30300   0.00000  Uiso   1.00
H388   H     0.01750   0.94316   0.32383   0.00000  Uiso   1.00
H389   H     0.27809   0.91808   0.02864   0.00000  Uiso   1.00
H390   H     0.30134   0.87709   0.32865   0.00000  Uiso   1.00
H391   H     0.23514   0.89103   0.26143   0.00000  Uiso   1.00
H392   H     0.20628   0.92685   0.29645   0.00000  Uiso   1.00
C393   C     0.50100   0.75421   0.16643   0.00000  Uiso   1.00
C394   C     0.49900   0.91246   0.16690   0.00000  Uiso   1.00
C395   C     0.40148   0.83325   0.15470   0.00000  Uiso   1.00
C396   C     0.59852   0.83342   0.17864   0.00000  Uiso   1.00
C397   C     0.34654   0.83221   0.14800   0.00000  Uiso   1.00
C398   C     0.65346   0.83448   0.18533   0.00000  Uiso   1.00
C399   C     0.46597   0.68675   0.13395   0.00000  Uiso   1.00
C400   C     0.53401   0.97991   0.19938   0.00000  Uiso   1.00
C401   C     0.46377   0.97712   0.13438   0.00000  Uiso   1.00
C402   C     0.53621   0.68955   0.19895   0.00000  Uiso   1.00
C403   C     0.49818   0.95706   0.16724   0.00000  Uiso   1.00
C404   C     0.50180   0.70961   0.16609   0.00000  Uiso   1.00
C405   C     0.47128   0.80361   0.01910   0.00000  Uiso   1.00
C406   C     0.52872   0.86306   0.31423   0.00000  Uiso   1.00
C407   C     0.47320   0.80348   0.30334   0.00000  Uiso   1.00
C408   C     0.52681   0.86318   0.02999   0.00000  Uiso   1.00
Cu409  Cu    0.50000   0.83334   0.21355   0.00000  Uiso   1.00
Cu410  Cu    0.50000   0.83333   0.11978   0.00000  Uiso   1.00
H411   H     0.43878   0.70235   0.10946   0.00000  Uiso   1.00
H412   H     0.56121   0.96431   0.22386   0.00000  Uiso   1.00
H413   H     0.45317   0.77953   0.28010   0.00000  Uiso   1.00
H414   H     0.54684   0.88713   0.05324   0.00000  Uiso   1.00
N415   N     0.50001   0.83334   0.28403   0.00000  Uiso   1.00
N416   N     0.49999   0.83332   0.04931   0.00000  Uiso   1.00
O417   O     0.50000   0.77322   0.20625   0.00000  Uiso   1.00
O418   O     0.50000   0.89345   0.12709   0.00000  Uiso   1.00
O419   O     0.50000   0.77321   0.12706   0.00000  Uiso   1.00
O420   O     0.50000   0.89346   0.20628   0.00000  Uiso   1.00
O421   O     0.42495   0.83334   0.19712   0.00000  Uiso   1.00
O422   O     0.57505   0.83333   0.13621   0.00000  Uiso   1.00
O423   O     0.42494   0.83333   0.11793   0.00000  Uiso   1.00
O424   O     0.57506   0.83334   0.21540   0.00000  Uiso   1.00
Br425  Br    0.65016   0.82605   0.08214   0.00000  Uiso   1.00
Br426  Br    0.34983   0.84067   0.25119   0.00000  Uiso   1.00
Br427  Br    0.41135   0.94754   0.09147   0.00000  Uiso   1.00
Br428  Br    0.58863   0.71912   0.24186   0.00000  Uiso   1.00
C429   C     0.43903   0.76867   0.03644   0.00000  Uiso   1.00
C430   C     0.38579   0.76050   0.00736   0.00000  Uiso   1.00
C431   C     0.35450   0.72778   0.02995   0.00000  Uiso   1.00
H432   H     0.37283   0.69753   0.03013   0.00000  Uiso   1.00
H433   H     0.35101   0.73730   0.06662   0.00000  Uiso   1.00
H434   H     0.64899   0.72378   0.00958   0.00000  Uiso   1.00
H435   H     0.36531   0.78974   0.00480   0.00000  Uiso   1.00
H436   H     0.38842   0.74877   0.30467   0.00000  Uiso   1.00
H437   H     0.46029   0.73980   0.03678   0.00000  Uiso   1.00
H438   H     0.43155   0.77562   0.07191   0.00000  Uiso   1.00
C439   C     0.56094   0.89801   0.29688   0.00000  Uiso   1.00
C440   C     0.61413   0.90629   0.32599   0.00000  Uiso   1.00
C441   C     0.64539   0.93902   0.30336   0.00000  Uiso   1.00
H442   H     0.64904   0.92939   0.26676   0.00000  Uiso   1.00
H443   H     0.62693   0.96921   0.30300   0.00000  Uiso   1.00
H444   H     0.35083   0.94316   0.32383   0.00000  Uiso   1.00
H445   H     0.61142   0.91808   0.02864   0.00000  Uiso   1.00
H446   H     0.63468   0.87709   0.32865   0.00000  Uiso   1.00
H447   H     0.56847   0.89103   0.26143   0.00000  Uiso   1.00
H448   H     0.53961   0.92685   0.29645   0.00000  Uiso   1.00
C449   C     0.83433   0.75421   0.16643   0.00000  Uiso   1.00
C450   C     0.83233   0.91246   0.16690   0.00000  Uiso   1.00
C451   C     0.73482   0.83325   0.15470   0.00000  Uiso   1.00
C452   C     0.93185   0.83342   0.17864   0.00000  Uiso   1.00
C453   C     0.67987   0.83221   0.14800   0.00000  Uiso   1.00
C454   C     0.98680   0.83448   0.18533   0.00000  Uiso   1.00
C455   C     0.79930   0.68675   0.13395   0.00000  Uiso   1.00
C456   C     0.86735   0.97991   0.19938   0.00000  Uiso   1.00
C457   C     0.79710   0.97712   0.13438   0.00000  Uiso   1.00
C458   C     0.86954   0.68955   0.19895   0.00000  Uiso   1.00
C459   C     0.83151   0.95706   0.16724   0.00000  Uiso   1.00
C460   C     0.83514   0.70961   0.16609   0.00000  Uiso   1.00
C461   C     0.80461   0.80361   0.01910   0.00000  Uiso   1.00
C462   C     0.86205   0.86306   0.31423   0.00000  Uiso   1.00
C463   C     0.80653   0.80348   0.30334   0.00000  Uiso   1.00
C464   C     0.86015   0.86318   0.02999   0.00000  Uiso   1.00
Cu465  Cu    0.83333   0.83334   0.21355   0.00000  Uiso   1.00
Cu466  Cu    0.83333   0.83333   0.11978   0.00000  Uiso   1.00
H467   H     0.77212   0.70235   0.10946   0.00000  Uiso   1.00
H468   H     0.89454   0.96431   0.22386   0.00000  Uiso   1.00
H469   H     0.78651   0.77953   0.28010   0.00000  Uiso   1.00
H470   H     0.88017   0.88713   0.05324   0.00000  Uiso   1.00
N471   N     0.83335   0.83334   0.28403   0.00000  Uiso   1.00
N472   N     0.83332   0.83332   0.04931   0.00000  Uiso   1.00
O473   O     0.83333   0.77322   0.20625   0.00000  Uiso   1.00
O474   O     0.83334   0.89345   0.12709   0.00000  Uiso   1.00
O475   O     0.83333   0.77321   0.12706   0.00000  Uiso   1.00
O476   O     0.83334   0.89346   0.20628   0.00000  Uiso   1.00
O477   O     0.75828   0.83334   0.19712   0.00000  Uiso   1.00
O478   O     0.90839   0.83333   0.13621   0.00000  Uiso   1.00
O479   O     0.75828   0.83333   0.11793   0.00000  Uiso   1.00
O480   O     0.90839   0.83334   0.21540   0.00000  Uiso   1.00
Br481  Br    0.98350   0.82605   0.08214   0.00000  Uiso   1.00
Br482  Br    0.68317   0.84067   0.25119   0.00000  Uiso   1.00
Br483  Br    0.74469   0.94754   0.09147   0.00000  Uiso   1.00
Br484  Br    0.92196   0.71912   0.24186   0.00000  Uiso   1.00
C485   C     0.77236   0.76867   0.03644   0.00000  Uiso   1.00
C486   C     0.71913   0.76050   0.00736   0.00000  Uiso   1.00
C487   C     0.68784   0.72778   0.02995   0.00000  Uiso   1.00
H488   H     0.70616   0.69753   0.03013   0.00000  Uiso   1.00
H489   H     0.68434   0.73730   0.06662   0.00000  Uiso   1.00
H490   H     0.98232   0.72378   0.00958   0.00000  Uiso   1.00
H491   H     0.69864   0.78974   0.00480   0.00000  Uiso   1.00
H492   H     0.72175   0.74877   0.30467   0.00000  Uiso   1.00
H493   H     0.79362   0.73980   0.03678   0.00000  Uiso   1.00
H494   H     0.76489   0.77562   0.07191   0.00000  Uiso   1.00
C495   C     0.89427   0.89801   0.29688   0.00000  Uiso   1.00
C496   C     0.94746   0.90629   0.32599   0.00000  Uiso   1.00
C497   C     0.97872   0.93902   0.30336   0.00000  Uiso   1.00
H498   H     0.98237   0.92939   0.26676   0.00000  Uiso   1.00
H499   H     0.96027   0.96921   0.30300   0.00000  Uiso   1.00
H500   H     0.68417   0.94316   0.32383   0.00000  Uiso   1.00
H501   H     0.94476   0.91808   0.02864   0.00000  Uiso   1.00
H502   H     0.96801   0.87709   0.32865   0.00000  Uiso   1.00
H503   H     0.90180   0.89103   0.26143   0.00000  Uiso   1.00
H504   H     0.87294   0.92685   0.29645   0.00000  Uiso   1.00
C505   C     0.16766   0.08754   0.49977   0.00000  Uiso   1.00
C506   C     0.16566   0.24579   0.50023   0.00000  Uiso   1.00
C507   C     0.06815   0.16658   0.48803   0.00000  Uiso   1.00
C508   C     0.26518   0.16676   0.51197   0.00000  Uiso   1.00
C509   C     0.01321   0.16555   0.48134   0.00000  Uiso   1.00
C510   C     0.32013   0.16781   0.51866   0.00000  Uiso   1.00
C511   C     0.13263   0.02009   0.46729   0.00000  Uiso   1.00
C512   C     0.20068   0.31325   0.53271   0.00000  Uiso   1.00
C513   C     0.13044   0.31045   0.46771   0.00000  Uiso   1.00
C514   C     0.20287   0.02288   0.53228   0.00000  Uiso   1.00
C515   C     0.16484   0.29039   0.50057   0.00000  Uiso   1.00
C516   C     0.16847   0.04294   0.49942   0.00000  Uiso   1.00
C517   C     0.13795   0.13695   0.35243   0.00000  Uiso   1.00
C518   C     0.19539   0.19639   0.64756   0.00000  Uiso   1.00
C519   C     0.13986   0.13682   0.63668   0.00000  Uiso   1.00
C520   C     0.19348   0.19651   0.36333   0.00000  Uiso   1.00
Cu521  Cu    0.16667   0.16667   0.54689   0.00000  Uiso   1.00
Cu522  Cu    0.16667   0.16666   0.45311   0.00000  Uiso   1.00
H523   H     0.10545   0.03568   0.44280   0.00000  Uiso   1.00
H524   H     0.22787   0.29765   0.55719   0.00000  Uiso   1.00
H525   H     0.11984   0.11286   0.61343   0.00000  Uiso   1.00
H526   H     0.21350   0.22046   0.38657   0.00000  Uiso   1.00
N527   N     0.16668   0.16668   0.61736   0.00000  Uiso   1.00
N528   N     0.16665   0.16666   0.38264   0.00000  Uiso   1.00
O529   O     0.16666   0.10655   0.53958   0.00000  Uiso   1.00
O530   O     0.16667   0.22678   0.46042   0.00000  Uiso   1.00
O531   O     0.16666   0.10654   0.46039   0.00000  Uiso   1.00
O532   O     0.16667   0.22679   0.53961   0.00000  Uiso   1.00
O533   O     0.09161   0.16667   0.53046   0.00000  Uiso   1.00
O534   O     0.24172   0.16666   0.46954   0.00000  Uiso   1.00
O535   O     0.09161   0.16666   0.45127   0.00000  Uiso   1.00
O536   O     0.24172   0.16667   0.54873   0.00000  Uiso   1.00
Br537  Br    0.31683   0.15938   0.41548   0.00000  Uiso   1.00
Br538  Br    0.01650   0.17401   0.58452   0.00000  Uiso   1.00
Br539  Br    0.07802   0.28087   0.42481   0.00000  Uiso   1.00
Br540  Br    0.25529   0.05246   0.57519   0.00000  Uiso   1.00
C541   C     0.10569   0.10201   0.36977   0.00000  Uiso   1.00
C542   C     0.05246   0.09384   0.34070   0.00000  Uiso   1.00
C543   C     0.02117   0.06111   0.36329   0.00000  Uiso   1.00
H544   H     0.03950   0.03086   0.36346   0.00000  Uiso   1.00
H545   H     0.01768   0.07064   0.39996   0.00000  Uiso   1.00
H546   H     0.31566   0.05711   0.34291   0.00000  Uiso   1.00
H547   H     0.03198   0.12307   0.33814   0.00000  Uiso   1.00
H548   H     0.05509   0.08211   0.63801   0.00000  Uiso   1.00
H549   H     0.12696   0.07313   0.37012   0.00000  Uiso   1.00
H550   H     0.09822   0.10895   0.40525   0.00000  Uiso   1.00
C551   C     0.22760   0.23135   0.63021   0.00000  Uiso   1.00
C552   C     0.28080   0.23962   0.65932   0.00000  Uiso   1.00
C553   C     0.31205   0.27235   0.63670   0.00000  Uiso   1.00
H554   H     0.31571   0.26273   0.60010   0.00000  Uiso   1.00
H555   H     0.29360   0.30254   0.63633   0.00000  Uiso   1.00
H556   H     0.01750   0.27650   0.65716   0.00000  Uiso   1.00
H557   H     0.27809   0.25141   0.36197   0.00000  Uiso   1.00
H558   H     0.30134   0.21043   0.66198   0.00000  Uiso   1.00
H559   H     0.23514   0.22437   0.59477   0.00000  Uiso   1.00
H560   H     0.20628   0.26018   0.62978   0.00000  Uiso   1.00
C561   C     0.50100   0.08754   0.49977   0.00000  Uiso   1.00
C562   C     0.49900   0.24579   0.50023   0.00000  Uiso   1.00
C563   C     0.40148   0.16658   0.48803   0.00000  Uiso   1.00
C564   C     0.59852   0.16676   0.51197   0.00000  Uiso   1.00
C565   C     0.34654   0.16555   0.48134   0.00000  Uiso   1.00
C566   C     0.65346   0.16781   0.51866   0.00000  Uiso   1.00
C567   C     0.46597   0.02009   0.46729   0.00000  Uiso   1.00
C568   C     0.53401   0.31325   0.53271   0.00000  Uiso   1.00
C569   C     0.46377   0.31045   0.46771   0.00000  Uiso   1.00
C570   C     0.53621   0.02288   0.53228   0.00000  Uiso   1.00
C571   C     0.49818   0.29039   0.50057   0.00000  Uiso   1.00
C572   C     0.50180   0.04294   0.49942   0.00000  Uiso   1.00
C573   C     0.47128   0.13695   0.35243   0.00000  Uiso   1.00
C574   C     0.52872   0.19639   0.64756   0.00000  Uiso   1.00
C575   C     0.47320   0.13682   0.63668   0.00000  Uiso   1.00
C576   C     0.52681   0.19651   0.36333   0.00000  Uiso   1.00
Cu577  Cu    0.50000   0.16667   0.54689   0.00000  Uiso   1.00
Cu578  Cu    0.50000   0.16666   0.45311   0.00000  Uiso   1.00
H579   H     0.43878   0.03568   0.44280   0.00000  Uiso   1.00
H580   H     0.56121   0.29765   0.55719   0.00000  Uiso   1.00
H581   H     0.45317   0.11286   0.61343   0.00000  Uiso   1.00
H582   H     0.54684   0.22046   0.38657   0.00000  Uiso   1.00
N583   N     0.50001   0.16668   0.61736   0.00000  Uiso   1.00
N584   N     0.49999   0.16666   0.38264   0.00000  Uiso   1.00
O585   O     0.50000   0.10655   0.53958   0.00000  Uiso   1.00
O586   O     0.50000   0.22678   0.46042   0.00000  Uiso   1.00
O587   O     0.50000   0.10654   0.46039   0.00000  Uiso   1.00
O588   O     0.50000   0.22679   0.53961   0.00000  Uiso   1.00
O589   O     0.42495   0.16667   0.53046   0.00000  Uiso   1.00
O590   O     0.57505   0.16666   0.46954   0.00000  Uiso   1.00
O591   O     0.42494   0.16666   0.45127   0.00000  Uiso   1.00
O592   O     0.57506   0.16667   0.54873   0.00000  Uiso   1.00
Br593  Br    0.65016   0.15938   0.41548   0.00000  Uiso   1.00
Br594  Br    0.34983   0.17401   0.58452   0.00000  Uiso   1.00
Br595  Br    0.41135   0.28087   0.42481   0.00000  Uiso   1.00
Br596  Br    0.58863   0.05246   0.57519   0.00000  Uiso   1.00
C597   C     0.43903   0.10201   0.36977   0.00000  Uiso   1.00
C598   C     0.38579   0.09384   0.34070   0.00000  Uiso   1.00
C599   C     0.35450   0.06111   0.36329   0.00000  Uiso   1.00
H600   H     0.37283   0.03086   0.36346   0.00000  Uiso   1.00
H601   H     0.35101   0.07064   0.39996   0.00000  Uiso   1.00
H602   H     0.64899   0.05711   0.34291   0.00000  Uiso   1.00
H603   H     0.36531   0.12307   0.33814   0.00000  Uiso   1.00
H604   H     0.38842   0.08211   0.63801   0.00000  Uiso   1.00
H605   H     0.46029   0.07313   0.37012   0.00000  Uiso   1.00
H606   H     0.43155   0.10895   0.40525   0.00000  Uiso   1.00
C607   C     0.56094   0.23135   0.63021   0.00000  Uiso   1.00
C608   C     0.61413   0.23962   0.65932   0.00000  Uiso   1.00
C609   C     0.64539   0.27235   0.63670   0.00000  Uiso   1.00
H610   H     0.64904   0.26273   0.60010   0.00000  Uiso   1.00
H611   H     0.62693   0.30254   0.63633   0.00000  Uiso   1.00
H612   H     0.35083   0.27650   0.65716   0.00000  Uiso   1.00
H613   H     0.61142   0.25141   0.36197   0.00000  Uiso   1.00
H614   H     0.63468   0.21043   0.66198   0.00000  Uiso   1.00
H615   H     0.56847   0.22437   0.59477   0.00000  Uiso   1.00
H616   H     0.53961   0.26018   0.62978   0.00000  Uiso   1.00
C617   C     0.83433   0.08754   0.49977   0.00000  Uiso   1.00
C618   C     0.83233   0.24579   0.50023   0.00000  Uiso   1.00
C619   C     0.73482   0.16658   0.48803   0.00000  Uiso   1.00
C620   C     0.93185   0.16676   0.51197   0.00000  Uiso   1.00
C621   C     0.67987   0.16555   0.48134   0.00000  Uiso   1.00
C622   C     0.98680   0.16781   0.51866   0.00000  Uiso   1.00
C623   C     0.79930   0.02009   0.46729   0.00000  Uiso   1.00
C624   C     0.86735   0.31325   0.53271   0.00000  Uiso   1.00
C625   C     0.79710   0.31045   0.46771   0.00000  Uiso   1.00
C626   C     0.86954   0.02288   0.53228   0.00000  Uiso   1.00
C627   C     0.83151   0.29039   0.50057   0.00000  Uiso   1.00
C628   C     0.83514   0.04294   0.49942   0.00000  Uiso   1.00
C629   C     0.80461   0.13695   0.35243   0.00000  Uiso   1.00
C630   C     0.86205   0.19639   0.64756   0.00000  Uiso   1.00
C631   C     0.80653   0.13682   0.63668   0.00000  Uiso   1.00
C632   C     0.86015   0.19651   0.36333   0.00000  Uiso   1.00
Cu633  Cu    0.83333   0.16667   0.54689   0.00000  Uiso   1.00
Cu634  Cu    0.83333   0.16666   0.45311   0.00000  Uiso   1.00
H635   H     0.77212   0.03568   0.44280   0.00000  Uiso   1.00
H636   H     0.89454   0.29765   0.55719   0.00000  Uiso   1.00
H637   H     0.78651   0.11286   0.61343   0.00000  Uiso   1.00
H638   H     0.88017   0.22046   0.38657   0.00000  Uiso   1.00
N639   N     0.83335   0.16668   0.61736   0.00000  Uiso   1.00
N640   N     0.83332   0.16666   0.38264   0.00000  Uiso   1.00
O641   O     0.83333   0.10655   0.53958   0.00000  Uiso   1.00
O642   O     0.83334   0.22678   0.46042   0.00000  Uiso   1.00
O643   O     0.83333   0.10654   0.46039   0.00000  Uiso   1.00
O644   O     0.83334   0.22679   0.53961   0.00000  Uiso   1.00
O645   O     0.75828   0.16667   0.53046   0.00000  Uiso   1.00
O646   O     0.90839   0.16666   0.46954   0.00000  Uiso   1.00
O647   O     0.75828   0.16666   0.45127   0.00000  Uiso   1.00
O648   O     0.90839   0.16667   0.54873   0.00000  Uiso   1.00
Br649  Br    0.98350   0.15938   0.41548   0.00000  Uiso   1.00
Br650  Br    0.68317   0.17401   0.58452   0.00000  Uiso   1.00
Br651  Br    0.74469   0.28087   0.42481   0.00000  Uiso   1.00
Br652  Br    0.92196   0.05246   0.57519   0.00000  Uiso   1.00
C653   C     0.77236   0.10201   0.36977   0.00000  Uiso   1.00
C654   C     0.71913   0.09384   0.34070   0.00000  Uiso   1.00
C655   C     0.68784   0.06111   0.36329   0.00000  Uiso   1.00
H656   H     0.70616   0.03086   0.36346   0.00000  Uiso   1.00
H657   H     0.68434   0.07064   0.39996   0.00000  Uiso   1.00
H658   H     0.98232   0.05711   0.34291   0.00000  Uiso   1.00
H659   H     0.69864   0.12307   0.33814   0.00000  Uiso   1.00
H660   H     0.72175   0.08211   0.63801   0.00000  Uiso   1.00
H661   H     0.79362   0.07313   0.37012   0.00000  Uiso   1.00
H662   H     0.76489   0.10895   0.40525   0.00000  Uiso   1.00
C663   C     0.89427   0.23135   0.63021   0.00000  Uiso   1.00
C664   C     0.94746   0.23962   0.65932   0.00000  Uiso   1.00
C665   C     0.97872   0.27235   0.63670   0.00000  Uiso   1.00
H666   H     0.98237   0.26273   0.60010   0.00000  Uiso   1.00
H667   H     0.96027   0.30254   0.63633   0.00000  Uiso   1.00
H668   H     0.68417   0.27650   0.65716   0.00000  Uiso   1.00
H669   H     0.94476   0.25141   0.36197   0.00000  Uiso   1.00
H670   H     0.96801   0.21043   0.66198   0.00000  Uiso   1.00
H671   H     0.90180   0.22437   0.59477   0.00000  Uiso   1.00
H672   H     0.87294   0.26018   0.62978   0.00000  Uiso   1.00
C673   C     0.16766   0.42088   0.49977   0.00000  Uiso   1.00
C674   C     0.16566   0.57912   0.50023   0.00000  Uiso   1.00
C675   C     0.06815   0.49992   0.48803   0.00000  Uiso   1.00
C676   C     0.26518   0.50009   0.51197   0.00000  Uiso   1.00
C677   C     0.01321   0.49888   0.48134   0.00000  Uiso   1.00
C678   C     0.32013   0.50115   0.51866   0.00000  Uiso   1.00
C679   C     0.13263   0.35342   0.46729   0.00000  Uiso   1.00
C680   C     0.20068   0.64658   0.53271   0.00000  Uiso   1.00
C681   C     0.13044   0.64378   0.46771   0.00000  Uiso   1.00
C682   C     0.20287   0.35622   0.53228   0.00000  Uiso   1.00
C683   C     0.16484   0.62373   0.50057   0.00000  Uiso   1.00
C684   C     0.16847   0.37627   0.49942   0.00000  Uiso   1.00
C685   C     0.13795   0.47028   0.35243   0.00000  Uiso   1.00
C686   C     0.19539   0.52972   0.64756   0.00000  Uiso   1.00
C687   C     0.13986   0.47015   0.63668   0.00000  Uiso   1.00
C688   C     0.19348   0.52984   0.36333   0.00000  Uiso   1.00
Cu689  Cu    0.16667   0.50001   0.54689   0.00000  Uiso   1.00
Cu690  Cu    0.16667   0.49999   0.45311   0.00000  Uiso   1.00
H691   H     0.10545   0.36902   0.44280   0.00000  Uiso   1.00
H692   H     0.22787   0.63098   0.55719   0.00000  Uiso   1.00
H693   H     0.11984   0.44619   0.61343   0.00000  Uiso   1.00
H694   H     0.21350   0.55380   0.38657   0.00000  Uiso   1.00
N695   N     0.16668   0.50001   0.61736   0.00000  Uiso   1.00
N696   N     0.16665   0.49999   0.38264   0.00000  Uiso   1.00
O697   O     0.16666   0.43989   0.53958   0.00000  Uiso   1.00
O698   O     0.16667   0.56011   0.46042   0.00000  Uiso   1.00
O699   O     0.16666   0.43988   0.46039   0.00000  Uiso   1.00
O700   O     0.16667   0.56012   0.53961   0.00000  Uiso   1.00
O701   O     0.09161   0.50000   0.53046   0.00000  Uiso   1.00
O702   O     0.24172   0.50000   0.46954   0.00000  Uiso   1.00
O703   O     0.09161   0.49999   0.45127   0.00000  Uiso   1.00
O704   O     0.24172   0.50001   0.54873   0.00000  Uiso   1.00
Br705  Br    0.31683   0.49271   0.41548   0.00000  Uiso   1.00
Br706  Br    0.01650   0.50734   0.58452   0.00000  Uiso   1.00
Br707  Br    0.07802   0.61421   0.42481   0.00000  Uiso   1.00
Br708  Br    0.25529   0.38579   0.57519   0.00000  Uiso   1.00
C709   C     0.10569   0.43534   0.36977   0.00000  Uiso   1.00
C710   C     0.05246   0.42717   0.34070   0.00000  Uiso   1.00
C711   C     0.02117   0.39444   0.36329   0.00000  Uiso   1.00
H712   H     0.03950   0.36419   0.36346   0.00000  Uiso   1.00
H713   H     0.01768   0.40397   0.39996   0.00000  Uiso   1.00
H714   H     0.31566   0.39044   0.34291   0.00000  Uiso   1.00
H715   H     0.03198   0.45640   0.33814   0.00000  Uiso   1.00
H716   H     0.05509   0.41544   0.63801   0.00000  Uiso   1.00
H717   H     0.12696   0.40647   0.37012   0.00000  Uiso   1.00
H718   H     0.09822   0.44229   0.40525   0.00000  Uiso   1.00
C719   C     0.22760   0.56468   0.63021   0.00000  Uiso   1.00
C720   C     0.28080   0.57296   0.65932   0.00000  Uiso   1.00
C721   C     0.31205   0.60568   0.63670   0.00000  Uiso   1.00
H722   H     0.31571   0.59606   0.60010   0.00000  Uiso   1.00
H723   H     0.29360   0.63588   0.63633   0.00000  Uiso   1.00
H724   H     0.01750   0.60983   0.65716   0.00000  Uiso   1.00
H725   H     0.27809   0.58475   0.36197   0.00000  Uiso   1.00
H726   H     0.30134   0.54376   0.66198   0.00000  Uiso   1.00
H727   H     0.23514   0.55770   0.59477   0.00000  Uiso   1.00
H728   H     0.20628   0.59352   0.62978   0.00000  Uiso   1.00
C729   C     0.50100   0.42088   0.49977   0.00000  Uiso   1.00
C730   C     0.49900   0.57912   0.50023   0.00000  Uiso   1.00
C731   C     0.40148   0.49992   0.48803   0.00000  Uiso   1.00
C732   C     0.59852   0.50009   0.51197   0.00000  Uiso   1.00
C733   C     0.34654   0.49888   0.48134   0.00000  Uiso   1.00
C734   C     0.65346   0.50115   0.51866   0.00000  Uiso   1.00
C735   C     0.46597   0.35342   0.46729   0.00000  Uiso   1.00
C736   C     0.53401   0.64658   0.53271   0.00000  Uiso   1.00
C737   C     0.46377   0.64378   0.46771   0.00000  Uiso   1.00
C738   C     0.53621   0.35622   0.53228   0.00000  Uiso   1.00
C739   C     0.49818   0.62373   0.50057   0.00000  Uiso   1.00
C740   C     0.50180   0.37627   0.49942   0.00000  Uiso   1.00
C741   C     0.47128   0.47028   0.35243   0.00000  Uiso   1.00
C742   C     0.52872   0.52972   0.64756   0.00000  Uiso   1.00
C743   C     0.47320   0.47015   0.63668   0.00000  Uiso   1.00
C744   C     0.52681   0.52984   0.36333   0.00000  Uiso   1.00
Cu745  Cu    0.50000   0.50001   0.54689   0.00000  Uiso   1.00
Cu746  Cu    0.50000   0.49999   0.45311   0.00000  Uiso   1.00
H747   H     0.43878   0.36902   0.44280   0.00000  Uiso   1.00
H748   H     0.56121   0.63098   0.55719   0.00000  Uiso   1.00
H749   H     0.45317   0.44619   0.61343   0.00000  Uiso   1.00
H750   H     0.54684   0.55380   0.38657   0.00000  Uiso   1.00
N751   N     0.50001   0.50001   0.61736   0.00000  Uiso   1.00
N752   N     0.49999   0.49999   0.38264   0.00000  Uiso   1.00
O753   O     0.50000   0.43989   0.53958   0.00000  Uiso   1.00
O754   O     0.50000   0.56011   0.46042   0.00000  Uiso   1.00
O755   O     0.50000   0.43988   0.46039   0.00000  Uiso   1.00
O756   O     0.50000   0.56012   0.53961   0.00000  Uiso   1.00
O757   O     0.42495   0.50000   0.53046   0.00000  Uiso   1.00
O758   O     0.57505   0.50000   0.46954   0.00000  Uiso   1.00
O759   O     0.42494   0.49999   0.45127   0.00000  Uiso   1.00
O760   O     0.57506   0.50001   0.54873   0.00000  Uiso   1.00
Br761  Br    0.65016   0.49271   0.41548   0.00000  Uiso   1.00
Br762  Br    0.34983   0.50734   0.58452   0.00000  Uiso   1.00
Br763  Br    0.41135   0.61421   0.42481   0.00000  Uiso   1.00
Br764  Br    0.58863   0.38579   0.57519   0.00000  Uiso   1.00
C765   C     0.43903   0.43534   0.36977   0.00000  Uiso   1.00
C766   C     0.38579   0.42717   0.34070   0.00000  Uiso   1.00
C767   C     0.35450   0.39444   0.36329   0.00000  Uiso   1.00
H768   H     0.37283   0.36419   0.36346   0.00000  Uiso   1.00
H769   H     0.35101   0.40397   0.39996   0.00000  Uiso   1.00
H770   H     0.64899   0.39044   0.34291   0.00000  Uiso   1.00
H771   H     0.36531   0.45640   0.33814   0.00000  Uiso   1.00
H772   H     0.38842   0.41544   0.63801   0.00000  Uiso   1.00
H773   H     0.46029   0.40647   0.37012   0.00000  Uiso   1.00
H774   H     0.43155   0.44229   0.40525   0.00000  Uiso   1.00
C775   C     0.56094   0.56468   0.63021   0.00000  Uiso   1.00
C776   C     0.61413   0.57296   0.65932   0.00000  Uiso   1.00
C777   C     0.64539   0.60568   0.63670   0.00000  Uiso   1.00
H778   H     0.64904   0.59606   0.60010   0.00000  Uiso   1.00
H779   H     0.62693   0.63588   0.63633   0.00000  Uiso   1.00
H780   H     0.35083   0.60983   0.65716   0.00000  Uiso   1.00
H781   H     0.61142   0.58475   0.36197   0.00000  Uiso   1.00
H782   H     0.63468   0.54376   0.66198   0.00000  Uiso   1.00
H783   H     0.56847   0.55770   0.59477   0.00000  Uiso   1.00
H784   H     0.53961   0.59352   0.62978   0.00000  Uiso   1.00
C785   C     0.83433   0.42088   0.49977   0.00000  Uiso   1.00
C786   C     0.83233   0.57912   0.50023   0.00000  Uiso   1.00
C787   C     0.73482   0.49992   0.48803   0.00000  Uiso   1.00
C788   C     0.93185   0.50009   0.51197   0.00000  Uiso   1.00
C789   C     0.67987   0.49888   0.48134   0.00000  Uiso   1.00
C790   C     0.98680   0.50115   0.51866   0.00000  Uiso   1.00
C791   C     0.79930   0.35342   0.46729   0.00000  Uiso   1.00
C792   C     0.86735   0.64658   0.53271   0.00000  Uiso   1.00
C793   C     0.79710   0.64378   0.46771   0.00000  Uiso   1.00
C794   C     0.86954   0.35622   0.53228   0.00000  Uiso   1.00
C795   C     0.83151   0.62373   0.50057   0.00000  Uiso   1.00
C796   C     0.83514   0.37627   0.49942   0.00000  Uiso   1.00
C797   C     0.80461   0.47028   0.35243   0.00000  Uiso   1.00
C798   C     0.86205   0.52972   0.64756   0.00000  Uiso   1.00
C799   C     0.80653   0.47015   0.63668   0.00000  Uiso   1.00
C800   C     0.86015   0.52984   0.36333   0.00000  Uiso   1.00
Cu801  Cu    0.83333   0.50001   0.54689   0.00000  Uiso   1.00
Cu802  Cu    0.83333   0.49999   0.45311   0.00000  Uiso   1.00
H803   H     0.77212   0.36902   0.44280   0.00000  Uiso   1.00
H804   H     0.89454   0.63098   0.55719   0.00000  Uiso   1.00
H805   H     0.78651   0.44619   0.61343   0.00000  Uiso   1.00
H806   H     0.88017   0.55380   0.38657   0.00000  Uiso   1.00
N807   N     0.83335   0.50001   0.61736   0.00000  Uiso   1.00
N808   N     0.83332   0.49999   0.38264   0.00000  Uiso   1.00
O809   O     0.83333   0.43989   0.53958   0.00000  Uiso   1.00
O810   O     0.83334   0.56011   0.46042   0.00000  Uiso   1.00
O811   O     0.83333   0.43988   0.46039   0.00000  Uiso   1.00
O812   O     0.83334   0.56012   0.53961   0.00000  Uiso   1.00
O813   O     0.75828   0.50000   0.53046   0.00000  Uiso   1.00
O814   O     0.90839   0.50000   0.46954   0.00000  Uiso   1.00
O815   O     0.75828   0.49999   0.45127   0.00000  Uiso   1.00
O816   O     0.90839   0.50001   0.54873   0.00000  Uiso   1.00
Br817  Br    0.98350   0.49271   0.41548   0.00000  Uiso   1.00
Br818  Br    0.68317   0.50734   0.58452   0.00000  Uiso   1.00
Br819  Br    0.74469   0.61421   0.42481   0.00000  Uiso   1.00
Br820  Br    0.92196   0.38579   0.57519   0.00000  Uiso   1.00
C821   C     0.77236   0.43534   0.36977   0.00000  Uiso   1.00
C822   C     0.71913   0.42717   0.34070   0.00000  Uiso   1.00
C823   C     0.68784   0.39444   0.36329   0.00000  Uiso   1.00
H824   H     0.70616   0.36419   0.36346   0.00000  Uiso   1.00
H825   H     0.68434   0.40397   0.39996   0.00000  Uiso   1.00
H826   H     0.98232   0.39044   0.34291   0.00000  Uiso   1.00
H827   H     0.69864   0.45640   0.33814   0.00000  Uiso   1.00
H828   H     0.72175   0.41544   0.63801   0.00000  Uiso   1.00
H829   H     0.79362   0.40647   0.37012   0.00000  Uiso   1.00
H830   H     0.76489   0.44229   0.40525   0.00000  Uiso   1.00
C831   C     0.89427   0.56468   0.63021   0.00000  Uiso   1.00
C832   C     0.94746   0.57296   0.65932   0.00000  Uiso   1.00
C833   C     0.97872   0.60568   0.63670   0.00000  Uiso   1.00
H834   H     0.98237   0.59606   0.60010   0.00000  Uiso   1.00
H835   H     0.96027   0.63588   0.63633   0.00000  Uiso   1.00
H836   H     0.68417   0.60983   0.65716   0.00000  Uiso   1.00
H837   H     0.94476   0.58475   0.36197   0.00000  Uiso   1.00
H838   H     0.96801   0.54376   0.66198   0.00000  Uiso   1.00
H839   H     0.90180   0.55770   0.59477   0.00000  Uiso   1.00
H840   H     0.87294   0.59352   0.62978   0.00000  Uiso   1.00
C841   C     0.16766   0.75421   0.49977   0.00000  Uiso   1.00
C842   C     0.16566   0.91246   0.50023   0.00000  Uiso   1.00
C843   C     0.06815   0.83325   0.48803   0.00000  Uiso   1.00
C844   C     0.26518   0.83342   0.51197   0.00000  Uiso   1.00
C845   C     0.01321   0.83221   0.48134   0.00000  Uiso   1.00
C846   C     0.32013   0.83448   0.51866   0.00000  Uiso   1.00
C847   C     0.13263   0.68675   0.46729   0.00000  Uiso   1.00
C848   C     0.20068   0.97991   0.53271   0.00000  Uiso   1.00
C849   C     0.13044   0.97712   0.46771   0.00000  Uiso   1.00
C850   C     0.20287   0.68955   0.53228   0.00000  Uiso   1.00
C851   C     0.16484   0.95706   0.50057   0.00000  Uiso   1.00
C852   C     0.16847   0.70961   0.49942   0.00000  Uiso   1.00
C853   C     0.13795   0.80361   0.35243   0.00000  Uiso   1.00
C854   C     0.19539   0.86306   0.64756   0.00000  Uiso   1.00
C855   C     0.13986   0.80348   0.63668   0.00000  Uiso   1.00
C856   C     0.19348   0.86318   0.36333   0.00000  Uiso   1.00
Cu857  Cu    0.16667   0.83334   0.54689   0.00000  Uiso   1.00
Cu858  Cu    0.16667   0.83333   0.45311   0.00000  Uiso   1.00
H859   H     0.10545   0.70235   0.44280   0.00000  Uiso   1.00
H860   H     0.22787   0.96431   0.55719   0.00000  Uiso   1.00
H861   H     0.11984   0.77953   0.61343   0.00000  Uiso   1.00
H862   H     0.21350   0.88713   0.38657   0.00000  Uiso   1.00
N863   N     0.16668   0.83334   0.61736   0.00000  Uiso   1.00
N864   N     0.16665   0.83332   0.38264   0.00000  Uiso   1.00
O865   O     0.16666   0.77322   0.53958   0.00000  Uiso   1.00
O866   O     0.16667   0.89345   0.46042   0.00000  Uiso   1.00
O867   O     0.16666   0.77321   0.46039   0.00000  Uiso   1.00
O868   O     0.16667   0.89346   0.53961   0.00000  Uiso   1.00
O869   O     0.09161   0.83334   0.53046   0.00000  Uiso   1.00
O870   O     0.24172   0.83333   0.46954   0.00000  Uiso   1.00
O871   O     0.09161   0.83333   0.45127   0.00000  Uiso   1.00
O872   O     0.24172   0.83334   0.54873   0.00000  Uiso   1.00
Br873  Br    0.31683   0.82605   0.41548   0.00000  Uiso   1.00
Br874  Br    0.01650   0.84067   0.58452   0.00000  Uiso   1.00
Br875  Br    0.07802   0.94754   0.42481   0.00000  Uiso   1.00
Br876  Br    0.25529   0.71912   0.57519   0.00000  Uiso   1.00
C877   C     0.10569   0.76867   0.36977   0.00000  Uiso   1.00
C878   C     0.05246   0.76050   0.34070   0.00000  Uiso   1.00
C879   C     0.02117   0.72778   0.36329   0.00000  Uiso   1.00
H880   H     0.03950   0.69753   0.36346   0.00000  Uiso   1.00
H881   H     0.01768   0.73730   0.39996   0.00000  Uiso   1.00
H882   H     0.31566   0.72378   0.34291   0.00000  Uiso   1.00
H883   H     0.03198   0.78974   0.33814   0.00000  Uiso   1.00
H884   H     0.05509   0.74877   0.63801   0.00000  Uiso   1.00
H885   H     0.12696   0.73980   0.37012   0.00000  Uiso   1.00
H886   H     0.09822   0.77562   0.40525   0.00000  Uiso   1.00
C887   C     0.22760   0.89801   0.63021   0.00000  Uiso   1.00
C888   C     0.28080   0.90629   0.65932   0.00000  Uiso   1.00
C889   C     0.31205   0.93902   0.63670   0.00000  Uiso   1.00
H890   H     0.31571   0.92939   0.60010   0.00000  Uiso   1.00
H891   H     0.29360   0.96921   0.63633   0.00000  Uiso   1.00
H892   H     0.01750   0.94316   0.65716   0.00000  Uiso   1.00
H893   H     0.27809   0.91808   0.36197   0.00000  Uiso   1.00
H894   H     0.30134   0.87709   0.66198   0.00000  Uiso   1.00
H895   H     0.23514   0.89103   0.59477   0.00000  Uiso   1.00
H896   H     0.20628   0.92685   0.62978   0.00000  Uiso   1.00
C897   C     0.50100   0.75421   0.49977   0.00000  Uiso   1.00
C898   C     0.49900   0.91246   0.50023   0.00000  Uiso   1.00
C899   C     0.40148   0.83325   0.48803   0.00000  Uiso   1.00
C900   C     0.59852   0.83342   0.51197   0.00000  Uiso   1.00
C901   C     0.34654   0.83221   0.48134   0.00000  Uiso   1.00
C902   C     0.65346   0.83448   0.51866   0.00000  Uiso   1.00
C903   C     0.46597   0.68675   0.46729   0.00000  Uiso   1.00
C904   C     0.53401   0.97991   0.53271   0.00000  Uiso   1.00
C905   C     0.46377   0.97712   0.46771   0.00000  Uiso   1.00
C906   C     0.53621   0.68955   0.53228   0.00000  Uiso   1.00
C907   C     0.49818   0.95706   0.50057   0.00000  Uiso   1.00
C908   C     0.50180   0.70961   0.49942   0.00000  Uiso   1.00
C909   C     0.47128   0.80361   0.35243   0.00000  Uiso   1.00
C910   C     0.52872   0.86306   0.64756   0.00000  Uiso   1.00
C911   C     0.47320   0.80348   0.63668   0.00000  Uiso   1.00
C912   C     0.52681   0.86318   0.36333   0.00000  Uiso   1.00
Cu913  Cu    0.50000   0.83334   0.54689   0.00000  Uiso   1.00
Cu914  Cu    0.50000   0.83333   0.45311   0.00000  Uiso   1.00
H915   H     0.43878   0.70235   0.44280   0.00000  Uiso   1.00
H916   H     0.56121   0.96431   0.55719   0.00000  Uiso   1.00
H917   H     0.45317   0.77953   0.61343   0.00000  Uiso   1.00
H918   H     0.54684   0.88713   0.38657   0.00000  Uiso   1.00
N919   N     0.50001   0.83334   0.61736   0.00000  Uiso   1.00
N920   N     0.49999   0.83332   0.38264   0.00000  Uiso   1.00
O921   O     0.50000   0.77322   0.53958   0.00000  Uiso   1.00
O922   O     0.50000   0.89345   0.46042   0.00000  Uiso   1.00
O923   O     0.50000   0.77321   0.46039   0.00000  Uiso   1.00
O924   O     0.50000   0.89346   0.53961   0.00000  Uiso   1.00
O925   O     0.42495   0.83334   0.53046   0.00000  Uiso   1.00
O926   O     0.57505   0.83333   0.46954   0.00000  Uiso   1.00
O927   O     0.42494   0.83333   0.45127   0.00000  Uiso   1.00
O928   O     0.57506   0.83334   0.54873   0.00000  Uiso   1.00
Br929  Br    0.65016   0.82605   0.41548   0.00000  Uiso   1.00
Br930  Br    0.34983   0.84067   0.58452   0.00000  Uiso   1.00
Br931  Br    0.41135   0.94754   0.42481   0.00000  Uiso   1.00
Br932  Br    0.58863   0.71912   0.57519   0.00000  Uiso   1.00
C933   C     0.43903   0.76867   0.36977   0.00000  Uiso   1.00
C934   C     0.38579   0.76050   0.34070   0.00000  Uiso   1.00
C935   C     0.35450   0.72778   0.36329   0.00000  Uiso   1.00
H936   H     0.37283   0.69753   0.36346   0.00000  Uiso   1.00
H937   H     0.35101   0.73730   0.39996   0.00000  Uiso   1.00
H938   H     0.64899   0.72378   0.34291   0.00000  Uiso   1.00
H939   H     0.36531   0.78974   0.33814   0.00000  Uiso   1.00
H940   H     0.38842   0.74877   0.63801   0.00000  Uiso   1.00
H941   H     0.46029   0.73980   0.37012   0.00000  Uiso   1.00
H942   H     0.43155   0.77562   0.40525   0.00000  Uiso   1.00
C943   C     0.56094   0.89801   0.63021   0.00000  Uiso   1.00
C944   C     0.61413   0.90629   0.65932   0.00000  Uiso   1.00
C945   C     0.64539   0.93902   0.63670   0.00000  Uiso   1.00
H946   H     0.64904   0.92939   0.60010   0.00000  Uiso   1.00
H947   H     0.62693   0.96921   0.63633   0.00000  Uiso   1.00
H948   H     0.35083   0.94316   0.65716   0.00000  Uiso   1.00
H949   H     0.61142   0.91808   0.36197   0.00000  Uiso   1.00
H950   H     0.63468   0.87709   0.66198   0.00000  Uiso   1.00
H951   H     0.56847   0.89103   0.59477   0.00000  Uiso   1.00
H952   H     0.53961   0.92685   0.62978   0.00000  Uiso   1.00
C953   C     0.83433   0.75421   0.49977   0.00000  Uiso   1.00
C954   C     0.83233   0.91246   0.50023   0.00000  Uiso   1.00
C955   C     0.73482   0.83325   0.48803   0.00000  Uiso   1.00
C956   C     0.93185   0.83342   0.51197   0.00000  Uiso   1.00
C957   C     0.67987   0.83221   0.48134   0.00000  Uiso   1.00
C958   C     0.98680   0.83448   0.51866   0.00000  Uiso   1.00
C959   C     0.79930   0.68675   0.46729   0.00000  Uiso   1.00
C960   C     0.86735   0.97991   0.53271   0.00000  Uiso   1.00
C961   C     0.79710   0.97712   0.46771   0.00000  Uiso   1.00
C962   C     0.86954   0.68955   0.53228   0.00000  Uiso   1.00
C963   C     0.83151   0.95706   0.50057   0.00000  Uiso   1.00
C964   C     0.83514   0.70961   0.49942   0.00000  Uiso   1.00
C965   C     0.80461   0.80361   0.35243   0.00000  Uiso   1.00
C966   C     0.86205   0.86306   0.64756   0.00000  Uiso   1.00
C967   C     0.80653   0.80348   0.63668   0.00000  Uiso   1.00
C968   C     0.86015   0.86318   0.36333   0.00000  Uiso   1.00
Cu969  Cu    0.83333   0.83334   0.54689   0.00000  Uiso   1.00
Cu970  Cu    0.83333   0.83333   0.45311   0.00000  Uiso   1.00
H971   H     0.77212   0.70235   0.44280   0.00000  Uiso   1.00
H972   H     0.89454   0.96431   0.55719   0.00000  Uiso   1.00
H973   H     0.78651   0.77953   0.61343   0.00000  Uiso   1.00
H974   H     0.88017   0.88713   0.38657   0.00000  Uiso   1.00
N975   N     0.83335   0.83334   0.61736   0.00000  Uiso   1.00
N976   N     0.83332   0.83332   0.38264   0.00000  Uiso   1.00
O977   O     0.83333   0.77322   0.53958   0.00000  Uiso   1.00
O978   O     0.83334   0.89345   0.46042   0.00000  Uiso   1.00
O979   O     0.83333   0.77321   0.46039   0.00000  Uiso   1.00
O980   O     0.83334   0.89346   0.53961   0.00000  Uiso   1.00
O981   O     0.75828   0.83334   0.53046   0.00000  Uiso   1.00
O982   O     0.90839   0.83333   0.46954   0.00000  Uiso   1.00
O983   O     0.75828   0.83333   0.45127   0.00000  Uiso   1.00
O984   O     0.90839   0.83334   0.54873   0.00000  Uiso   1.00
Br985  Br    0.98350   0.82605   0.41548   0.00000  Uiso   1.00
Br986  Br    0.68317   0.84067   0.58452   0.00000  Uiso   1.00
Br987  Br    0.74469   0.94754   0.42481   0.00000  Uiso   1.00
Br988  Br    0.92196   0.71912   0.57519   0.00000  Uiso   1.00
C989   C     0.77236   0.76867   0.36977   0.00000  Uiso   1.00
C990   C     0.71913   0.76050   0.34070   0.00000  Uiso   1.00
C991   C     0.68784   0.72778   0.36329   0.00000  Uiso   1.00
H992   H     0.70616   0.69753   0.36346   0.00000  Uiso   1.00
H993   H     0.68434   0.73730   0.39996   0.00000  Uiso   1.00
H994   H     0.98232   0.72378   0.34291   0.00000  Uiso   1.00
H995   H     0.69864   0.78974   0.33814   0.00000  Uiso   1.00
H996   H     0.72175   0.74877   0.63801   0.00000  Uiso   1.00
H997   H     0.79362   0.73980   0.37012   0.00000  Uiso   1.00
H998   H     0.76489   0.77562   0.40525   0.00000  Uiso   1.00
C999   C     0.89427   0.89801   0.63021   0.00000  Uiso   1.00
C1000  C     0.94746   0.90629   0.65932   0.00000  Uiso   1.00
C1001  C     0.97872   0.93902   0.63670   0.00000  Uiso   1.00
H1002  H     0.98237   0.92939   0.60010   0.00000  Uiso   1.00
H1003  H     0.96027   0.96921   0.63633   0.00000  Uiso   1.00
H1004  H     0.68417   0.94316   0.65716   0.00000  Uiso   1.00
H1005  H     0.94476   0.91808   0.36197   0.00000  Uiso   1.00
H1006  H     0.96801   0.87709   0.66198   0.00000  Uiso   1.00
H1007  H     0.90180   0.89103   0.59477   0.00000  Uiso   1.00
H1008  H     0.87294   0.92685   0.62978   0.00000  Uiso   1.00
C1009  C     0.16766   0.08754   0.83310   0.00000  Uiso   1.00
C1010  C     0.16566   0.24579   0.83357   0.00000  Uiso   1.00
C1011  C     0.06815   0.16658   0.82136   0.00000  Uiso   1.00
C1012  C     0.26518   0.16676   0.84531   0.00000  Uiso   1.00
C1013  C     0.01321   0.16555   0.81467   0.00000  Uiso   1.00
C1014  C     0.32013   0.16781   0.85200   0.00000  Uiso   1.00
C1015  C     0.13263   0.02009   0.80062   0.00000  Uiso   1.00
C1016  C     0.20068   0.31325   0.86604   0.00000  Uiso   1.00
C1017  C     0.13044   0.31045   0.80105   0.00000  Uiso   1.00
C1018  C     0.20287   0.02288   0.86562   0.00000  Uiso   1.00
C1019  C     0.16484   0.29039   0.83391   0.00000  Uiso   1.00
C1020  C     0.16847   0.04294   0.83276   0.00000  Uiso   1.00
C1021  C     0.13795   0.13695   0.68577   0.00000  Uiso   1.00
C1022  C     0.19539   0.19639   0.98090   0.00000  Uiso   1.00
C1023  C     0.13986   0.13682   0.97001   0.00000  Uiso   1.00
C1024  C     0.19348   0.19651   0.69666   0.00000  Uiso   1.00
Cu1025 Cu    0.16667   0.16667   0.88022   0.00000  Uiso   1.00
Cu1026 Cu    0.16667   0.16666   0.78645   0.00000  Uiso   1.00
H1027  H     0.10545   0.03568   0.77613   0.00000  Uiso   1.00
H1028  H     0.22787   0.29765   0.89053   0.00000  Uiso   1.00
H1029  H     0.11984   0.11286   0.94677   0.00000  Uiso   1.00
H1030  H     0.21350   0.22046   0.71991   0.00000  Uiso   1.00
N1031  N     0.16668   0.16668   0.95069   0.00000  Uiso   1.00
N1032  N     0.16665   0.16666   0.71597   0.00000  Uiso   1.00
O1033  O     0.16666   0.10655   0.87291   0.00000  Uiso   1.00
O1034  O     0.16667   0.22678   0.79375   0.00000  Uiso   1.00
O1035  O     0.16666   0.10654   0.79372   0.00000  Uiso   1.00
O1036  O     0.16667   0.22679   0.87294   0.00000  Uiso   1.00
O1037  O     0.09161   0.16667   0.86379   0.00000  Uiso   1.00
O1038  O     0.24172   0.16666   0.80288   0.00000  Uiso   1.00
O1039  O     0.09161   0.16666   0.78460   0.00000  Uiso   1.00
O1040  O     0.24172   0.16667   0.88207   0.00000  Uiso   1.00
Br1041 Br    0.31683   0.15938   0.74881   0.00000  Uiso   1.00
Br1042 Br    0.01650   0.17401   0.91785   0.00000  Uiso   1.00
Br1043 Br    0.07802   0.28087   0.75814   0.00000  Uiso   1.00
Br1044 Br    0.25529   0.05246   0.90853   0.00000  Uiso   1.00
C1045  C     0.10569   0.10201   0.70310   0.00000  Uiso   1.00
C1046  C     0.05246   0.09384   0.67403   0.00000  Uiso   1.00
C1047  C     0.02117   0.06111   0.69662   0.00000  Uiso   1.00
H1048  H     0.03950   0.03086   0.69679   0.00000  Uiso   1.00
H1049  H     0.01768   0.07064   0.73329   0.00000  Uiso   1.00
H1050  H     0.31566   0.05711   0.67624   0.00000  Uiso   1.00
H1051  H     0.03198   0.12307   0.67147   0.00000  Uiso   1.00
H1052  H     0.05509   0.08211   0.97134   0.00000  Uiso   1.00
H1053  H     0.12696   0.07313   0.70345   0.00000  Uiso   1.00
H1054  H     0.09822   0.10895   0.73858   0.00000  Uiso   1.00
C1055  C     0.22760   0.23135   0.96355   0.00000  Uiso   1.00
C1056  C     0.28080   0.23962   0.99266   0.00000  Uiso   1.00
C1057  C     0.31205   0.27235   0.97003   0.00000  Uiso   1.00
H1058  H     0.31571   0.26273   0.93343   0.00000  Uiso   1.00
H1059  H     0.29360   0.30254   0.96966   0.00000  Uiso   1.00
H1060  H     0.01750   0.27650   0.99050   0.00000  Uiso   1.00
H1061  H     0.27809   0.25141   0.69530   0.00000  Uiso   1.00
H1062  H     0.30134   0.21043   0.99531   0.00000  Uiso   1.00
H1063  H     0.23514   0.22437   0.92810   0.00000  Uiso   1.00
H1064  H     0.20628   0.26018   0.96312   0.00000  Uiso   1.00
C1065  C     0.50100   0.08754   0.83310   0.00000  Uiso   1.00
C1066  C     0.49900   0.24579   0.83357   0.00000  Uiso   1.00
C1067  C     0.40148   0.16658   0.82136   0.00000  Uiso   1.00
C1068  C     0.59852   0.16676   0.84531   0.00000  Uiso   1.00
C1069  C     0.34654   0.16555   0.81467   0.00000  Uiso   1.00
C1070  C     0.65346   0.16781   0.85200   0.00000  Uiso   1.00
C1071  C     0.46597   0.02009   0.80062   0.00000  Uiso   1.00
C1072  C     0.53401   0.31325   0.86604   0.00000  Uiso   1.00
C1073  C     0.46377   0.31045   0.80105   0.00000  Uiso   1.00
C1074  C     0.53621   0.02288   0.86562   0.00000  Uiso   1.00
C1075  C     0.49818   0.29039   0.83391   0.00000  Uiso   1.00
C1076  C     0.50180   0.04294   0.83276   0.00000  Uiso   1.00
C1077  C     0.47128   0.13695   0.68577   0.00000  Uiso   1.00
C1078  C     0.52872   0.19639   0.98090   0.00000  Uiso   1.00
C1079  C     0.47320   0.13682   0.97001   0.00000  Uiso   1.00
C1080  C     0.52681   0.19651   0.69666   0.00000  Uiso   1.00
Cu1081 Cu    0.50000   0.16667   0.88022   0.00000  Uiso   1.00
Cu1082 Cu    0.50000   0.16666   0.78645   0.00000  Uiso   1.00
H1083  H     0.43878   0.03568   0.77613   0.00000  Uiso   1.00
H1084  H     0.56121   0.29765   0.89053   0.00000  Uiso   1.00
H1085  H     0.45317   0.11286   0.94677   0.00000  Uiso   1.00
H1086  H     0.54684   0.22046   0.71991   0.00000  Uiso   1.00
N1087  N     0.50001   0.16668   0.95069   0.00000  Uiso   1.00
N1088  N     0.49999   0.16666   0.71597   0.00000  Uiso   1.00
O1089  O     0.50000   0.10655   0.87291   0.00000  Uiso   1.00
O1090  O     0.50000   0.22678   0.79375   0.00000  Uiso   1.00
O1091  O     0.50000   0.10654   0.79372   0.00000  Uiso   1.00
O1092  O     0.50000   0.22679   0.87294   0.00000  Uiso   1.00
O1093  O     0.42495   0.16667   0.86379   0.00000  Uiso   1.00
O1094  O     0.57505   0.16666   0.80288   0.00000  Uiso   1.00
O1095  O     0.42494   0.16666   0.78460   0.00000  Uiso   1.00
O1096  O     0.57506   0.16667   0.88207   0.00000  Uiso   1.00
Br1097 Br    0.65016   0.15938   0.74881   0.00000  Uiso   1.00
Br1098 Br    0.34983   0.17401   0.91785   0.00000  Uiso   1.00
Br1099 Br    0.41135   0.28087   0.75814   0.00000  Uiso   1.00
Br1100 Br    0.58863   0.05246   0.90853   0.00000  Uiso   1.00
C1101  C     0.43903   0.10201   0.70310   0.00000  Uiso   1.00
C1102  C     0.38579   0.09384   0.67403   0.00000  Uiso   1.00
C1103  C     0.35450   0.06111   0.69662   0.00000  Uiso   1.00
H1104  H     0.37283   0.03086   0.69679   0.00000  Uiso   1.00
H1105  H     0.35101   0.07064   0.73329   0.00000  Uiso   1.00
H1106  H     0.64899   0.05711   0.67624   0.00000  Uiso   1.00
H1107  H     0.36531   0.12307   0.67147   0.00000  Uiso   1.00
H1108  H     0.38842   0.08211   0.97134   0.00000  Uiso   1.00
H1109  H     0.46029   0.07313   0.70345   0.00000  Uiso   1.00
H1110  H     0.43155   0.10895   0.73858   0.00000  Uiso   1.00
C1111  C     0.56094   0.23135   0.96355   0.00000  Uiso   1.00
C1112  C     0.61413   0.23962   0.99266   0.00000  Uiso   1.00
C1113  C     0.64539   0.27235   0.97003   0.00000  Uiso   1.00
H1114  H     0.64904   0.26273   0.93343   0.00000  Uiso   1.00
H1115  H     0.62693   0.30254   0.96966   0.00000  Uiso   1.00
H1116  H     0.35083   0.27650   0.99050   0.00000  Uiso   1.00
H1117  H     0.61142   0.25141   0.69530   0.00000  Uiso   1.00
H1118  H     0.63468   0.21043   0.99531   0.00000  Uiso   1.00
H1119  H     0.56847   0.22437   0.92810   0.00000  Uiso   1.00
H1120  H     0.53961   0.26018   0.96312   0.00000  Uiso   1.00
C1121  C     0.83433   0.08754   0.83310   0.00000  Uiso   1.00
C1122  C     0.83233   0.24579   0.83357   0.00000  Uiso   1.00
C1123  C     0.73482   0.16658   0.82136   0.00000  Uiso   1.00
C1124  C     0.93185   0.16676   0.84531   0.00000  Uiso   1.00
C1125  C     0.67987   0.16555   0.81467   0.00000  Uiso   1.00
C1126  C     0.98680   0.16781   0.85200   0.00000  Uiso   1.00
C1127  C     0.79930   0.02009   0.80062   0.00000  Uiso   1.00
C1128  C     0.86735   0.31325   0.86604   0.00000  Uiso   1.00
C1129  C     0.79710   0.31045   0.80105   0.00000  Uiso   1.00
C1130  C     0.86954   0.02288   0.86562   0.00000  Uiso   1.00
C1131  C     0.83151   0.29039   0.83391   0.00000  Uiso   1.00
C1132  C     0.83514   0.04294   0.83276   0.00000  Uiso   1.00
C1133  C     0.80461   0.13695   0.68577   0.00000  Uiso   1.00
C1134  C     0.86205   0.19639   0.98090   0.00000  Uiso   1.00
C1135  C     0.80653   0.13682   0.97001   0.00000  Uiso   1.00
C1136  C     0.86015   0.19651   0.69666   0.00000  Uiso   1.00
Cu1137 Cu    0.83333   0.16667   0.88022   0.00000  Uiso   1.00
Cu1138 Cu    0.83333   0.16666   0.78645   0.00000  Uiso   1.00
H1139  H     0.77212   0.03568   0.77613   0.00000  Uiso   1.00
H1140  H     0.89454   0.29765   0.89053   0.00000  Uiso   1.00
H1141  H     0.78651   0.11286   0.94677   0.00000  Uiso   1.00
H1142  H     0.88017   0.22046   0.71991   0.00000  Uiso   1.00
N1143  N     0.83335   0.16668   0.95069   0.00000  Uiso   1.00
N1144  N     0.83332   0.16666   0.71597   0.00000  Uiso   1.00
O1145  O     0.83333   0.10655   0.87291   0.00000  Uiso   1.00
O1146  O     0.83334   0.22678   0.79375   0.00000  Uiso   1.00
O1147  O     0.83333   0.10654   0.79372   0.00000  Uiso   1.00
O1148  O     0.83334   0.22679   0.87294   0.00000  Uiso   1.00
O1149  O     0.75828   0.16667   0.86379   0.00000  Uiso   1.00
O1150  O     0.90839   0.16666   0.80288   0.00000  Uiso   1.00
O1151  O     0.75828   0.16666   0.78460   0.00000  Uiso   1.00
O1152  O     0.90839   0.16667   0.88207   0.00000  Uiso   1.00
Br1153 Br    0.98350   0.15938   0.74881   0.00000  Uiso   1.00
Br1154 Br    0.68317   0.17401   0.91785   0.00000  Uiso   1.00
Br1155 Br    0.74469   0.28087   0.75814   0.00000  Uiso   1.00
Br1156 Br    0.92196   0.05246   0.90853   0.00000  Uiso   1.00
C1157  C     0.77236   0.10201   0.70310   0.00000  Uiso   1.00
C1158  C     0.71913   0.09384   0.67403   0.00000  Uiso   1.00
C1159  C     0.68784   0.06111   0.69662   0.00000  Uiso   1.00
H1160  H     0.70616   0.03086   0.69679   0.00000  Uiso   1.00
H1161  H     0.68434   0.07064   0.73329   0.00000  Uiso   1.00
H1162  H     0.98232   0.05711   0.67624   0.00000  Uiso   1.00
H1163  H     0.69864   0.12307   0.67147   0.00000  Uiso   1.00
H1164  H     0.72175   0.08211   0.97134   0.00000  Uiso   1.00
H1165  H     0.79362   0.07313   0.70345   0.00000  Uiso   1.00
H1166  H     0.76489   0.10895   0.73858   0.00000  Uiso   1.00
C1167  C     0.89427   0.23135   0.96355   0.00000  Uiso   1.00
C1168  C     0.94746   0.23962   0.99266   0.00000  Uiso   1.00
C1169  C     0.97872   0.27235   0.97003   0.00000  Uiso   1.00
H1170  H     0.98237   0.26273   0.93343   0.00000  Uiso   1.00
H1171  H     0.96027   0.30254   0.96966   0.00000  Uiso   1.00
H1172  H     0.68417   0.27650   0.99050   0.00000  Uiso   1.00
H1173  H     0.94476   0.25141   0.69530   0.00000  Uiso   1.00
H1174  H     0.96801   0.21043   0.99531   0.00000  Uiso   1.00
H1175  H     0.90180   0.22437   0.92810   0.00000  Uiso   1.00
H1176  H     0.87294   0.26018   0.96312   0.00000  Uiso   1.00
C1177  C     0.16766   0.42088   0.83310   0.00000  Uiso   1.00
C1178  C     0.16566   0.57912   0.83357   0.00000  Uiso   1.00
C1179  C     0.06815   0.49992   0.82136   0.00000  Uiso   1.00
C1180  C     0.26518   0.50009   0.84531   0.00000  Uiso   1.00
C1181  C     0.01321   0.49888   0.81467   0.00000  Uiso   1.00
C1182  C     0.32013   0.50115   0.85200   0.00000  Uiso   1.00
C1183  C     0.13263   0.35342   0.80062   0.00000  Uiso   1.00
C1184  C     0.20068   0.64658   0.86604   0.00000  Uiso   1.00
C1185  C     0.13044   0.64378   0.80105   0.00000  Uiso   1.00
C1186  C     0.20287   0.35622   0.86562   0.00000  Uiso   1.00
C1187  C     0.16484   0.62373   0.83391   0.00000  Uiso   1.00
C1188  C     0.16847   0.37627   0.83276   0.00000  Uiso   1.00
C1189  C     0.13795   0.47028   0.68577   0.00000  Uiso   1.00
C1190  C     0.19539   0.52972   0.98090   0.00000  Uiso   1.00
C1191  C     0.13986   0.47015   0.97001   0.00000  Uiso   1.00
C1192  C     0.19348   0.52984   0.69666   0.00000  Uiso   1.00
Cu1193 Cu    0.16667   0.50001   0.88022   0.00000  Uiso   1.00
Cu1194 Cu    0.16667   0.49999   0.78645   0.00000  Uiso   1.00
H1195  H     0.10545   0.36902   0.77613   0.00000  Uiso   1.00
H1196  H     0.22787   0.63098   0.89053   0.00000  Uiso   1.00
H1197  H     0.11984   0.44619   0.94677   0.00000  Uiso   1.00
H1198  H     0.21350   0.55380   0.71991   0.00000  Uiso   1.00
N1199  N     0.16668   0.50001   0.95069   0.00000  Uiso   1.00
N1200  N     0.16665   0.49999   0.71597   0.00000  Uiso   1.00
O1201  O     0.16666   0.43989   0.87291   0.00000  Uiso   1.00
O1202  O     0.16667   0.56011   0.79375   0.00000  Uiso   1.00
O1203  O     0.16666   0.43988   0.79372   0.00000  Uiso   1.00
O1204  O     0.16667   0.56012   0.87294   0.00000  Uiso   1.00
O1205  O     0.09161   0.50000   0.86379   0.00000  Uiso   1.00
O1206  O     0.24172   0.50000   0.80288   0.00000  Uiso   1.00
O1207  O     0.09161   0.49999   0.78460   0.00000  Uiso   1.00
O1208  O     0.24172   0.50001   0.88207   0.00000  Uiso   1.00
Br1209 Br    0.31683   0.49271   0.74881   0.00000  Uiso   1.00
Br1210 Br    0.01650   0.50734   0.91785   0.00000  Uiso   1.00
Br1211 Br    0.07802   0.61421   0.75814   0.00000  Uiso   1.00
Br1212 Br    0.25529   0.38579   0.90853   0.00000  Uiso   1.00
C1213  C     0.10569   0.43534   0.70310   0.00000  Uiso   1.00
C1214  C     0.05246   0.42717   0.67403   0.00000  Uiso   1.00
C1215  C     0.02117   0.39444   0.69662   0.00000  Uiso   1.00
H1216  H     0.03950   0.36419   0.69679   0.00000  Uiso   1.00
H1217  H     0.01768   0.40397   0.73329   0.00000  Uiso   1.00
H1218  H     0.31566   0.39044   0.67624   0.00000  Uiso   1.00
H1219  H     0.03198   0.45640   0.67147   0.00000  Uiso   1.00
H1220  H     0.05509   0.41544   0.97134   0.00000  Uiso   1.00
H1221  H     0.12696   0.40647   0.70345   0.00000  Uiso   1.00
H1222  H     0.09822   0.44229   0.73858   0.00000  Uiso   1.00
C1223  C     0.22760   0.56468   0.96355   0.00000  Uiso   1.00
C1224  C     0.28080   0.57296   0.99266   0.00000  Uiso   1.00
C1225  C     0.31205   0.60568   0.97003   0.00000  Uiso   1.00
H1226  H     0.31571   0.59606   0.93343   0.00000  Uiso   1.00
H1227  H     0.29360   0.63588   0.96966   0.00000  Uiso   1.00
H1228  H     0.01750   0.60983   0.99050   0.00000  Uiso   1.00
H1229  H     0.27809   0.58475   0.69530   0.00000  Uiso   1.00
H1230  H     0.30134   0.54376   0.99531   0.00000  Uiso   1.00
H1231  H     0.23514   0.55770   0.92810   0.00000  Uiso   1.00
H1232  H     0.20628   0.59352   0.96312   0.00000  Uiso   1.00
C1233  C     0.50100   0.42088   0.83310   0.00000  Uiso   1.00
C1234  C     0.49900   0.57912   0.83357   0.00000  Uiso   1.00
C1235  C     0.40148   0.49992   0.82136   0.00000  Uiso   1.00
C1236  C     0.59852   0.50009   0.84531   0.00000  Uiso   1.00
C1237  C     0.34654   0.49888   0.81467   0.00000  Uiso   1.00
C1238  C     0.65346   0.50115   0.85200   0.00000  Uiso   1.00
C1239  C     0.46597   0.35342   0.80062   0.00000  Uiso   1.00
C1240  C     0.53401   0.64658   0.86604   0.00000  Uiso   1.00
C1241  C     0.46377   0.64378   0.80105   0.00000  Uiso   1.00
C1242  C     0.53621   0.35622   0.86562   0.00000  Uiso   1.00
C1243  C     0.49818   0.62373   0.83391   0.00000  Uiso   1.00
C1244  C     0.50180   0.37627   0.83276   0.00000  Uiso   1.00
C1245  C     0.47128   0.47028   0.68577   0.00000  Uiso   1.00
C1246  C     0.52872   0.52972   0.98090   0.00000  Uiso   1.00
C1247  C     0.47320   0.47015   0.97001   0.00000  Uiso   1.00
C1248  C     0.52681   0.52984   0.69666   0.00000  Uiso   1.00
Cu1249 Cu    0.50000   0.50001   0.88022   0.00000  Uiso   1.00
Cu1250 Cu    0.50000   0.49999   0.78645   0.00000  Uiso   1.00
H1251  H     0.43878   0.36902   0.77613   0.00000  Uiso   1.00
H1252  H     0.56121   0.63098   0.89053   0.00000  Uiso   1.00
H1253  H     0.45317   0.44619   0.94677   0.00000  Uiso   1.00
H1254  H     0.54684   0.55380   0.71991   0.00000  Uiso   1.00
N1255  N     0.50001   0.50001   0.95069   0.00000  Uiso   1.00
N1256  N     0.49999   0.49999   0.71597   0.00000  Uiso   1.00
O1257  O     0.50000   0.43989   0.87291   0.00000  Uiso   1.00
O1258  O     0.50000   0.56011   0.79375   0.00000  Uiso   1.00
O1259  O     0.50000   0.43988   0.79372   0.00000  Uiso   1.00
O1260  O     0.50000   0.56012   0.87294   0.00000  Uiso   1.00
O1261  O     0.42495   0.50000   0.86379   0.00000  Uiso   1.00
O1262  O     0.57505   0.50000   0.80288   0.00000  Uiso   1.00
O1263  O     0.42494   0.49999   0.78460   0.00000  Uiso   1.00
O1264  O     0.57506   0.50001   0.88207   0.00000  Uiso   1.00
Br1265 Br    0.65016   0.49271   0.74881   0.00000  Uiso   1.00
Br1266 Br    0.34983   0.50734   0.91785   0.00000  Uiso   1.00
Br1267 Br    0.41135   0.61421   0.75814   0.00000  Uiso   1.00
Br1268 Br    0.58863   0.38579   0.90853   0.00000  Uiso   1.00
C1269  C     0.43903   0.43534   0.70310   0.00000  Uiso   1.00
C1270  C     0.38579   0.42717   0.67403   0.00000  Uiso   1.00
C1271  C     0.35450   0.39444   0.69662   0.00000  Uiso   1.00
H1272  H     0.37283   0.36419   0.69679   0.00000  Uiso   1.00
H1273  H     0.35101   0.40397   0.73329   0.00000  Uiso   1.00
H1274  H     0.64899   0.39044   0.67624   0.00000  Uiso   1.00
H1275  H     0.36531   0.45640   0.67147   0.00000  Uiso   1.00
H1276  H     0.38842   0.41544   0.97134   0.00000  Uiso   1.00
H1277  H     0.46029   0.40647   0.70345   0.00000  Uiso   1.00
H1278  H     0.43155   0.44229   0.73858   0.00000  Uiso   1.00
C1279  C     0.56094   0.56468   0.96355   0.00000  Uiso   1.00
C1280  C     0.61413   0.57296   0.99266   0.00000  Uiso   1.00
C1281  C     0.64539   0.60568   0.97003   0.00000  Uiso   1.00
H1282  H     0.64904   0.59606   0.93343   0.00000  Uiso   1.00
H1283  H     0.62693   0.63588   0.96966   0.00000  Uiso   1.00
H1284  H     0.35083   0.60983   0.99050   0.00000  Uiso   1.00
H1285  H     0.61142   0.58475   0.69530   0.00000  Uiso   1.00
H1286  H     0.63468   0.54376   0.99531   0.00000  Uiso   1.00
H1287  H     0.56847   0.55770   0.92810   0.00000  Uiso   1.00
H1288  H     0.53961   0.59352   0.96312   0.00000  Uiso   1.00
C1289  C     0.83433   0.42088   0.83310   0.00000  Uiso   1.00
C1290  C     0.83233   0.57912   0.83357   0.00000  Uiso   1.00
C1291  C     0.73482   0.49992   0.82136   0.00000  Uiso   1.00
C1292  C     0.93185   0.50009   0.84531   0.00000  Uiso   1.00
C1293  C     0.67987   0.49888   0.81467   0.00000  Uiso   1.00
C1294  C     0.98680   0.50115   0.85200   0.00000  Uiso   1.00
C1295  C     0.79930   0.35342   0.80062   0.00000  Uiso   1.00
C1296  C     0.86735   0.64658   0.86604   0.00000  Uiso   1.00
C1297  C     0.79710   0.64378   0.80105   0.00000  Uiso   1.00
C1298  C     0.86954   0.35622   0.86562   0.00000  Uiso   1.00
C1299  C     0.83151   0.62373   0.83391   0.00000  Uiso   1.00
C1300  C     0.83514   0.37627   0.83276   0.00000  Uiso   1.00
C1301  C     0.80461   0.47028   0.68577   0.00000  Uiso   1.00
C1302  C     0.86205   0.52972   0.98090   0.00000  Uiso   1.00
C1303  C     0.80653   0.47015   0.97001   0.00000  Uiso   1.00
C1304  C     0.86015   0.52984   0.69666   0.00000  Uiso   1.00
Cu1305 Cu    0.83333   0.50001   0.88022   0.00000  Uiso   1.00
Cu1306 Cu    0.83333   0.49999   0.78645   0.00000  Uiso   1.00
H1307  H     0.77212   0.36902   0.77613   0.00000  Uiso   1.00
H1308  H     0.89454   0.63098   0.89053   0.00000  Uiso   1.00
H1309  H     0.78651   0.44619   0.94677   0.00000  Uiso   1.00
H1310  H     0.88017   0.55380   0.71991   0.00000  Uiso   1.00
N1311  N     0.83335   0.50001   0.95069   0.00000  Uiso   1.00
N1312  N     0.83332   0.49999   0.71597   0.00000  Uiso   1.00
O1313  O     0.83333   0.43989   0.87291   0.00000  Uiso   1.00
O1314  O     0.83334   0.56011   0.79375   0.00000  Uiso   1.00
O1315  O     0.83333   0.43988   0.79372   0.00000  Uiso   1.00
O1316  O     0.83334   0.56012   0.87294   0.00000  Uiso   1.00
O1317  O     0.75828   0.50000   0.86379   0.00000  Uiso   1.00
O1318  O     0.90839   0.50000   0.80288   0.00000  Uiso   1.00
O1319  O     0.75828   0.49999   0.78460   0.00000  Uiso   1.00
O1320  O     0.90839   0.50001   0.88207   0.00000  Uiso   1.00
Br1321 Br    0.98350   0.49271   0.74881   0.00000  Uiso   1.00
Br1322 Br    0.68317   0.50734   0.91785   0.00000  Uiso   1.00
Br1323 Br    0.74469   0.61421   0.75814   0.00000  Uiso   1.00
Br1324 Br    0.92196   0.38579   0.90853   0.00000  Uiso   1.00
C1325  C     0.77236   0.43534   0.70310   0.00000  Uiso   1.00
C1326  C     0.71913   0.42717   0.67403   0.00000  Uiso   1.00
C1327  C     0.68784   0.39444   0.69662   0.00000  Uiso   1.00
H1328  H     0.70616   0.36419   0.69679   0.00000  Uiso   1.00
H1329  H     0.68434   0.40397   0.73329   0.00000  Uiso   1.00
H1330  H     0.98232   0.39044   0.67624   0.00000  Uiso   1.00
H1331  H     0.69864   0.45640   0.67147   0.00000  Uiso   1.00
H1332  H     0.72175   0.41544   0.97134   0.00000  Uiso   1.00
H1333  H     0.79362   0.40647   0.70345   0.00000  Uiso   1.00
H1334  H     0.76489   0.44229   0.73858   0.00000  Uiso   1.00
C1335  C     0.89427   0.56468   0.96355   0.00000  Uiso   1.00
C1336  C     0.94746   0.57296   0.99266   0.00000  Uiso   1.00
C1337  C     0.97872   0.60568   0.97003   0.00000  Uiso   1.00
H1338  H     0.98237   0.59606   0.93343   0.00000  Uiso   1.00
H1339  H     0.96027   0.63588   0.96966   0.00000  Uiso   1.00
H1340  H     0.68417   0.60983   0.99050   0.00000  Uiso   1.00
H1341  H     0.94476   0.58475   0.69530   0.00000  Uiso   1.00
H1342  H     0.96801   0.54376   0.99531   0.00000  Uiso   1.00
H1343  H     0.90180   0.55770   0.92810   0.00000  Uiso   1.00
H1344  H     0.87294   0.59352   0.96312   0.00000  Uiso   1.00
C1345  C     0.16766   0.75421   0.83310   0.00000  Uiso   1.00
C1346  C     0.16566   0.91246   0.83357   0.00000  Uiso   1.00
C1347  C     0.06815   0.83325   0.82136   0.00000  Uiso   1.00
C1348  C     0.26518   0.83342   0.84531   0.00000  Uiso   1.00
C1349  C     0.01321   0.83221   0.81467   0.00000  Uiso   1.00
C1350  C     0.32013   0.83448   0.85200   0.00000  Uiso   1.00
C1351  C     0.13263   0.68675   0.80062   0.00000  Uiso   1.00
C1352  C     0.20068   0.97991   0.86604   0.00000  Uiso   1.00
C1353  C     0.13044   0.97712   0.80105   0.00000  Uiso   1.00
C1354  C     0.20287   0.68955   0.86562   0.00000  Uiso   1.00
C1355  C     0.16484   0.95706   0.83391   0.00000  Uiso   1.00
C1356  C     0.16847   0.70961   0.83276   0.00000  Uiso   1.00
C1357  C     0.13795   0.80361   0.68577   0.00000  Uiso   1.00
C1358  C     0.19539   0.86306   0.98090   0.00000  Uiso   1.00
C1359  C     0.13986   0.80348   0.97001   0.00000  Uiso   1.00
C1360  C     0.19348   0.86318   0.69666   0.00000  Uiso   1.00
Cu1361 Cu    0.16667   0.83334   0.88022   0.00000  Uiso   1.00
Cu1362 Cu    0.16667   0.83333   0.78645   0.00000  Uiso   1.00
H1363  H     0.10545   0.70235   0.77613   0.00000  Uiso   1.00
H1364  H     0.22787   0.96431   0.89053   0.00000  Uiso   1.00
H1365  H     0.11984   0.77953   0.94677   0.00000  Uiso   1.00
H1366  H     0.21350   0.88713   0.71991   0.00000  Uiso   1.00
N1367  N     0.16668   0.83334   0.95069   0.00000  Uiso   1.00
N1368  N     0.16665   0.83332   0.71597   0.00000  Uiso   1.00
O1369  O     0.16666   0.77322   0.87291   0.00000  Uiso   1.00
O1370  O     0.16667   0.89345   0.79375   0.00000  Uiso   1.00
O1371  O     0.16666   0.77321   0.79372   0.00000  Uiso   1.00
O1372  O     0.16667   0.89346   0.87294   0.00000  Uiso   1.00
O1373  O     0.09161   0.83334   0.86379   0.00000  Uiso   1.00
O1374  O     0.24172   0.83333   0.80288   0.00000  Uiso   1.00
O1375  O     0.09161   0.83333   0.78460   0.00000  Uiso   1.00
O1376  O     0.24172   0.83334   0.88207   0.00000  Uiso   1.00
Br1377 Br    0.31683   0.82605   0.74881   0.00000  Uiso   1.00
Br1378 Br    0.01650   0.84067   0.91785   0.00000  Uiso   1.00
Br1379 Br    0.07802   0.94754   0.75814   0.00000  Uiso   1.00
Br1380 Br    0.25529   0.71912   0.90853   0.00000  Uiso   1.00
C1381  C     0.10569   0.76867   0.70310   0.00000  Uiso   1.00
C1382  C     0.05246   0.76050   0.67403   0.00000  Uiso   1.00
C1383  C     0.02117   0.72778   0.69662   0.00000  Uiso   1.00
H1384  H     0.03950   0.69753   0.69679   0.00000  Uiso   1.00
H1385  H     0.01768   0.73730   0.73329   0.00000  Uiso   1.00
H1386  H     0.31566   0.72378   0.67624   0.00000  Uiso   1.00
H1387  H     0.03198   0.78974   0.67147   0.00000  Uiso   1.00
H1388  H     0.05509   0.74877   0.97134   0.00000  Uiso   1.00
H1389  H     0.12696   0.73980   0.70345   0.00000  Uiso   1.00
H1390  H     0.09822   0.77562   0.73858   0.00000  Uiso   1.00
C1391  C     0.22760   0.89801   0.96355   0.00000  Uiso   1.00
C1392  C     0.28080   0.90629   0.99266   0.00000  Uiso   1.00
C1393  C     0.31205   0.93902   0.97003   0.00000  Uiso   1.00
H1394  H     0.31571   0.92939   0.93343   0.00000  Uiso   1.00
H1395  H     0.29360   0.96921   0.96966   0.00000  Uiso   1.00
H1396  H     0.01750   0.94316   0.99050   0.00000  Uiso   1.00
H1397  H     0.27809   0.91808   0.69530   0.00000  Uiso   1.00
H1398  H     0.30134   0.87709   0.99531   0.00000  Uiso   1.00
H1399  H     0.23514   0.89103   0.92810   0.00000  Uiso   1.00
H1400  H     0.20628   0.92685   0.96312   0.00000  Uiso   1.00
C1401  C     0.50100   0.75421   0.83310   0.00000  Uiso   1.00
C1402  C     0.49900   0.91246   0.83357   0.00000  Uiso   1.00
C1403  C     0.40148   0.83325   0.82136   0.00000  Uiso   1.00
C1404  C     0.59852   0.83342   0.84531   0.00000  Uiso   1.00
C1405  C     0.34654   0.83221   0.81467   0.00000  Uiso   1.00
C1406  C     0.65346   0.83448   0.85200   0.00000  Uiso   1.00
C1407  C     0.46597   0.68675   0.80062   0.00000  Uiso   1.00
C1408  C     0.53401   0.97991   0.86604   0.00000  Uiso   1.00
C1409  C     0.46377   0.97712   0.80105   0.00000  Uiso   1.00
C1410  C     0.53621   0.68955   0.86562   0.00000  Uiso   1.00
C1411  C     0.49818   0.95706   0.83391   0.00000  Uiso   1.00
C1412  C     0.50180   0.70961   0.83276   0.00000  Uiso   1.00
C1413  C     0.47128   0.80361   0.68577   0.00000  Uiso   1.00
C1414  C     0.52872   0.86306   0.98090   0.00000  Uiso   1.00
C1415  C     0.47320   0.80348   0.97001   0.00000  Uiso   1.00
C1416  C     0.52681   0.86318   0.69666   0.00000  Uiso   1.00
Cu1417 Cu    0.50000   0.83334   0.88022   0.00000  Uiso   1.00
Cu1418 Cu    0.50000   0.83333   0.78645   0.00000  Uiso   1.00
H1419  H     0.43878   0.70235   0.77613   0.00000  Uiso   1.00
H1420  H     0.56121   0.96431   0.89053   0.00000  Uiso   1.00
H1421  H     0.45317   0.77953   0.94677   0.00000  Uiso   1.00
H1422  H     0.54684   0.88713   0.71991   0.00000  Uiso   1.00
N1423  N     0.50001   0.83334   0.95069   0.00000  Uiso   1.00
N1424  N     0.49999   0.83332   0.71597   0.00000  Uiso   1.00
O1425  O     0.50000   0.77322   0.87291   0.00000  Uiso   1.00
O1426  O     0.50000   0.89345   0.79375   0.00000  Uiso   1.00
O1427  O     0.50000   0.77321   0.79372   0.00000  Uiso   1.00
O1428  O     0.50000   0.89346   0.87294   0.00000  Uiso   1.00
O1429  O     0.42495   0.83334   0.86379   0.00000  Uiso   1.00
O1430  O     0.57505   0.83333   0.80288   0.00000  Uiso   1.00
O1431  O     0.42494   0.83333   0.78460   0.00000  Uiso   1.00
O1432  O     0.57506   0.83334   0.88207   0.00000  Uiso   1.00
Br1433 Br    0.65016   0.82605   0.74881   0.00000  Uiso   1.00
Br1434 Br    0.34983   0.84067   0.91785   0.00000  Uiso   1.00
Br1435 Br    0.41135   0.94754   0.75814   0.00000  Uiso   1.00
Br1436 Br    0.58863   0.71912   0.90853   0.00000  Uiso   1.00
C1437  C     0.43903   0.76867   0.70310   0.00000  Uiso   1.00
C1438  C     0.38579   0.76050   0.67403   0.00000  Uiso   1.00
C1439  C     0.35450   0.72778   0.69662   0.00000  Uiso   1.00
H1440  H     0.37283   0.69753   0.69679   0.00000  Uiso   1.00
H1441  H     0.35101   0.73730   0.73329   0.00000  Uiso   1.00
H1442  H     0.64899   0.72378   0.67624   0.00000  Uiso   1.00
H1443  H     0.36531   0.78974   0.67147   0.00000  Uiso   1.00
H1444  H     0.38842   0.74877   0.97134   0.00000  Uiso   1.00
H1445  H     0.46029   0.73980   0.70345   0.00000  Uiso   1.00
H1446  H     0.43155   0.77562   0.73858   0.00000  Uiso   1.00
C1447  C     0.56094   0.89801   0.96355   0.00000  Uiso   1.00
C1448  C     0.61413   0.90629   0.99266   0.00000  Uiso   1.00
C1449  C     0.64539   0.93902   0.97003   0.00000  Uiso   1.00
H1450  H     0.64904   0.92939   0.93343   0.00000  Uiso   1.00
H1451  H     0.62693   0.96921   0.96966   0.00000  Uiso   1.00
H1452  H     0.35083   0.94316   0.99050   0.00000  Uiso   1.00
H1453  H     0.61142   0.91808   0.69530   0.00000  Uiso   1.00
H1454  H     0.63468   0.87709   0.99531   0.00000  Uiso   1.00
H1455  H     0.56847   0.89103   0.92810   0.00000  Uiso   1.00
H1456  H     0.53961   0.92685   0.96312   0.00000  Uiso   1.00
C1457  C     0.83433   0.75421   0.83310   0.00000  Uiso   1.00
C1458  C     0.83233   0.91246   0.83357   0.00000  Uiso   1.00
C1459  C     0.73482   0.83325   0.82136   0.00000  Uiso   1.00
C1460  C     0.93185   0.83342   0.84531   0.00000  Uiso   1.00
C1461  C     0.67987   0.83221   0.81467   0.00000  Uiso   1.00
C1462  C     0.98680   0.83448   0.85200   0.00000  Uiso   1.00
C1463  C     0.79930   0.68675   0.80062   0.00000  Uiso   1.00
C1464  C     0.86735   0.97991   0.86604   0.00000  Uiso   1.00
C1465  C     0.79710   0.97712   0.80105   0.00000  Uiso   1.00
C1466  C     0.86954   0.68955   0.86562   0.00000  Uiso   1.00
C1467  C     0.83151   0.95706   0.83391   0.00000  Uiso   1.00
C1468  C     0.83514   0.70961   0.83276   0.00000  Uiso   1.00
C1469  C     0.80461   0.80361   0.68577   0.00000  Uiso   1.00
C1470  C     0.86205   0.86306   0.98090   0.00000  Uiso   1.00
C1471  C     0.80653   0.80348   0.97001   0.00000  Uiso   1.00
C1472  C     0.86015   0.86318   0.69666   0.00000  Uiso   1.00
Cu1473 Cu    0.83333   0.83334   0.88022   0.00000  Uiso   1.00
Cu1474 Cu    0.83333   0.83333   0.78645   0.00000  Uiso   1.00
H1475  H     0.77212   0.70235   0.77613   0.00000  Uiso   1.00
H1476  H     0.89454   0.96431   0.89053   0.00000  Uiso   1.00
H1477  H     0.78651   0.77953   0.94677   0.00000  Uiso   1.00
H1478  H     0.88017   0.88713   0.71991   0.00000  Uiso   1.00
N1479  N     0.83335   0.83334   0.95069   0.00000  Uiso   1.00
N1480  N     0.83332   0.83332   0.71597   0.00000  Uiso   1.00
O1481  O     0.83333   0.77322   0.87291   0.00000  Uiso   1.00
O1482  O     0.83334   0.89345   0.79375   0.00000  Uiso   1.00
O1483  O     0.83333   0.77321   0.79372   0.00000  Uiso   1.00
O1484  O     0.83334   0.89346   0.87294   0.00000  Uiso   1.00
O1485  O     0.75828   0.83334   0.86379   0.00000  Uiso   1.00
O1486  O     0.90839   0.83333   0.80288   0.00000  Uiso   1.00
O1487  O     0.75828   0.83333   0.78460   0.00000  Uiso   1.00
O1488  O     0.90839   0.83334   0.88207   0.00000  Uiso   1.00
Br1489 Br    0.98350   0.82605   0.74881   0.00000  Uiso   1.00
Br1490 Br    0.68317   0.84067   0.91785   0.00000  Uiso   1.00
Br1491 Br    0.74469   0.94754   0.75814   0.00000  Uiso   1.00
Br1492 Br    0.92196   0.71912   0.90853   0.00000  Uiso   1.00
C1493  C     0.77236   0.76867   0.70310   0.00000  Uiso   1.00
C1494  C     0.71913   0.76050   0.67403   0.00000  Uiso   1.00
C1495  C     0.68784   0.72778   0.69662   0.00000  Uiso   1.00
H1496  H     0.70616   0.69753   0.69679   0.00000  Uiso   1.00
H1497  H     0.68434   0.73730   0.73329   0.00000  Uiso   1.00
H1498  H     0.98232   0.72378   0.67624   0.00000  Uiso   1.00
H1499  H     0.69864   0.78974   0.67147   0.00000  Uiso   1.00
H1500  H     0.72175   0.74877   0.97134   0.00000  Uiso   1.00
H1501  H     0.79362   0.73980   0.70345   0.00000  Uiso   1.00
H1502  H     0.76489   0.77562   0.73858   0.00000  Uiso   1.00
C1503  C     0.89427   0.89801   0.96355   0.00000  Uiso   1.00
C1504  C     0.94746   0.90629   0.99266   0.00000  Uiso   1.00
C1505  C     0.97872   0.93902   0.97003   0.00000  Uiso   1.00
H1506  H     0.98237   0.92939   0.93343   0.00000  Uiso   1.00
H1507  H     0.96027   0.96921   0.96966   0.00000  Uiso   1.00
H1508  H     0.68417   0.94316   0.99050   0.00000  Uiso   1.00
H1509  H     0.94476   0.91808   0.69530   0.00000  Uiso   1.00
H1510  H     0.96801   0.87709   0.99531   0.00000  Uiso   1.00
H1511  H     0.90180   0.89103   0.92810   0.00000  Uiso   1.00
H1512  H     0.87294   0.92685   0.96312   0.00000  Uiso   1.00
loop_
_geom_bond_atom_site_label_1
_geom_bond_atom_site_label_2
_geom_bond_distance
_geom_bond_site_symmetry_2
_ccdc_geom_bond_type
C1     O25     1.292   .     A
C1     C12     1.441   .     S
C1     O27     1.298   .     A
C2     O26     1.292   .     A
C2     C11     1.441   .     S
C2     O28     1.298   .     A
C3     O31     1.304   .     A
C3     O29     1.286   .     A
C3     C5      1.442   .     S
C4     O32     1.304   .     A
C4     C6      1.442   .     S
C4     O30     1.286   .     A
C5     C118    1.369   1_455 S
C5     Br145   1.945   1_455 S
C6     C61     1.369   .     S
C6     Br90    1.945   .     S
C7     H19     1.082   .     S
C7     C12     1.397   .     A
C7     C345    1.386   1_545 S
C8     H20     1.082   .     S
C8     C11     1.397   .     A
C8     C178    1.386   .     S
C9     C11     1.406   .     A
C9     Br35    1.922   .     S
C9     C175    1.386   .     S
C10    C12     1.406   .     A
C10    Br36    1.922   .     S
C10    C344    1.386   1_545 S
C13    C37     1.522   .     S
C13    N24     1.399   .     A
C13    C1023   1.421   1_554 S
C14    N23     1.399   .     A
C14    C47     1.522   .     S
C14    C520    1.421   .     S
C15    N23     1.350   .     A
C15    H21     1.078   .     S
C15    C517    1.421   .     S
C16    N24     1.350   .     A
C16    H22     1.078   .     S
C16    C1022   1.421   1_554 S
Cu17   O29     1.980   .     S
Cu17   O25     1.948   .     S
Cu17   Cu18    2.698   .     S
Cu17   N23     2.028   .     S
Cu17   O32     1.987   .     S
Cu17   O28     1.957   .     S
Cu18   O30     1.980   .     S
Cu18   O26     1.948   .     S
Cu18   N24     2.028   .     S
Cu18   O31     1.987   .     S
Cu18   O27     1.957   .     S
Br33   C61     1.945   .     S
Br34   C118    1.945   1_455 S
C37    C38     1.542   .     S
C37    H45     1.112   .     S
C37    H46     1.089   .     S
C38    H43     1.110   .     S
C38    C39     1.529   .     S
C38    H1052   1.108   1_554 S
C39    H41     1.111   .     S
C39    H40     1.111   .     S
C39    H154    1.110   1_455 S
H42    C95     1.110   .     S
H44    C542    1.108   .     S
C47    C48     1.542   .     S
C47    H55     1.089   .     S
C47    H56     1.111   .     S
C48    H54     1.110   .     S
C48    C49     1.529   .     S
C48    H557    1.108   .     S
C49    H50     1.110   .     S
C49    H51     1.111   .     S
C49    H108    1.110   .     S
H52    C161    1.110   1_455 S
H53    C1056   1.108   1_554 S
C57    O81     1.292   .     A
C57    C68     1.441   .     S
C57    O83     1.298   .     A
C58    O82     1.292   .     A
C58    C67     1.441   .     S
C58    O84     1.298   .     A
C59    O87     1.304   .     A
C59    O85     1.286   .     A
C59    C61     1.442   .     S
C60    O88     1.304   .     A
C60    C62     1.442   .     S
C60    O86     1.286   .     A
C62    C117    1.369   .     S
C62    Br146   1.945   .     S
C63    H75     1.082   .     S
C63    C68     1.397   .     A
C63    C401    1.386   1_545 S
C64    H76     1.082   .     S
C64    C67     1.397   .     A
C64    C234    1.386   .     S
C65    C67     1.406   .     A
C65    Br91    1.922   .     S
C65    C231    1.386   .     S
C66    C68     1.406   .     A
C66    Br92    1.922   .     S
C66    C400    1.386   1_545 S
C69    C93     1.522   .     S
C69    N80     1.399   .     A
C69    C1079   1.421   1_554 S
C70    N79     1.399   .     A
C70    C103    1.522   .     S
C70    C576    1.421   .     S
C71    N79     1.350   .     A
C71    H77     1.078   .     S
C71    C573    1.421   .     S
C72    N80     1.350   .     A
C72    H78     1.078   .     S
C72    C1078   1.421   1_554 S
Cu73   O85     1.980   .     S
Cu73   O81     1.948   .     S
Cu73   Cu74    2.698   .     S
Cu73   N79     2.028   .     S
Cu73   O88     1.987   .     S
Cu73   O84     1.957   .     S
Cu74   O86     1.980   .     S
Cu74   O82     1.948   .     S
Cu74   N80     2.028   .     S
Cu74   O87     1.987   .     S
Cu74   O83     1.957   .     S
Br89   C117    1.945   .     S
C93    C94     1.542   .     S
C93    H101    1.112   .     S
C93    H102    1.089   .     S
C94    H99     1.110   .     S
C94    C95     1.529   .     S
C94    H1108   1.108   1_554 S
C95    H97     1.111   .     S
C95    H96     1.111   .     S
H98    C151    1.110   .     S
H100   C598    1.108   .     S
C103   C104    1.542   .     S
C103   H111    1.089   .     S
C103   H112    1.111   .     S
C104   H110    1.110   .     S
C104   C105    1.529   .     S
C104   H613    1.108   .     S
C105   H106    1.110   .     S
C105   H107    1.111   .     S
C105   H164    1.110   .     S
H109   C1112   1.108   1_554 S
C113   O137    1.292   .     A
C113   C124    1.441   .     S
C113   O139    1.298   .     A
C114   O138    1.292   .     A
C114   C123    1.441   .     S
C114   O140    1.298   .     A
C115   O143    1.304   .     A
C115   O141    1.286   .     A
C115   C117    1.442   .     S
C116   O144    1.304   .     A
C116   C118    1.442   .     S
C116   O142    1.286   .     A
C118   C5      1.369   1_655 S
C118   Br34    1.945   1_655 S
C119   H131    1.082   .     S
C119   C124    1.397   .     A
C119   C457    1.386   1_545 S
C120   H132    1.082   .     S
C120   C123    1.397   .     A
C120   C290    1.386   .     S
C121   C123    1.406   .     A
C121   Br147   1.922   .     S
C121   C287    1.386   .     S
C122   C124    1.406   .     A
C122   Br148   1.922   .     S
C122   C456    1.386   1_545 S
C125   C149    1.522   .     S
C125   N136    1.399   .     A
C125   C1135   1.421   1_554 S
C126   N135    1.399   .     A
C126   C159    1.522   .     S
C126   C632    1.421   .     S
C127   N135    1.350   .     A
C127   H133    1.078   .     S
C127   C629    1.421   .     S
C128   N136    1.350   .     A
C128   H134    1.078   .     S
C128   C1134   1.421   1_554 S
Cu129  O141    1.980   .     S
Cu129  O137    1.948   .     S
Cu129  Cu130   2.698   .     S
Cu129  N135    2.028   .     S
Cu129  O144    1.987   .     S
Cu129  O140    1.957   .     S
Cu130  O142    1.980   .     S
Cu130  O138    1.948   .     S
Cu130  N136    2.028   .     S
Cu130  O143    1.987   .     S
Cu130  O139    1.957   .     S
Br145  C5      1.945   1_655 S
C149   C150    1.542   .     S
C149   H157    1.112   .     S
C149   H158    1.089   .     S
C150   H155    1.110   .     S
C150   C151    1.529   .     S
C150   H1164   1.108   1_554 S
C151   H153    1.111   .     S
C151   H152    1.111   .     S
H154   C39     1.110   1_655 S
H156   C654    1.108   .     S
C159   C160    1.542   .     S
C159   H167    1.089   .     S
C159   H168    1.111   .     S
C160   H166    1.110   .     S
C160   C161    1.529   .     S
C160   H669    1.108   .     S
C161   H162    1.110   .     S
C161   H163    1.111   .     S
C161   H52     1.110   1_655 S
H165   C1168   1.108   1_554 S
C169   O193    1.292   .     A
C169   C180    1.441   .     S
C169   O195    1.298   .     A
C170   O194    1.292   .     A
C170   C179    1.441   .     S
C170   O196    1.298   .     A
C171   O199    1.304   .     A
C171   O197    1.286   .     A
C171   C173    1.442   .     S
C172   O200    1.304   .     A
C172   C174    1.442   .     S
C172   O198    1.286   .     A
C173   C286    1.369   1_455 S
C173   Br313   1.945   1_455 S
C174   C229    1.369   .     S
C174   Br258   1.945   .     S
C175   H187    1.082   .     S
C175   C180    1.397   .     A
C176   H188    1.082   .     S
C176   C179    1.397   .     A
C176   C346    1.386   .     S
C177   C179    1.406   .     A
C177   Br203   1.922   .     S
C177   C343    1.386   .     S
C178   C180    1.406   .     A
C178   Br204   1.922   .     S
C181   C205    1.522   .     S
C181   N192    1.399   .     A
C181   C1191   1.421   1_554 S
C182   N191    1.399   .     A
C182   C215    1.522   .     S
C182   C688    1.421   .     S
C183   N191    1.350   .     A
C183   H189    1.078   .     S
C183   C685    1.421   .     S
C184   N192    1.350   .     A
C184   H190    1.078   .     S
C184   C1190   1.421   1_554 S
Cu185  O197    1.980   .     S
Cu185  O193    1.948   .     S
Cu185  Cu186   2.698   .     S
Cu185  N191    2.028   .     S
Cu185  O200    1.987   .     S
Cu185  O196    1.957   .     S
Cu186  O198    1.980   .     S
Cu186  O194    1.948   .     S
Cu186  N192    2.028   .     S
Cu186  O199    1.987   .     S
Cu186  O195    1.957   .     S
Br201  C229    1.945   .     S
Br202  C286    1.945   1_455 S
C205   C206    1.542   .     S
C205   H213    1.112   .     S
C205   H214    1.089   .     S
C206   H211    1.110   .     S
C206   C207    1.529   .     S
C206   H1220   1.108   1_554 S
C207   H209    1.111   .     S
C207   H208    1.111   .     S
C207   H322    1.110   1_455 S
H210   C263    1.110   .     S
H212   C710    1.108   .     S
C215   C216    1.542   .     S
C215   H223    1.089   .     S
C215   H224    1.111   .     S
C216   H222    1.110   .     S
C216   C217    1.529   .     S
C216   H725    1.108   .     S
C217   H218    1.110   .     S
C217   H219    1.111   .     S
C217   H276    1.110   .     S
H220   C329    1.110   1_455 S
H221   C1224   1.108   1_554 S
C225   O249    1.292   .     A
C225   C236    1.441   .     S
C225   O251    1.298   .     A
C226   O250    1.292   .     A
C226   C235    1.441   .     S
C226   O252    1.298   .     A
C227   O255    1.304   .     A
C227   O253    1.286   .     A
C227   C229    1.442   .     S
C228   O256    1.304   .     A
C228   C230    1.442   .     S
C228   O254    1.286   .     A
C230   C285    1.369   .     S
C230   Br314   1.945   .     S
C231   H243    1.082   .     S
C231   C236    1.397   .     A
C232   H244    1.082   .     S
C232   C235    1.397   .     A
C232   C402    1.386   .     S
C233   C235    1.406   .     A
C233   Br259   1.922   .     S
C233   C399    1.386   .     S
C234   C236    1.406   .     A
C234   Br260   1.922   .     S
C237   C261    1.522   .     S
C237   N248    1.399   .     A
C237   C1247   1.421   1_554 S
C238   N247    1.399   .     A
C238   C271    1.522   .     S
C238   C744    1.421   .     S
C239   N247    1.350   .     A
C239   H245    1.078   .     S
C239   C741    1.421   .     S
C240   N248    1.350   .     A
C240   H246    1.078   .     S
C240   C1246   1.421   1_554 S
Cu241  O253    1.980   .     S
Cu241  O249    1.948   .     S
Cu241  Cu242   2.698   .     S
Cu241  N247    2.028   .     S
Cu241  O256    1.987   .     S
Cu241  O252    1.957   .     S
Cu242  O254    1.980   .     S
Cu242  O250    1.948   .     S
Cu242  N248    2.028   .     S
Cu242  O255    1.987   .     S
Cu242  O251    1.957   .     S
Br257  C285    1.945   .     S
C261   C262    1.542   .     S
C261   H269    1.112   .     S
C261   H270    1.089   .     S
C262   H267    1.110   .     S
C262   C263    1.529   .     S
C262   H1276   1.108   1_554 S
C263   H265    1.111   .     S
C263   H264    1.111   .     S
H266   C319    1.110   .     S
H268   C766    1.108   .     S
C271   C272    1.542   .     S
C271   H279    1.089   .     S
C271   H280    1.111   .     S
C272   H278    1.110   .     S
C272   C273    1.529   .     S
C272   H781    1.108   .     S
C273   H274    1.110   .     S
C273   H275    1.111   .     S
C273   H332    1.110   .     S
H277   C1280   1.108   1_554 S
C281   O305    1.292   .     A
C281   C292    1.441   .     S
C281   O307    1.298   .     A
C282   O306    1.292   .     A
C282   C291    1.441   .     S
C282   O308    1.298   .     A
C283   O311    1.304   .     A
C283   O309    1.286   .     A
C283   C285    1.442   .     S
C284   O312    1.304   .     A
C284   C286    1.442   .     S
C284   O310    1.286   .     A
C286   C173    1.369   1_655 S
C286   Br202   1.945   1_655 S
C287   H299    1.082   .     S
C287   C292    1.397   .     A
C288   H300    1.082   .     S
C288   C291    1.397   .     A
C288   C458    1.386   .     S
C289   C291    1.406   .     A
C289   Br315   1.922   .     S
C289   C455    1.386   .     S
C290   C292    1.406   .     A
C290   Br316   1.922   .     S
C293   C317    1.522   .     S
C293   N304    1.399   .     A
C293   C1303   1.421   1_554 S
C294   N303    1.399   .     A
C294   C327    1.522   .     S
C294   C800    1.421   .     S
C295   N303    1.350   .     A
C295   H301    1.078   .     S
C295   C797    1.421   .     S
C296   N304    1.350   .     A
C296   H302    1.078   .     S
C296   C1302   1.421   1_554 S
Cu297  O309    1.980   .     S
Cu297  O305    1.948   .     S
Cu297  Cu298   2.698   .     S
Cu297  N303    2.028   .     S
Cu297  O312    1.987   .     S
Cu297  O308    1.957   .     S
Cu298  O310    1.980   .     S
Cu298  O306    1.948   .     S
Cu298  N304    2.028   .     S
Cu298  O311    1.987   .     S
Cu298  O307    1.957   .     S
Br313  C173    1.945   1_655 S
C317   C318    1.542   .     S
C317   H325    1.112   .     S
C317   H326    1.089   .     S
C318   H323    1.110   .     S
C318   C319    1.529   .     S
C318   H1332   1.108   1_554 S
C319   H321    1.111   .     S
C319   H320    1.111   .     S
H322   C207    1.110   1_655 S
H324   C822    1.108   .     S
C327   C328    1.542   .     S
C327   H335    1.089   .     S
C327   H336    1.111   .     S
C328   H334    1.110   .     S
C328   C329    1.529   .     S
C328   H837    1.108   .     S
C329   H330    1.110   .     S
C329   H331    1.111   .     S
C329   H220    1.110   1_655 S
H333   C1336   1.108   1_554 S
C337   O361    1.292   .     A
C337   C348    1.441   .     S
C337   O363    1.298   .     A
C338   O362    1.292   .     A
C338   C347    1.441   .     S
C338   O364    1.298   .     A
C339   O367    1.304   .     A
C339   O365    1.286   .     A
C339   C341    1.442   .     S
C340   O368    1.304   .     A
C340   C342    1.442   .     S
C340   O366    1.286   .     A
C341   C454    1.369   1_455 S
C341   Br481   1.945   1_455 S
C342   C397    1.369   .     S
C342   Br426   1.945   .     S
C343   H355    1.082   .     S
C343   C348    1.397   .     A
C344   H356    1.082   .     S
C344   C347    1.397   .     A
C344   C10     1.386   1_565 S
C345   C347    1.406   .     A
C345   Br371   1.922   .     S
C345   C7      1.386   1_565 S
C346   C348    1.406   .     A
C346   Br372   1.922   .     S
C349   C373    1.522   .     S
C349   N360    1.399   .     A
C349   C1359   1.421   1_554 S
C350   N359    1.399   .     A
C350   C383    1.522   .     S
C350   C856    1.421   .     S
C351   N359    1.350   .     A
C351   H357    1.078   .     S
C351   C853    1.421   .     S
C352   N360    1.350   .     A
C352   H358    1.078   .     S
C352   C1358   1.421   1_554 S
Cu353  O365    1.980   .     S
Cu353  O361    1.948   .     S
Cu353  Cu354   2.698   .     S
Cu353  N359    2.028   .     S
Cu353  O368    1.987   .     S
Cu353  O364    1.957   .     S
Cu354  O366    1.980   .     S
Cu354  O362    1.948   .     S
Cu354  N360    2.028   .     S
Cu354  O367    1.987   .     S
Cu354  O363    1.957   .     S
Br369  C397    1.945   .     S
Br370  C454    1.945   1_455 S
C373   C374    1.542   .     S
C373   H381    1.112   .     S
C373   H382    1.089   .     S
C374   H379    1.110   .     S
C374   C375    1.529   .     S
C374   H1388   1.108   1_554 S
C375   H377    1.111   .     S
C375   H376    1.111   .     S
C375   H490    1.110   1_455 S
H378   C431    1.110   .     S
H380   C878    1.108   .     S
C383   C384    1.542   .     S
C383   H391    1.089   .     S
C383   H392    1.111   .     S
C384   H390    1.110   .     S
C384   C385    1.529   .     S
C384   H893    1.108   .     S
C385   H386    1.110   .     S
C385   H387    1.111   .     S
C385   H444    1.110   .     S
H388   C497    1.110   1_455 S
H389   C1392   1.108   1_554 S
C393   O417    1.292   .     A
C393   C404    1.441   .     S
C393   O419    1.298   .     A
C394   O418    1.292   .     A
C394   C403    1.441   .     S
C394   O420    1.298   .     A
C395   O423    1.304   .     A
C395   O421    1.286   .     A
C395   C397    1.442   .     S
C396   O424    1.304   .     A
C396   C398    1.442   .     S
C396   O422    1.286   .     A
C398   C453    1.369   .     S
C398   Br482   1.945   .     S
C399   H411    1.082   .     S
C399   C404    1.397   .     A
C400   H412    1.082   .     S
C400   C403    1.397   .     A
C400   C66     1.386   1_565 S
C401   C403    1.406   .     A
C401   Br427   1.922   .     S
C401   C63     1.386   1_565 S
C402   C404    1.406   .     A
C402   Br428   1.922   .     S
C405   C429    1.522   .     S
C405   N416    1.399   .     A
C405   C1415   1.421   1_554 S
C406   N415    1.399   .     A
C406   C439    1.522   .     S
C406   C912    1.421   .     S
C407   N415    1.350   .     A
C407   H413    1.078   .     S
C407   C909    1.421   .     S
C408   N416    1.350   .     A
C408   H414    1.078   .     S
C408   C1414   1.421   1_554 S
Cu409  O421    1.980   .     S
Cu409  O417    1.948   .     S
Cu409  Cu410   2.698   .     S
Cu409  N415    2.028   .     S
Cu409  O424    1.987   .     S
Cu409  O420    1.957   .     S
Cu410  O422    1.980   .     S
Cu410  O418    1.948   .     S
Cu410  N416    2.028   .     S
Cu410  O423    1.987   .     S
Cu410  O419    1.957   .     S
Br425  C453    1.945   .     S
C429   C430    1.542   .     S
C429   H437    1.112   .     S
C429   H438    1.089   .     S
C430   H435    1.110   .     S
C430   C431    1.529   .     S
C430   H1444   1.108   1_554 S
C431   H433    1.111   .     S
C431   H432    1.111   .     S
H434   C487    1.110   .     S
H436   C934    1.108   .     S
C439   C440    1.542   .     S
C439   H447    1.089   .     S
C439   H448    1.111   .     S
C440   H446    1.110   .     S
C440   C441    1.529   .     S
C440   H949    1.108   .     S
C441   H442    1.110   .     S
C441   H443    1.111   .     S
C441   H500    1.110   .     S
H445   C1448   1.108   1_554 S
C449   O473    1.292   .     A
C449   C460    1.441   .     S
C449   O475    1.298   .     A
C450   O474    1.292   .     A
C450   C459    1.441   .     S
C450   O476    1.298   .     A
C451   O479    1.304   .     A
C451   O477    1.286   .     A
C451   C453    1.442   .     S
C452   O480    1.304   .     A
C452   C454    1.442   .     S
C452   O478    1.286   .     A
C454   C341    1.369   1_655 S
C454   Br370   1.945   1_655 S
C455   H467    1.082   .     S
C455   C460    1.397   .     A
C456   H468    1.082   .     S
C456   C459    1.397   .     A
C456   C122    1.386   1_565 S
C457   C459    1.406   .     A
C457   Br483   1.922   .     S
C457   C119    1.386   1_565 S
C458   C460    1.406   .     A
C458   Br484   1.922   .     S
C461   C485    1.522   .     S
C461   N472    1.399   .     A
C461   C1471   1.421   1_554 S
C462   N471    1.399   .     A
C462   C495    1.522   .     S
C462   C968    1.421   .     S
C463   N471    1.350   .     A
C463   H469    1.078   .     S
C463   C965    1.421   .     S
C464   N472    1.350   .     A
C464   H470    1.078   .     S
C464   C1470   1.421   1_554 S
Cu465  O477    1.980   .     S
Cu465  O473    1.948   .     S
Cu465  Cu466   2.698   .     S
Cu465  N471    2.028   .     S
Cu465  O480    1.987   .     S
Cu465  O476    1.957   .     S
Cu466  O478    1.980   .     S
Cu466  O474    1.948   .     S
Cu466  N472    2.028   .     S
Cu466  O479    1.987   .     S
Cu466  O475    1.957   .     S
Br481  C341    1.945   1_655 S
C485   C486    1.542   .     S
C485   H493    1.112   .     S
C485   H494    1.089   .     S
C486   H491    1.110   .     S
C486   C487    1.529   .     S
C486   H1500   1.108   1_554 S
C487   H489    1.111   .     S
C487   H488    1.111   .     S
H490   C375    1.110   1_655 S
H492   C990    1.108   .     S
C495   C496    1.542   .     S
C495   H503    1.089   .     S
C495   H504    1.111   .     S
C496   H502    1.110   .     S
C496   C497    1.529   .     S
C496   H1005   1.108   .     S
C497   H498    1.110   .     S
C497   H499    1.111   .     S
C497   H388    1.110   1_655 S
H501   C1504   1.108   1_554 S
C505   O529    1.292   .     A
C505   C516    1.441   .     S
C505   O531    1.298   .     A
C506   O530    1.292   .     A
C506   C515    1.441   .     S
C506   O532    1.298   .     A
C507   O535    1.304   .     A
C507   O533    1.286   .     A
C507   C509    1.442   .     S
C508   O536    1.304   .     A
C508   C510    1.442   .     S
C508   O534    1.286   .     A
C509   C622    1.369   1_455 S
C509   Br649   1.945   1_455 S
C510   C565    1.369   .     S
C510   Br594   1.945   .     S
C511   H523    1.082   .     S
C511   C516    1.397   .     A
C511   C849    1.386   1_545 S
C512   H524    1.082   .     S
C512   C515    1.397   .     A
C512   C682    1.386   .     S
C513   C515    1.406   .     A
C513   Br539   1.922   .     S
C513   C679    1.386   .     S
C514   C516    1.406   .     A
C514   Br540   1.922   .     S
C514   C848    1.386   1_545 S
C517   C541    1.522   .     S
C517   N528    1.399   .     A
C518   N527    1.399   .     A
C518   C551    1.522   .     S
C518   C1024   1.421   .     S
C519   N527    1.350   .     A
C519   H525    1.078   .     S
C519   C1021   1.421   .     S
C520   N528    1.350   .     A
C520   H526    1.078   .     S
Cu521  O533    1.980   .     S
Cu521  O529    1.948   .     S
Cu521  Cu522   2.698   .     S
Cu521  N527    2.028   .     S
Cu521  O536    1.987   .     S
Cu521  O532    1.957   .     S
Cu522  O534    1.980   .     S
Cu522  O530    1.948   .     S
Cu522  N528    2.028   .     S
Cu522  O535    1.987   .     S
Cu522  O531    1.957   .     S
Br537  C565    1.945   .     S
Br538  C622    1.945   1_455 S
C541   C542    1.542   .     S
C541   H549    1.112   .     S
C541   H550    1.089   .     S
C542   H547    1.110   .     S
C542   C543    1.529   .     S
C543   H545    1.111   .     S
C543   H544    1.111   .     S
C543   H658    1.110   1_455 S
H546   C599    1.110   .     S
H548   C1046   1.108   .     S
C551   C552    1.542   .     S
C551   H559    1.089   .     S
C551   H560    1.111   .     S
C552   H558    1.110   .     S
C552   C553    1.529   .     S
C552   H1061   1.108   .     S
C553   H554    1.110   .     S
C553   H555    1.111   .     S
C553   H612    1.110   .     S
H556   C665    1.110   1_455 S
C561   O585    1.292   .     A
C561   C572    1.441   .     S
C561   O587    1.298   .     A
C562   O586    1.292   .     A
C562   C571    1.441   .     S
C562   O588    1.298   .     A
C563   O591    1.304   .     A
C563   O589    1.286   .     A
C563   C565    1.442   .     S
C564   O592    1.304   .     A
C564   C566    1.442   .     S
C564   O590    1.286   .     A
C566   C621    1.369   .     S
C566   Br650   1.945   .     S
C567   H579    1.082   .     S
C567   C572    1.397   .     A
C567   C905    1.386   1_545 S
C568   H580    1.082   .     S
C568   C571    1.397   .     A
C568   C738    1.386   .     S
C569   C571    1.406   .     A
C569   Br595   1.922   .     S
C569   C735    1.386   .     S
C570   C572    1.406   .     A
C570   Br596   1.922   .     S
C570   C904    1.386   1_545 S
C573   C597    1.522   .     S
C573   N584    1.399   .     A
C574   N583    1.399   .     A
C574   C607    1.522   .     S
C574   C1080   1.421   .     S
C575   N583    1.350   .     A
C575   H581    1.078   .     S
C575   C1077   1.421   .     S
C576   N584    1.350   .     A
C576   H582    1.078   .     S
Cu577  O589    1.980   .     S
Cu577  O585    1.948   .     S
Cu577  Cu578   2.698   .     S
Cu577  N583    2.028   .     S
Cu577  O592    1.987   .     S
Cu577  O588    1.957   .     S
Cu578  O590    1.980   .     S
Cu578  O586    1.948   .     S
Cu578  N584    2.028   .     S
Cu578  O591    1.987   .     S
Cu578  O587    1.957   .     S
Br593  C621    1.945   .     S
C597   C598    1.542   .     S
C597   H605    1.112   .     S
C597   H606    1.089   .     S
C598   H603    1.110   .     S
C598   C599    1.529   .     S
C599   H601    1.111   .     S
C599   H600    1.111   .     S
H602   C655    1.110   .     S
H604   C1102   1.108   .     S
C607   C608    1.542   .     S
C607   H615    1.089   .     S
C607   H616    1.111   .     S
C608   H614    1.110   .     S
C608   C609    1.529   .     S
C608   H1117   1.108   .     S
C609   H610    1.110   .     S
C609   H611    1.111   .     S
C609   H668    1.110   .     S
C617   O641    1.292   .     A
C617   C628    1.441   .     S
C617   O643    1.298   .     A
C618   O642    1.292   .     A
C618   C627    1.441   .     S
C618   O644    1.298   .     A
C619   O647    1.304   .     A
C619   O645    1.286   .     A
C619   C621    1.442   .     S
C620   O648    1.304   .     A
C620   C622    1.442   .     S
C620   O646    1.286   .     A
C622   C509    1.369   1_655 S
C622   Br538   1.945   1_655 S
C623   H635    1.082   .     S
C623   C628    1.397   .     A
C623   C961    1.386   1_545 S
C624   H636    1.082   .     S
C624   C627    1.397   .     A
C624   C794    1.386   .     S
C625   C627    1.406   .     A
C625   Br651   1.922   .     S
C625   C791    1.386   .     S
C626   C628    1.406   .     A
C626   Br652   1.922   .     S
C626   C960    1.386   1_545 S
C629   C653    1.522   .     S
C629   N640    1.399   .     A
C630   N639    1.399   .     A
C630   C663    1.522   .     S
C630   C1136   1.421   .     S
C631   N639    1.350   .     A
C631   H637    1.078   .     S
C631   C1133   1.421   .     S
C632   N640    1.350   .     A
C632   H638    1.078   .     S
Cu633  O645    1.980   .     S
Cu633  O641    1.948   .     S
Cu633  Cu634   2.698   .     S
Cu633  N639    2.028   .     S
Cu633  O648    1.987   .     S
Cu633  O644    1.957   .     S
Cu634  O646    1.980   .     S
Cu634  O642    1.948   .     S
Cu634  N640    2.028   .     S
Cu634  O647    1.987   .     S
Cu634  O643    1.957   .     S
Br649  C509    1.945   1_655 S
C653   C654    1.542   .     S
C653   H661    1.112   .     S
C653   H662    1.089   .     S
C654   H659    1.110   .     S
C654   C655    1.529   .     S
C655   H657    1.111   .     S
C655   H656    1.111   .     S
H658   C543    1.110   1_655 S
H660   C1158   1.108   .     S
C663   C664    1.542   .     S
C663   H671    1.089   .     S
C663   H672    1.111   .     S
C664   H670    1.110   .     S
C664   C665    1.529   .     S
C664   H1173   1.108   .     S
C665   H666    1.110   .     S
C665   H667    1.111   .     S
C665   H556    1.110   1_655 S
C673   O697    1.292   .     A
C673   C684    1.441   .     S
C673   O699    1.298   .     A
C674   O698    1.292   .     A
C674   C683    1.441   .     S
C674   O700    1.298   .     A
C675   O703    1.304   .     A
C675   O701    1.286   .     A
C675   C677    1.442   .     S
C676   O704    1.304   .     A
C676   C678    1.442   .     S
C676   O702    1.286   .     A
C677   C790    1.369   1_455 S
C677   Br817   1.945   1_455 S
C678   C733    1.369   .     S
C678   Br762   1.945   .     S
C679   H691    1.082   .     S
C679   C684    1.397   .     A
C680   H692    1.082   .     S
C680   C683    1.397   .     A
C680   C850    1.386   .     S
C681   C683    1.406   .     A
C681   Br707   1.922   .     S
C681   C847    1.386   .     S
C682   C684    1.406   .     A
C682   Br708   1.922   .     S
C685   C709    1.522   .     S
C685   N696    1.399   .     A
C686   N695    1.399   .     A
C686   C719    1.522   .     S
C686   C1192   1.421   .     S
C687   N695    1.350   .     A
C687   H693    1.078   .     S
C687   C1189   1.421   .     S
C688   N696    1.350   .     A
C688   H694    1.078   .     S
Cu689  O701    1.980   .     S
Cu689  O697    1.948   .     S
Cu689  Cu690   2.698   .     S
Cu689  N695    2.028   .     S
Cu689  O704    1.987   .     S
Cu689  O700    1.957   .     S
Cu690  O702    1.980   .     S
Cu690  O698    1.948   .     S
Cu690  N696    2.028   .     S
Cu690  O703    1.987   .     S
Cu690  O699    1.957   .     S
Br705  C733    1.945   .     S
Br706  C790    1.945   1_455 S
C709   C710    1.542   .     S
C709   H717    1.112   .     S
C709   H718    1.089   .     S
C710   H715    1.110   .     S
C710   C711    1.529   .     S
C711   H713    1.111   .     S
C711   H712    1.111   .     S
C711   H826    1.110   1_455 S
H714   C767    1.110   .     S
H716   C1214   1.108   .     S
C719   C720    1.542   .     S
C719   H727    1.089   .     S
C719   H728    1.111   .     S
C720   H726    1.110   .     S
C720   C721    1.529   .     S
C720   H1229   1.108   .     S
C721   H722    1.110   .     S
C721   H723    1.111   .     S
C721   H780    1.110   .     S
H724   C833    1.110   1_455 S
C729   O753    1.292   .     A
C729   C740    1.441   .     S
C729   O755    1.298   .     A
C730   O754    1.292   .     A
C730   C739    1.441   .     S
C730   O756    1.298   .     A
C731   O759    1.304   .     A
C731   O757    1.286   .     A
C731   C733    1.442   .     S
C732   O760    1.304   .     A
C732   C734    1.442   .     S
C732   O758    1.286   .     A
C734   C789    1.369   .     S
C734   Br818   1.945   .     S
C735   H747    1.082   .     S
C735   C740    1.397   .     A
C736   H748    1.082   .     S
C736   C739    1.397   .     A
C736   C906    1.386   .     S
C737   C739    1.406   .     A
C737   Br763   1.922   .     S
C737   C903    1.386   .     S
C738   C740    1.406   .     A
C738   Br764   1.922   .     S
C741   C765    1.522   .     S
C741   N752    1.399   .     A
C742   N751    1.399   .     A
C742   C775    1.522   .     S
C742   C1248   1.421   .     S
C743   N751    1.350   .     A
C743   H749    1.078   .     S
C743   C1245   1.421   .     S
C744   N752    1.350   .     A
C744   H750    1.078   .     S
Cu745  O757    1.980   .     S
Cu745  O753    1.948   .     S
Cu745  Cu746   2.698   .     S
Cu745  N751    2.028   .     S
Cu745  O760    1.987   .     S
Cu745  O756    1.957   .     S
Cu746  O758    1.980   .     S
Cu746  O754    1.948   .     S
Cu746  N752    2.028   .     S
Cu746  O759    1.987   .     S
Cu746  O755    1.957   .     S
Br761  C789    1.945   .     S
C765   C766    1.542   .     S
C765   H773    1.112   .     S
C765   H774    1.089   .     S
C766   H771    1.110   .     S
C766   C767    1.529   .     S
C767   H769    1.111   .     S
C767   H768    1.111   .     S
H770   C823    1.110   .     S
H772   C1270   1.108   .     S
C775   C776    1.542   .     S
C775   H783    1.089   .     S
C775   H784    1.111   .     S
C776   H782    1.110   .     S
C776   C777    1.529   .     S
C776   H1285   1.108   .     S
C777   H778    1.110   .     S
C777   H779    1.111   .     S
C777   H836    1.110   .     S
C785   O809    1.292   .     A
C785   C796    1.441   .     S
C785   O811    1.298   .     A
C786   O810    1.292   .     A
C786   C795    1.441   .     S
C786   O812    1.298   .     A
C787   O815    1.304   .     A
C787   O813    1.286   .     A
C787   C789    1.442   .     S
C788   O816    1.304   .     A
C788   C790    1.442   .     S
C788   O814    1.286   .     A
C790   C677    1.369   1_655 S
C790   Br706   1.945   1_655 S
C791   H803    1.082   .     S
C791   C796    1.397   .     A
C792   H804    1.082   .     S
C792   C795    1.397   .     A
C792   C962    1.386   .     S
C793   C795    1.406   .     A
C793   Br819   1.922   .     S
C793   C959    1.386   .     S
C794   C796    1.406   .     A
C794   Br820   1.922   .     S
C797   C821    1.522   .     S
C797   N808    1.399   .     A
C798   N807    1.399   .     A
C798   C831    1.522   .     S
C798   C1304   1.421   .     S
C799   N807    1.350   .     A
C799   H805    1.078   .     S
C799   C1301   1.421   .     S
C800   N808    1.350   .     A
C800   H806    1.078   .     S
Cu801  O813    1.980   .     S
Cu801  O809    1.948   .     S
Cu801  Cu802   2.698   .     S
Cu801  N807    2.028   .     S
Cu801  O816    1.987   .     S
Cu801  O812    1.957   .     S
Cu802  O814    1.980   .     S
Cu802  O810    1.948   .     S
Cu802  N808    2.028   .     S
Cu802  O815    1.987   .     S
Cu802  O811    1.957   .     S
Br817  C677    1.945   1_655 S
C821   C822    1.542   .     S
C821   H829    1.112   .     S
C821   H830    1.089   .     S
C822   H827    1.110   .     S
C822   C823    1.529   .     S
C823   H825    1.111   .     S
C823   H824    1.111   .     S
H826   C711    1.110   1_655 S
H828   C1326   1.108   .     S
C831   C832    1.542   .     S
C831   H839    1.089   .     S
C831   H840    1.111   .     S
C832   H838    1.110   .     S
C832   C833    1.529   .     S
C832   H1341   1.108   .     S
C833   H834    1.110   .     S
C833   H835    1.111   .     S
C833   H724    1.110   1_655 S
C841   O865    1.292   .     A
C841   C852    1.441   .     S
C841   O867    1.298   .     A
C842   O866    1.292   .     A
C842   C851    1.441   .     S
C842   O868    1.298   .     A
C843   O871    1.304   .     A
C843   O869    1.286   .     A
C843   C845    1.442   .     S
C844   O872    1.304   .     A
C844   C846    1.442   .     S
C844   O870    1.286   .     A
C845   C958    1.369   1_455 S
C845   Br985   1.945   1_455 S
C846   C901    1.369   .     S
C846   Br930   1.945   .     S
C847   H859    1.082   .     S
C847   C852    1.397   .     A
C848   H860    1.082   .     S
C848   C851    1.397   .     A
C848   C514    1.386   1_565 S
C849   C851    1.406   .     A
C849   Br875   1.922   .     S
C849   C511    1.386   1_565 S
C850   C852    1.406   .     A
C850   Br876   1.922   .     S
C853   C877    1.522   .     S
C853   N864    1.399   .     A
C854   N863    1.399   .     A
C854   C887    1.522   .     S
C854   C1360   1.421   .     S
C855   N863    1.350   .     A
C855   H861    1.078   .     S
C855   C1357   1.421   .     S
C856   N864    1.350   .     A
C856   H862    1.078   .     S
Cu857  O869    1.980   .     S
Cu857  O865    1.948   .     S
Cu857  Cu858   2.698   .     S
Cu857  N863    2.028   .     S
Cu857  O872    1.987   .     S
Cu857  O868    1.957   .     S
Cu858  O870    1.980   .     S
Cu858  O866    1.948   .     S
Cu858  N864    2.028   .     S
Cu858  O871    1.987   .     S
Cu858  O867    1.957   .     S
Br873  C901    1.945   .     S
Br874  C958    1.945   1_455 S
C877   C878    1.542   .     S
C877   H885    1.112   .     S
C877   H886    1.089   .     S
C878   H883    1.110   .     S
C878   C879    1.529   .     S
C879   H881    1.111   .     S
C879   H880    1.111   .     S
C879   H994    1.110   1_455 S
H882   C935    1.110   .     S
H884   C1382   1.108   .     S
C887   C888    1.542   .     S
C887   H895    1.089   .     S
C887   H896    1.111   .     S
C888   H894    1.110   .     S
C888   C889    1.529   .     S
C888   H1397   1.108   .     S
C889   H890    1.110   .     S
C889   H891    1.111   .     S
C889   H948    1.110   .     S
H892   C1001   1.110   1_455 S
C897   O921    1.292   .     A
C897   C908    1.441   .     S
C897   O923    1.298   .     A
C898   O922    1.292   .     A
C898   C907    1.441   .     S
C898   O924    1.298   .     A
C899   O927    1.304   .     A
C899   O925    1.286   .     A
C899   C901    1.442   .     S
C900   O928    1.304   .     A
C900   C902    1.442   .     S
C900   O926    1.286   .     A
C902   C957    1.369   .     S
C902   Br986   1.945   .     S
C903   H915    1.082   .     S
C903   C908    1.397   .     A
C904   H916    1.082   .     S
C904   C907    1.397   .     A
C904   C570    1.386   1_565 S
C905   C907    1.406   .     A
C905   Br931   1.922   .     S
C905   C567    1.386   1_565 S
C906   C908    1.406   .     A
C906   Br932   1.922   .     S
C909   C933    1.522   .     S
C909   N920    1.399   .     A
C910   N919    1.399   .     A
C910   C943    1.522   .     S
C910   C1416   1.421   .     S
C911   N919    1.350   .     A
C911   H917    1.078   .     S
C911   C1413   1.421   .     S
C912   N920    1.350   .     A
C912   H918    1.078   .     S
Cu913  O925    1.980   .     S
Cu913  O921    1.948   .     S
Cu913  Cu914   2.698   .     S
Cu913  N919    2.028   .     S
Cu913  O928    1.987   .     S
Cu913  O924    1.957   .     S
Cu914  O926    1.980   .     S
Cu914  O922    1.948   .     S
Cu914  N920    2.028   .     S
Cu914  O927    1.987   .     S
Cu914  O923    1.957   .     S
Br929  C957    1.945   .     S
C933   C934    1.542   .     S
C933   H941    1.112   .     S
C933   H942    1.089   .     S
C934   H939    1.110   .     S
C934   C935    1.529   .     S
C935   H937    1.111   .     S
C935   H936    1.111   .     S
H938   C991    1.110   .     S
H940   C1438   1.108   .     S
C943   C944    1.542   .     S
C943   H951    1.089   .     S
C943   H952    1.111   .     S
C944   H950    1.110   .     S
C944   C945    1.529   .     S
C944   H1453   1.108   .     S
C945   H946    1.110   .     S
C945   H947    1.111   .     S
C945   H1004   1.110   .     S
C953   O977    1.292   .     A
C953   C964    1.441   .     S
C953   O979    1.298   .     A
C954   O978    1.292   .     A
C954   C963    1.441   .     S
C954   O980    1.298   .     A
C955   O983    1.304   .     A
C955   O981    1.286   .     A
C955   C957    1.442   .     S
C956   O984    1.304   .     A
C956   C958    1.442   .     S
C956   O982    1.286   .     A
C958   C845    1.369   1_655 S
C958   Br874   1.945   1_655 S
C959   H971    1.082   .     S
C959   C964    1.397   .     A
C960   H972    1.082   .     S
C960   C963    1.397   .     A
C960   C626    1.386   1_565 S
C961   C963    1.406   .     A
C961   Br987   1.922   .     S
C961   C623    1.386   1_565 S
C962   C964    1.406   .     A
C962   Br988   1.922   .     S
C965   C989    1.522   .     S
C965   N976    1.399   .     A
C966   N975    1.399   .     A
C966   C999    1.522   .     S
C966   C1472   1.421   .     S
C967   N975    1.350   .     A
C967   H973    1.078   .     S
C967   C1469   1.421   .     S
C968   N976    1.350   .     A
C968   H974    1.078   .     S
Cu969  O981    1.980   .     S
Cu969  O977    1.948   .     S
Cu969  Cu970   2.698   .     S
Cu969  N975    2.028   .     S
Cu969  O984    1.987   .     S
Cu969  O980    1.957   .     S
Cu970  O982    1.980   .     S
Cu970  O978    1.948   .     S
Cu970  N976    2.028   .     S
Cu970  O983    1.987   .     S
Cu970  O979    1.957   .     S
Br985  C845    1.945   1_655 S
C989   C990    1.542   .     S
C989   H997    1.112   .     S
C989   H998    1.089   .     S
C990   H995    1.110   .     S
C990   C991    1.529   .     S
C991   H993    1.111   .     S
C991   H992    1.111   .     S
H994   C879    1.110   1_655 S
H996   C1494   1.108   .     S
C999   C1000   1.542   .     S
C999   H1007   1.089   .     S
C999   H1008   1.111   .     S
C1000  H1006   1.110   .     S
C1000  C1001   1.529   .     S
C1000  H1509   1.108   .     S
C1001  H1002   1.110   .     S
C1001  H1003   1.111   .     S
C1001  H892    1.110   1_655 S
C1009  O1033   1.292   .     A
C1009  C1020   1.441   .     S
C1009  O1035   1.298   .     A
C1010  O1034   1.292   .     A
C1010  C1019   1.441   .     S
C1010  O1036   1.298   .     A
C1011  O1039   1.304   .     A
C1011  O1037   1.286   .     A
C1011  C1013   1.442   .     S
C1012  O1040   1.304   .     A
C1012  C1014   1.442   .     S
C1012  O1038   1.286   .     A
C1013  C1126   1.369   1_455 S
C1013  Br1153  1.945   1_455 S
C1014  C1069   1.369   .     S
C1014  Br1098  1.945   .     S
C1015  H1027   1.082   .     S
C1015  C1020   1.397   .     A
C1015  C1353   1.386   1_545 S
C1016  H1028   1.082   .     S
C1016  C1019   1.397   .     A
C1016  C1186   1.386   .     S
C1017  C1019   1.406   .     A
C1017  Br1043  1.922   .     S
C1017  C1183   1.386   .     S
C1018  C1020   1.406   .     A
C1018  Br1044  1.922   .     S
C1018  C1352   1.386   1_545 S
C1021  C1045   1.522   .     S
C1021  N1032   1.399   .     A
C1022  N1031   1.399   .     A
C1022  C1055   1.522   .     S
C1022  C16     1.421   1_556 S
C1023  N1031   1.350   .     A
C1023  H1029   1.078   .     S
C1023  C13     1.421   1_556 S
C1024  N1032   1.350   .     A
C1024  H1030   1.078   .     S
Cu1025 O1037   1.980   .     S
Cu1025 O1033   1.948   .     S
Cu1025 Cu1026  2.698   .     S
Cu1025 N1031   2.028   .     S
Cu1025 O1040   1.987   .     S
Cu1025 O1036   1.957   .     S
Cu1026 O1038   1.980   .     S
Cu1026 O1034   1.948   .     S
Cu1026 N1032   2.028   .     S
Cu1026 O1039   1.987   .     S
Cu1026 O1035   1.957   .     S
Br1041 C1069   1.945   .     S
Br1042 C1126   1.945   1_455 S
C1045  C1046   1.542   .     S
C1045  H1053   1.112   .     S
C1045  H1054   1.089   .     S
C1046  H1051   1.110   .     S
C1046  C1047   1.529   .     S
C1047  H1049   1.111   .     S
C1047  H1048   1.111   .     S
C1047  H1162   1.110   1_455 S
H1050  C1103   1.110   .     S
H1052  C38     1.108   1_556 S
C1055  C1056   1.542   .     S
C1055  H1063   1.089   .     S
C1055  H1064   1.111   .     S
C1056  H1062   1.110   .     S
C1056  C1057   1.529   .     S
C1056  H53     1.108   1_556 S
C1057  H1058   1.110   .     S
C1057  H1059   1.111   .     S
C1057  H1116   1.110   .     S
H1060  C1169   1.110   1_455 S
C1065  O1089   1.292   .     A
C1065  C1076   1.441   .     S
C1065  O1091   1.298   .     A
C1066  O1090   1.292   .     A
C1066  C1075   1.441   .     S
C1066  O1092   1.298   .     A
C1067  O1095   1.304   .     A
C1067  O1093   1.286   .     A
C1067  C1069   1.442   .     S
C1068  O1096   1.304   .     A
C1068  C1070   1.442   .     S
C1068  O1094   1.286   .     A
C1070  C1125   1.369   .     S
C1070  Br1154  1.945   .     S
C1071  H1083   1.082   .     S
C1071  C1076   1.397   .     A
C1071  C1409   1.386   1_545 S
C1072  H1084   1.082   .     S
C1072  C1075   1.397   .     A
C1072  C1242   1.386   .     S
C1073  C1075   1.406   .     A
C1073  Br1099  1.922   .     S
C1073  C1239   1.386   .     S
C1074  C1076   1.406   .     A
C1074  Br1100  1.922   .     S
C1074  C1408   1.386   1_545 S
C1077  C1101   1.522   .     S
C1077  N1088   1.399   .     A
C1078  N1087   1.399   .     A
C1078  C1111   1.522   .     S
C1078  C72     1.421   1_556 S
C1079  N1087   1.350   .     A
C1079  H1085   1.078   .     S
C1079  C69     1.421   1_556 S
C1080  N1088   1.350   .     A
C1080  H1086   1.078   .     S
Cu1081 O1093   1.980   .     S
Cu1081 O1089   1.948   .     S
Cu1081 Cu1082  2.698   .     S
Cu1081 N1087   2.028   .     S
Cu1081 O1096   1.987   .     S
Cu1081 O1092   1.957   .     S
Cu1082 O1094   1.980   .     S
Cu1082 O1090   1.948   .     S
Cu1082 N1088   2.028   .     S
Cu1082 O1095   1.987   .     S
Cu1082 O1091   1.957   .     S
Br1097 C1125   1.945   .     S
C1101  C1102   1.542   .     S
C1101  H1109   1.112   .     S
C1101  H1110   1.089   .     S
C1102  H1107   1.110   .     S
C1102  C1103   1.529   .     S
C1103  H1105   1.111   .     S
C1103  H1104   1.111   .     S
H1106  C1159   1.110   .     S
H1108  C94     1.108   1_556 S
C1111  C1112   1.542   .     S
C1111  H1119   1.089   .     S
C1111  H1120   1.111   .     S
C1112  H1118   1.110   .     S
C1112  C1113   1.529   .     S
C1112  H109    1.108   1_556 S
C1113  H1114   1.110   .     S
C1113  H1115   1.111   .     S
C1113  H1172   1.110   .     S
C1121  O1145   1.292   .     A
C1121  C1132   1.441   .     S
C1121  O1147   1.298   .     A
C1122  O1146   1.292   .     A
C1122  C1131   1.441   .     S
C1122  O1148   1.298   .     A
C1123  O1151   1.304   .     A
C1123  O1149   1.286   .     A
C1123  C1125   1.442   .     S
C1124  O1152   1.304   .     A
C1124  C1126   1.442   .     S
C1124  O1150   1.286   .     A
C1126  C1013   1.369   1_655 S
C1126  Br1042  1.945   1_655 S
C1127  H1139   1.082   .     S
C1127  C1132   1.397   .     A
C1127  C1465   1.386   1_545 S
C1128  H1140   1.082   .     S
C1128  C1131   1.397   .     A
C1128  C1298   1.386   .     S
C1129  C1131   1.406   .     A
C1129  Br1155  1.922   .     S
C1129  C1295   1.386   .     S
C1130  C1132   1.406   .     A
C1130  Br1156  1.922   .     S
C1130  C1464   1.386   1_545 S
C1133  C1157   1.522   .     S
C1133  N1144   1.399   .     A
C1134  N1143   1.399   .     A
C1134  C1167   1.522   .     S
C1134  C128    1.421   1_556 S
C1135  N1143   1.350   .     A
C1135  H1141   1.078   .     S
C1135  C125    1.421   1_556 S
C1136  N1144   1.350   .     A
C1136  H1142   1.078   .     S
Cu1137 O1149   1.980   .     S
Cu1137 O1145   1.948   .     S
Cu1137 Cu1138  2.698   .     S
Cu1137 N1143   2.028   .     S
Cu1137 O1152   1.987   .     S
Cu1137 O1148   1.957   .     S
Cu1138 O1150   1.980   .     S
Cu1138 O1146   1.948   .     S
Cu1138 N1144   2.028   .     S
Cu1138 O1151   1.987   .     S
Cu1138 O1147   1.957   .     S
Br1153 C1013   1.945   1_655 S
C1157  C1158   1.542   .     S
C1157  H1165   1.112   .     S
C1157  H1166   1.089   .     S
C1158  H1163   1.110   .     S
C1158  C1159   1.529   .     S
C1159  H1161   1.111   .     S
C1159  H1160   1.111   .     S
H1162  C1047   1.110   1_655 S
H1164  C150    1.108   1_556 S
C1167  C1168   1.542   .     S
C1167  H1175   1.089   .     S
C1167  H1176   1.111   .     S
C1168  H1174   1.110   .     S
C1168  C1169   1.529   .     S
C1168  H165    1.108   1_556 S
C1169  H1170   1.110   .     S
C1169  H1171   1.111   .     S
C1169  H1060   1.110   1_655 S
C1177  O1201   1.292   .     A
C1177  C1188   1.441   .     S
C1177  O1203   1.298   .     A
C1178  O1202   1.292   .     A
C1178  C1187   1.441   .     S
C1178  O1204   1.298   .     A
C1179  O1207   1.304   .     A
C1179  O1205   1.286   .     A
C1179  C1181   1.442   .     S
C1180  O1208   1.304   .     A
C1180  C1182   1.442   .     S
C1180  O1206   1.286   .     A
C1181  C1294   1.369   1_455 S
C1181  Br1321  1.945   1_455 S
C1182  C1237   1.369   .     S
C1182  Br1266  1.945   .     S
C1183  H1195   1.082   .     S
C1183  C1188   1.397   .     A
C1184  H1196   1.082   .     S
C1184  C1187   1.397   .     A
C1184  C1354   1.386   .     S
C1185  C1187   1.406   .     A
C1185  Br1211  1.922   .     S
C1185  C1351   1.386   .     S
C1186  C1188   1.406   .     A
C1186  Br1212  1.922   .     S
C1189  C1213   1.522   .     S
C1189  N1200   1.399   .     A
C1190  N1199   1.399   .     A
C1190  C1223   1.522   .     S
C1190  C184    1.421   1_556 S
C1191  N1199   1.350   .     A
C1191  H1197   1.078   .     S
C1191  C181    1.421   1_556 S
C1192  N1200   1.350   .     A
C1192  H1198   1.078   .     S
Cu1193 O1205   1.980   .     S
Cu1193 O1201   1.948   .     S
Cu1193 Cu1194  2.698   .     S
Cu1193 N1199   2.028   .     S
Cu1193 O1208   1.987   .     S
Cu1193 O1204   1.957   .     S
Cu1194 O1206   1.980   .     S
Cu1194 O1202   1.948   .     S
Cu1194 N1200   2.028   .     S
Cu1194 O1207   1.987   .     S
Cu1194 O1203   1.957   .     S
Br1209 C1237   1.945   .     S
Br1210 C1294   1.945   1_455 S
C1213  C1214   1.542   .     S
C1213  H1221   1.112   .     S
C1213  H1222   1.089   .     S
C1214  H1219   1.110   .     S
C1214  C1215   1.529   .     S
C1215  H1217   1.111   .     S
C1215  H1216   1.111   .     S
C1215  H1330   1.110   1_455 S
H1218  C1271   1.110   .     S
H1220  C206    1.108   1_556 S
C1223  C1224   1.542   .     S
C1223  H1231   1.089   .     S
C1223  H1232   1.111   .     S
C1224  H1230   1.110   .     S
C1224  C1225   1.529   .     S
C1224  H221    1.108   1_556 S
C1225  H1226   1.110   .     S
C1225  H1227   1.111   .     S
C1225  H1284   1.110   .     S
H1228  C1337   1.110   1_455 S
C1233  O1257   1.292   .     A
C1233  C1244   1.441   .     S
C1233  O1259   1.298   .     A
C1234  O1258   1.292   .     A
C1234  C1243   1.441   .     S
C1234  O1260   1.298   .     A
C1235  O1263   1.304   .     A
C1235  O1261   1.286   .     A
C1235  C1237   1.442   .     S
C1236  O1264   1.304   .     A
C1236  C1238   1.442   .     S
C1236  O1262   1.286   .     A
C1238  C1293   1.369   .     S
C1238  Br1322  1.945   .     S
C1239  H1251   1.082   .     S
C1239  C1244   1.397   .     A
C1240  H1252   1.082   .     S
C1240  C1243   1.397   .     A
C1240  C1410   1.386   .     S
C1241  C1243   1.406   .     A
C1241  Br1267  1.922   .     S
C1241  C1407   1.386   .     S
C1242  C1244   1.406   .     A
C1242  Br1268  1.922   .     S
C1245  C1269   1.522   .     S
C1245  N1256   1.399   .     A
C1246  N1255   1.399   .     A
C1246  C1279   1.522   .     S
C1246  C240    1.421   1_556 S
C1247  N1255   1.350   .     A
C1247  H1253   1.078   .     S
C1247  C237    1.421   1_556 S
C1248  N1256   1.350   .     A
C1248  H1254   1.078   .     S
Cu1249 O1261   1.980   .     S
Cu1249 O1257   1.948   .     S
Cu1249 Cu1250  2.698   .     S
Cu1249 N1255   2.028   .     S
Cu1249 O1264   1.987   .     S
Cu1249 O1260   1.957   .     S
Cu1250 O1262   1.980   .     S
Cu1250 O1258   1.948   .     S
Cu1250 N1256   2.028   .     S
Cu1250 O1263   1.987   .     S
Cu1250 O1259   1.957   .     S
Br1265 C1293   1.945   .     S
C1269  C1270   1.542   .     S
C1269  H1277   1.112   .     S
C1269  H1278   1.089   .     S
C1270  H1275   1.110   .     S
C1270  C1271   1.529   .     S
C1271  H1273   1.111   .     S
C1271  H1272   1.111   .     S
H1274  C1327   1.110   .     S
H1276  C262    1.108   1_556 S
C1279  C1280   1.542   .     S
C1279  H1287   1.089   .     S
C1279  H1288   1.111   .     S
C1280  H1286   1.110   .     S
C1280  C1281   1.529   .     S
C1280  H277    1.108   1_556 S
C1281  H1282   1.110   .     S
C1281  H1283   1.111   .     S
C1281  H1340   1.110   .     S
C1289  O1313   1.292   .     A
C1289  C1300   1.441   .     S
C1289  O1315   1.298   .     A
C1290  O1314   1.292   .     A
C1290  C1299   1.441   .     S
C1290  O1316   1.298   .     A
C1291  O1319   1.304   .     A
C1291  O1317   1.286   .     A
C1291  C1293   1.442   .     S
C1292  O1320   1.304   .     A
C1292  C1294   1.442   .     S
C1292  O1318   1.286   .     A
C1294  C1181   1.369   1_655 S
C1294  Br1210  1.945   1_655 S
C1295  H1307   1.082   .     S
C1295  C1300   1.397   .     A
C1296  H1308   1.082   .     S
C1296  C1299   1.397   .     A
C1296  C1466   1.386   .     S
C1297  C1299   1.406   .     A
C1297  Br1323  1.922   .     S
C1297  C1463   1.386   .     S
C1298  C1300   1.406   .     A
C1298  Br1324  1.922   .     S
C1301  C1325   1.522   .     S
C1301  N1312   1.399   .     A
C1302  N1311   1.399   .     A
C1302  C1335   1.522   .     S
C1302  C296    1.421   1_556 S
C1303  N1311   1.350   .     A
C1303  H1309   1.078   .     S
C1303  C293    1.421   1_556 S
C1304  N1312   1.350   .     A
C1304  H1310   1.078   .     S
Cu1305 O1317   1.980   .     S
Cu1305 O1313   1.948   .     S
Cu1305 Cu1306  2.698   .     S
Cu1305 N1311   2.028   .     S
Cu1305 O1320   1.987   .     S
Cu1305 O1316   1.957   .     S
Cu1306 O1318   1.980   .     S
Cu1306 O1314   1.948   .     S
Cu1306 N1312   2.028   .     S
Cu1306 O1319   1.987   .     S
Cu1306 O1315   1.957   .     S
Br1321 C1181   1.945   1_655 S
C1325  C1326   1.542   .     S
C1325  H1333   1.112   .     S
C1325  H1334   1.089   .     S
C1326  H1331   1.110   .     S
C1326  C1327   1.529   .     S
C1327  H1329   1.111   .     S
C1327  H1328   1.111   .     S
H1330  C1215   1.110   1_655 S
H1332  C318    1.108   1_556 S
C1335  C1336   1.542   .     S
C1335  H1343   1.089   .     S
C1335  H1344   1.111   .     S
C1336  H1342   1.110   .     S
C1336  C1337   1.529   .     S
C1336  H333    1.108   1_556 S
C1337  H1338   1.110   .     S
C1337  H1339   1.111   .     S
C1337  H1228   1.110   1_655 S
C1345  O1369   1.292   .     A
C1345  C1356   1.441   .     S
C1345  O1371   1.298   .     A
C1346  O1370   1.292   .     A
C1346  C1355   1.441   .     S
C1346  O1372   1.298   .     A
C1347  O1375   1.304   .     A
C1347  O1373   1.286   .     A
C1347  C1349   1.442   .     S
C1348  O1376   1.304   .     A
C1348  C1350   1.442   .     S
C1348  O1374   1.286   .     A
C1349  C1462   1.369   1_455 S
C1349  Br1489  1.945   1_455 S
C1350  C1405   1.369   .     S
C1350  Br1434  1.945   .     S
C1351  H1363   1.082   .     S
C1351  C1356   1.397   .     A
C1352  H1364   1.082   .     S
C1352  C1355   1.397   .     A
C1352  C1018   1.386   1_565 S
C1353  C1355   1.406   .     A
C1353  Br1379  1.922   .     S
C1353  C1015   1.386   1_565 S
C1354  C1356   1.406   .     A
C1354  Br1380  1.922   .     S
C1357  C1381   1.522   .     S
C1357  N1368   1.399   .     A
C1358  N1367   1.399   .     A
C1358  C1391   1.522   .     S
C1358  C352    1.421   1_556 S
C1359  N1367   1.350   .     A
C1359  H1365   1.078   .     S
C1359  C349    1.421   1_556 S
C1360  N1368   1.350   .     A
C1360  H1366   1.078   .     S
Cu1361 O1373   1.980   .     S
Cu1361 O1369   1.948   .     S
Cu1361 Cu1362  2.698   .     S
Cu1361 N1367   2.028   .     S
Cu1361 O1376   1.987   .     S
Cu1361 O1372   1.957   .     S
Cu1362 O1374   1.980   .     S
Cu1362 O1370   1.948   .     S
Cu1362 N1368   2.028   .     S
Cu1362 O1375   1.987   .     S
Cu1362 O1371   1.957   .     S
Br1377 C1405   1.945   .     S
Br1378 C1462   1.945   1_455 S
C1381  C1382   1.542   .     S
C1381  H1389   1.112   .     S
C1381  H1390   1.089   .     S
C1382  H1387   1.110   .     S
C1382  C1383   1.529   .     S
C1383  H1385   1.111   .     S
C1383  H1384   1.111   .     S
C1383  H1498   1.110   1_455 S
H1386  C1439   1.110   .     S
H1388  C374    1.108   1_556 S
C1391  C1392   1.542   .     S
C1391  H1399   1.089   .     S
C1391  H1400   1.111   .     S
C1392  H1398   1.110   .     S
C1392  C1393   1.529   .     S
C1392  H389    1.108   1_556 S
C1393  H1394   1.110   .     S
C1393  H1395   1.111   .     S
C1393  H1452   1.110   .     S
H1396  C1505   1.110   1_455 S
C1401  O1425   1.292   .     A
C1401  C1412   1.441   .     S
C1401  O1427   1.298   .     A
C1402  O1426   1.292   .     A
C1402  C1411   1.441   .     S
C1402  O1428   1.298   .     A
C1403  O1431   1.304   .     A
C1403  O1429   1.286   .     A
C1403  C1405   1.442   .     S
C1404  O1432   1.304   .     A
C1404  C1406   1.442   .     S
C1404  O1430   1.286   .     A
C1406  C1461   1.369   .     S
C1406  Br1490  1.945   .     S
C1407  H1419   1.082   .     S
C1407  C1412   1.397   .     A
C1408  H1420   1.082   .     S
C1408  C1411   1.397   .     A
C1408  C1074   1.386   1_565 S
C1409  C1411   1.406   .     A
C1409  Br1435  1.922   .     S
C1409  C1071   1.386   1_565 S
C1410  C1412   1.406   .     A
C1410  Br1436  1.922   .     S
C1413  C1437   1.522   .     S
C1413  N1424   1.399   .     A
C1414  N1423   1.399   .     A
C1414  C1447   1.522   .     S
C1414  C408    1.421   1_556 S
C1415  N1423   1.350   .     A
C1415  H1421   1.078   .     S
C1415  C405    1.421   1_556 S
C1416  N1424   1.350   .     A
C1416  H1422   1.078   .     S
Cu1417 O1429   1.980   .     S
Cu1417 O1425   1.948   .     S
Cu1417 Cu1418  2.698   .     S
Cu1417 N1423   2.028   .     S
Cu1417 O1432   1.987   .     S
Cu1417 O1428   1.957   .     S
Cu1418 O1430   1.980   .     S
Cu1418 O1426   1.948   .     S
Cu1418 N1424   2.028   .     S
Cu1418 O1431   1.987   .     S
Cu1418 O1427   1.957   .     S
Br1433 C1461   1.945   .     S
C1437  C1438   1.542   .     S
C1437  H1445   1.112   .     S
C1437  H1446   1.089   .     S
C1438  H1443   1.110   .     S
C1438  C1439   1.529   .     S
C1439  H1441   1.111   .     S
C1439  H1440   1.111   .     S
H1442  C1495   1.110   .     S
H1444  C430    1.108   1_556 S
C1447  C1448   1.542   .     S
C1447  H1455   1.089   .     S
C1447  H1456   1.111   .     S
C1448  H1454   1.110   .     S
C1448  C1449   1.529   .     S
C1448  H445    1.108   1_556 S
C1449  H1450   1.110   .     S
C1449  H1451   1.111   .     S
C1449  H1508   1.110   .     S
C1457  O1481   1.292   .     A
C1457  C1468   1.441   .     S
C1457  O1483   1.298   .     A
C1458  O1482   1.292   .     A
C1458  C1467   1.441   .     S
C1458  O1484   1.298   .     A
C1459  O1487   1.304   .     A
C1459  O1485   1.286   .     A
C1459  C1461   1.442   .     S
C1460  O1488   1.304   .     A
C1460  C1462   1.442   .     S
C1460  O1486   1.286   .     A
C1462  C1349   1.369   1_655 S
C1462  Br1378  1.945   1_655 S
C1463  H1475   1.082   .     S
C1463  C1468   1.397   .     A
C1464  H1476   1.082   .     S
C1464  C1467   1.397   .     A
C1464  C1130   1.386   1_565 S
C1465  C1467   1.406   .     A
C1465  Br1491  1.922   .     S
C1465  C1127   1.386   1_565 S
C1466  C1468   1.406   .     A
C1466  Br1492  1.922   .     S
C1469  C1493   1.522   .     S
C1469  N1480   1.399   .     A
C1470  N1479   1.399   .     A
C1470  C1503   1.522   .     S
C1470  C464    1.421   1_556 S
C1471  N1479   1.350   .     A
C1471  H1477   1.078   .     S
C1471  C461    1.421   1_556 S
C1472  N1480   1.350   .     A
C1472  H1478   1.078   .     S
Cu1473 O1485   1.980   .     S
Cu1473 O1481   1.948   .     S
Cu1473 Cu1474  2.698   .     S
Cu1473 N1479   2.028   .     S
Cu1473 O1488   1.987   .     S
Cu1473 O1484   1.957   .     S
Cu1474 O1486   1.980   .     S
Cu1474 O1482   1.948   .     S
Cu1474 N1480   2.028   .     S
Cu1474 O1487   1.987   .     S
Cu1474 O1483   1.957   .     S
Br1489 C1349   1.945   1_655 S
C1493  C1494   1.542   .     S
C1493  H1501   1.112   .     S
C1493  H1502   1.089   .     S
C1494  H1499   1.110   .     S
C1494  C1495   1.529   .     S
C1495  H1497   1.111   .     S
C1495  H1496   1.111   .     S
H1498  C1383   1.110   1_655 S
H1500  C486    1.108   1_556 S
C1503  C1504   1.542   .     S
C1503  H1511   1.089   .     S
C1503  H1512   1.111   .     S
C1504  H1510   1.110   .     S
C1504  C1505   1.529   .     S
C1504  H501    1.108   1_556 S
C1505  H1506   1.110   .     S
C1505  H1507   1.111   .     S
C1505  H1396   1.110   1_655 S
