data_str_m2_o1_o17_pcu_sym.15
_audit_creation_date              2020-01-03
_audit_creation_method            'Materials Studio'
_symmetry_space_group_name_H-M    'P1'
_symmetry_Int_Tables_number       1
_symmetry_cell_setting            triclinic
loop_
_symmetry_equiv_pos_as_xyz
  x,y,z
_cell_length_a                    32.4159
_cell_length_b                    28.8131
_cell_length_c                    30.0488
_cell_angle_alpha                 91.0204
_cell_angle_beta                  93.6307
_cell_angle_gamma                 90.2164
loop_
_atom_site_label
_atom_site_type_symbol
_atom_site_fract_x
_atom_site_fract_y
_atom_site_fract_z
_atom_site_U_iso_or_equiv
_atom_site_adp_type
_atom_site_occupancy
C1     C     0.08747   0.16670   0.25011   0.00000  Uiso   1.00
C2     C     0.04284   0.16701   0.25036   0.00000  Uiso   1.00
C3     C     0.14060   0.02422   0.22063   0.00000  Uiso   1.00
C4     C     0.19511   0.30925   0.27640   0.00000  Uiso   1.00
C5     C     0.19103   0.02527   0.28087   0.00000  Uiso   1.00
C6     C     0.14176   0.30773   0.21958   0.00000  Uiso   1.00
C7     C     0.16597   0.16617   0.16455   0.00000  Uiso   1.00
C8     C     0.16772   0.16698   0.33566   0.00000  Uiso   1.00
C9     C     0.19878   0.19094   0.41016   0.00000  Uiso   1.00
C10    C     0.13713   0.13864   0.09093   0.00000  Uiso   1.00
C11    C     0.16806   0.16719   0.38417   0.00000  Uiso   1.00
C12    C     0.24588   0.16674   0.24981   0.00000  Uiso   1.00
C13    C     0.16660   0.16466   0.11647   0.00000  Uiso   1.00
C14    C     0.13835   0.14148   0.40428   0.00000  Uiso   1.00
C15    C     0.19736   0.18867   0.09654   0.00000  Uiso   1.00
C16    C     0.13746   0.14091   0.45067   0.00000  Uiso   1.00
C17    C     0.19948   0.18695   0.05036   0.00000  Uiso   1.00
C18    C     0.16886   0.16426   0.47723   0.00000  Uiso   1.00
C19    C     0.16832   0.16313   0.02382   0.00000  Uiso   1.00
C20    C     0.20036   0.18931   0.45702   0.00000  Uiso   1.00
C21    C     0.13692   0.13796   0.04411   0.00000  Uiso   1.00
C22    C     0.10546   0.11728   0.47050   0.00000  Uiso   1.00
C23    C     0.10616   0.11344   0.01718   0.00000  Uiso   1.00
C24    C     0.23252   0.20870   0.03074   0.00000  Uiso   1.00
C25    C     0.04208   0.12996   0.43490   0.00000  Uiso   1.00
C26    C     0.02404   0.12312   0.38718   0.00000  Uiso   1.00
C27    C     0.29412   0.19520   0.06870   0.00000  Uiso   1.00
C28    C     0.32720   0.21653   0.10105   0.00000  Uiso   1.00
C29    C     0.07243   0.04476   0.20447   0.00000  Uiso   1.00
C30    C     0.04463   0.01470   0.17272   0.00000  Uiso   1.00
C31    C     0.24428   0.27804   0.32619   0.00000  Uiso   1.00
C32    C     0.29123   0.27884   0.33486   0.00000  Uiso   1.00
C33    C     0.23830   0.06086   0.33204   0.00000  Uiso   1.00
C34    C     0.23243   0.21166   0.48408   0.00000  Uiso   1.00
C35    C     0.24779   0.06371   0.38231   0.00000  Uiso   1.00
C36    C     0.13331   0.29005   0.14478   0.00000  Uiso   1.00
C37    C     0.10637   0.26338   0.10961   0.00000  Uiso   1.00
C38    C     0.02213   0.12850   0.26590   0.00000  Uiso   1.00
C39    C     0.31124   0.20575   0.23463   0.00000  Uiso   1.00
C40    C     0.31281   0.12804   0.26472   0.00000  Uiso   1.00
C41    C     0.02066   0.20579   0.23488   0.00000  Uiso   1.00
C42    C     0.29054   0.16684   0.24962   0.00000  Uiso   1.00
Cu43   Cu    0.16667   0.21355   0.25000   0.00000  Uiso   1.00
Cu44   Cu    0.16667   0.11978   0.25000   0.00000  Uiso   1.00
H45    H     0.22201   0.20904   0.39327   0.00000  Uiso   1.00
H46    H     0.01724   0.12418   0.45807   0.00000  Uiso   1.00
H47    H     0.32856   0.14354   0.38195   0.00000  Uiso   1.00
H48    H     0.04631   0.13524   0.36331   0.00000  Uiso   1.00
H49    H     0.01709   0.08585   0.38018   0.00000  Uiso   1.00
H50    H     0.30909   0.18281   0.03833   0.00000  Uiso   1.00
H51    H     0.28050   0.16488   0.08512   0.00000  Uiso   1.00
H52    H     0.01815   0.19052   0.10960   0.00000  Uiso   1.00
H53    H     0.00824   0.24678   0.08559   0.00000  Uiso   1.00
H54    H     0.31324   0.22823   0.13212   0.00000  Uiso   1.00
H55    H     0.02110   0.02795   0.02000   0.00000  Uiso   1.00
H56    H     0.11379   0.12077   0.10829   0.00000  Uiso   1.00
H57    H     0.32733   0.28305   0.48048   0.00000  Uiso   1.00
H58    H     0.05933   0.08005   0.20178   0.00000  Uiso   1.00
H59    H     0.06976   0.03343   0.23953   0.00000  Uiso   1.00
H60    H     0.04835   0.31074   0.17997   0.00000  Uiso   1.00
H61    H     0.01177   0.02340   0.17719   0.00000  Uiso   1.00
H62    H     0.05107   0.02129   0.13764   0.00000  Uiso   1.00
H63    H     0.23396   0.24197   0.33001   0.00000  Uiso   1.00
H64    H     0.22971   0.30026   0.35122   0.00000  Uiso   1.00
H65    H     0.30483   0.31088   0.32191   0.00000  Uiso   1.00
H66    H     0.29989   0.27741   0.37097   0.00000  Uiso   1.00
H67    H     0.11578   0.12214   0.38326   0.00000  Uiso   1.00
H68    H     0.30502   0.24853   0.31818   0.00000  Uiso   1.00
H69    H     0.24079   0.09668   0.32040   0.00000  Uiso   1.00
H70    H     0.26174   0.03915   0.31640   0.00000  Uiso   1.00
H71    H     0.24637   0.02897   0.39714   0.00000  Uiso   1.00
H72    H     0.27910   0.07827   0.38994   0.00000  Uiso   1.00
H73    H     0.22508   0.08656   0.39797   0.00000  Uiso   1.00
H74    H     0.16580   0.27807   0.14362   0.00000  Uiso   1.00
H75    H     0.13269   0.32703   0.13529   0.00000  Uiso   1.00
H76    H     0.07604   0.28072   0.10431   0.00000  Uiso   1.00
H77    H     0.12160   0.26237   0.07753   0.00000  Uiso   1.00
H78    H     0.22004   0.20806   0.11754   0.00000  Uiso   1.00
H79    H     0.10099   0.22738   0.12042   0.00000  Uiso   1.00
H80    H     0.03888   0.09878   0.27904   0.00000  Uiso   1.00
H81    H     0.29443   0.23589   0.22249   0.00000  Uiso   1.00
H82    H     0.29748   0.09751   0.27601   0.00000  Uiso   1.00
H83    H     0.03628   0.23584   0.22263   0.00000  Uiso   1.00
H84    H     0.05243   0.16695   0.43891   0.00000  Uiso   1.00
N85    N     0.16667   0.28402   0.25000   0.00000  Uiso   1.00
N86    N     0.16667   0.04931   0.25000   0.00000  Uiso   1.00
O87    O     0.10655   0.20625   0.24999   0.00000  Uiso   1.00
O88    O     0.26398   0.22918   0.05764   0.00000  Uiso   1.00
O89    O     0.09294   0.04334   0.07144   0.00000  Uiso   1.00
O90    O     0.04157   0.10558   0.06809   0.00000  Uiso   1.00
O91    O     0.04092   0.04537   0.00279   0.00000  Uiso   1.00
O92    O     0.29449   0.21362   0.42965   0.00000  Uiso   1.00
O93    O     0.25086   0.28284   0.43402   0.00000  Uiso   1.00
O94    O     0.30587   0.26906   0.49817   0.00000  Uiso   1.00
O95    O     0.11365   0.04746   0.19111   0.00000  Uiso   1.00
O96    O     0.23465   0.29156   0.28205   0.00000  Uiso   1.00
O97    O     0.19756   0.04430   0.32342   0.00000  Uiso   1.00
O98    O     0.22679   0.12709   0.25000   0.00000  Uiso   1.00
O99    O     0.11816   0.28278   0.18742   0.00000  Uiso   1.00
O100   O     0.22679   0.20625   0.25000   0.00000  Uiso   1.00
O101   O     0.10655   0.12709   0.24999   0.00000  Uiso   1.00
O102   O     0.16666   0.20627   0.18513   0.00000  Uiso   1.00
O103   O     0.16668   0.12707   0.31487   0.00000  Uiso   1.00
O104   O     0.16668   0.20627   0.31487   0.00000  Uiso   1.00
O105   O     0.16666   0.12707   0.18513   0.00000  Uiso   1.00
O106   O     0.07387   0.09705   0.44359   0.00000  Uiso   1.00
S107   S     0.06970   0.07651   0.04122   0.00000  Uiso   1.00
S108   S     0.27163   0.24472   0.46024   0.00000  Uiso   1.00
C109   C     0.42080   0.16670   0.25011   0.00000  Uiso   1.00
C110   C     0.37618   0.16701   0.25036   0.00000  Uiso   1.00
C111   C     0.47394   0.02422   0.22063   0.00000  Uiso   1.00
C112   C     0.52844   0.30925   0.27640   0.00000  Uiso   1.00
C113   C     0.52436   0.02527   0.28087   0.00000  Uiso   1.00
C114   C     0.47510   0.30773   0.21958   0.00000  Uiso   1.00
C115   C     0.49930   0.16617   0.16455   0.00000  Uiso   1.00
C116   C     0.50105   0.16698   0.33566   0.00000  Uiso   1.00
C117   C     0.53212   0.19094   0.41016   0.00000  Uiso   1.00
C118   C     0.47046   0.13864   0.09093   0.00000  Uiso   1.00
C119   C     0.50140   0.16719   0.38417   0.00000  Uiso   1.00
C120   C     0.57921   0.16674   0.24981   0.00000  Uiso   1.00
C121   C     0.49993   0.16466   0.11647   0.00000  Uiso   1.00
C122   C     0.47168   0.14148   0.40428   0.00000  Uiso   1.00
C123   C     0.53069   0.18867   0.09654   0.00000  Uiso   1.00
C124   C     0.47079   0.14091   0.45067   0.00000  Uiso   1.00
C125   C     0.53281   0.18695   0.05036   0.00000  Uiso   1.00
C126   C     0.50220   0.16426   0.47723   0.00000  Uiso   1.00
C127   C     0.50166   0.16313   0.02382   0.00000  Uiso   1.00
C128   C     0.53369   0.18931   0.45702   0.00000  Uiso   1.00
C129   C     0.47025   0.13796   0.04411   0.00000  Uiso   1.00
C130   C     0.43879   0.11728   0.47050   0.00000  Uiso   1.00
C131   C     0.43949   0.11344   0.01718   0.00000  Uiso   1.00
C132   C     0.56586   0.20870   0.03074   0.00000  Uiso   1.00
C133   C     0.37542   0.12996   0.43490   0.00000  Uiso   1.00
C134   C     0.35737   0.12312   0.38718   0.00000  Uiso   1.00
C135   C     0.62745   0.19520   0.06870   0.00000  Uiso   1.00
C136   C     0.66053   0.21653   0.10105   0.00000  Uiso   1.00
C137   C     0.40577   0.04476   0.20447   0.00000  Uiso   1.00
C138   C     0.37796   0.01470   0.17272   0.00000  Uiso   1.00
C139   C     0.57762   0.27804   0.32619   0.00000  Uiso   1.00
C140   C     0.62456   0.27884   0.33486   0.00000  Uiso   1.00
C141   C     0.57163   0.06086   0.33204   0.00000  Uiso   1.00
C142   C     0.56577   0.21166   0.48408   0.00000  Uiso   1.00
C143   C     0.58112   0.06371   0.38231   0.00000  Uiso   1.00
C144   C     0.46664   0.29005   0.14478   0.00000  Uiso   1.00
C145   C     0.43971   0.26338   0.10961   0.00000  Uiso   1.00
C146   C     0.35547   0.12850   0.26590   0.00000  Uiso   1.00
C147   C     0.64457   0.20575   0.23463   0.00000  Uiso   1.00
C148   C     0.64614   0.12804   0.26472   0.00000  Uiso   1.00
C149   C     0.35399   0.20579   0.23488   0.00000  Uiso   1.00
C150   C     0.62387   0.16684   0.24962   0.00000  Uiso   1.00
Cu151  Cu    0.50000   0.21355   0.25000   0.00000  Uiso   1.00
Cu152  Cu    0.50000   0.11978   0.25000   0.00000  Uiso   1.00
H153   H     0.55534   0.20904   0.39327   0.00000  Uiso   1.00
H154   H     0.35058   0.12418   0.45807   0.00000  Uiso   1.00
H155   H     0.66189   0.14354   0.38195   0.00000  Uiso   1.00
H156   H     0.37964   0.13524   0.36331   0.00000  Uiso   1.00
H157   H     0.35043   0.08585   0.38018   0.00000  Uiso   1.00
H158   H     0.64242   0.18281   0.03833   0.00000  Uiso   1.00
H159   H     0.61384   0.16488   0.08512   0.00000  Uiso   1.00
H160   H     0.35148   0.19052   0.10960   0.00000  Uiso   1.00
H161   H     0.34158   0.24678   0.08559   0.00000  Uiso   1.00
H162   H     0.64657   0.22823   0.13212   0.00000  Uiso   1.00
H163   H     0.35443   0.02795   0.02000   0.00000  Uiso   1.00
H164   H     0.44712   0.12077   0.10829   0.00000  Uiso   1.00
H165   H     0.66066   0.28305   0.48048   0.00000  Uiso   1.00
H166   H     0.39267   0.08005   0.20178   0.00000  Uiso   1.00
H167   H     0.40310   0.03343   0.23953   0.00000  Uiso   1.00
H168   H     0.38168   0.31074   0.17997   0.00000  Uiso   1.00
H169   H     0.34510   0.02340   0.17719   0.00000  Uiso   1.00
H170   H     0.38440   0.02129   0.13764   0.00000  Uiso   1.00
H171   H     0.56729   0.24197   0.33001   0.00000  Uiso   1.00
H172   H     0.56304   0.30026   0.35122   0.00000  Uiso   1.00
H173   H     0.63816   0.31088   0.32191   0.00000  Uiso   1.00
H174   H     0.63322   0.27741   0.37097   0.00000  Uiso   1.00
H175   H     0.44911   0.12214   0.38326   0.00000  Uiso   1.00
H176   H     0.63835   0.24853   0.31818   0.00000  Uiso   1.00
H177   H     0.57413   0.09668   0.32040   0.00000  Uiso   1.00
H178   H     0.59508   0.03915   0.31640   0.00000  Uiso   1.00
H179   H     0.57970   0.02897   0.39714   0.00000  Uiso   1.00
H180   H     0.61243   0.07827   0.38994   0.00000  Uiso   1.00
H181   H     0.55841   0.08656   0.39797   0.00000  Uiso   1.00
H182   H     0.49913   0.27807   0.14362   0.00000  Uiso   1.00
H183   H     0.46603   0.32703   0.13529   0.00000  Uiso   1.00
H184   H     0.40937   0.28072   0.10431   0.00000  Uiso   1.00
H185   H     0.45494   0.26237   0.07753   0.00000  Uiso   1.00
H186   H     0.55337   0.20806   0.11754   0.00000  Uiso   1.00
H187   H     0.43432   0.22738   0.12042   0.00000  Uiso   1.00
H188   H     0.37221   0.09878   0.27904   0.00000  Uiso   1.00
H189   H     0.62776   0.23589   0.22249   0.00000  Uiso   1.00
H190   H     0.63082   0.09751   0.27601   0.00000  Uiso   1.00
H191   H     0.36961   0.23584   0.22263   0.00000  Uiso   1.00
H192   H     0.38576   0.16695   0.43891   0.00000  Uiso   1.00
N193   N     0.50000   0.28402   0.25000   0.00000  Uiso   1.00
N194   N     0.50000   0.04931   0.25000   0.00000  Uiso   1.00
O195   O     0.43988   0.20625   0.24999   0.00000  Uiso   1.00
O196   O     0.59731   0.22918   0.05764   0.00000  Uiso   1.00
O197   O     0.42627   0.04334   0.07144   0.00000  Uiso   1.00
O198   O     0.37491   0.10558   0.06809   0.00000  Uiso   1.00
O199   O     0.37426   0.04537   0.00279   0.00000  Uiso   1.00
O200   O     0.62782   0.21362   0.42965   0.00000  Uiso   1.00
O201   O     0.58420   0.28284   0.43402   0.00000  Uiso   1.00
O202   O     0.63920   0.26906   0.49817   0.00000  Uiso   1.00
O203   O     0.44698   0.04746   0.19111   0.00000  Uiso   1.00
O204   O     0.56799   0.29156   0.28205   0.00000  Uiso   1.00
O205   O     0.53090   0.04430   0.32342   0.00000  Uiso   1.00
O206   O     0.56012   0.12709   0.25000   0.00000  Uiso   1.00
O207   O     0.45149   0.28278   0.18742   0.00000  Uiso   1.00
O208   O     0.56012   0.20625   0.25000   0.00000  Uiso   1.00
O209   O     0.43988   0.12709   0.24999   0.00000  Uiso   1.00
O210   O     0.49999   0.20627   0.18513   0.00000  Uiso   1.00
O211   O     0.50001   0.12707   0.31487   0.00000  Uiso   1.00
O212   O     0.50001   0.20627   0.31487   0.00000  Uiso   1.00
O213   O     0.49999   0.12707   0.18513   0.00000  Uiso   1.00
O214   O     0.40720   0.09705   0.44359   0.00000  Uiso   1.00
S215   S     0.40303   0.07651   0.04122   0.00000  Uiso   1.00
S216   S     0.60496   0.24472   0.46024   0.00000  Uiso   1.00
C217   C     0.75413   0.16670   0.25011   0.00000  Uiso   1.00
C218   C     0.70951   0.16701   0.25036   0.00000  Uiso   1.00
C219   C     0.80727   0.02422   0.22063   0.00000  Uiso   1.00
C220   C     0.86177   0.30925   0.27640   0.00000  Uiso   1.00
C221   C     0.85770   0.02527   0.28087   0.00000  Uiso   1.00
C222   C     0.80843   0.30773   0.21958   0.00000  Uiso   1.00
C223   C     0.83264   0.16617   0.16455   0.00000  Uiso   1.00
C224   C     0.83438   0.16698   0.33566   0.00000  Uiso   1.00
C225   C     0.86545   0.19094   0.41016   0.00000  Uiso   1.00
C226   C     0.80380   0.13864   0.09093   0.00000  Uiso   1.00
C227   C     0.83473   0.16719   0.38417   0.00000  Uiso   1.00
C228   C     0.91255   0.16674   0.24981   0.00000  Uiso   1.00
C229   C     0.83326   0.16466   0.11647   0.00000  Uiso   1.00
C230   C     0.80501   0.14148   0.40428   0.00000  Uiso   1.00
C231   C     0.86403   0.18867   0.09654   0.00000  Uiso   1.00
C232   C     0.80412   0.14091   0.45067   0.00000  Uiso   1.00
C233   C     0.86615   0.18695   0.05036   0.00000  Uiso   1.00
C234   C     0.83553   0.16426   0.47723   0.00000  Uiso   1.00
C235   C     0.83499   0.16313   0.02382   0.00000  Uiso   1.00
C236   C     0.86702   0.18931   0.45702   0.00000  Uiso   1.00
C237   C     0.80358   0.13796   0.04411   0.00000  Uiso   1.00
C238   C     0.77212   0.11728   0.47050   0.00000  Uiso   1.00
C239   C     0.77283   0.11344   0.01718   0.00000  Uiso   1.00
C240   C     0.89919   0.20870   0.03074   0.00000  Uiso   1.00
C241   C     0.70875   0.12996   0.43490   0.00000  Uiso   1.00
C242   C     0.69070   0.12312   0.38718   0.00000  Uiso   1.00
C243   C     0.96079   0.19520   0.06870   0.00000  Uiso   1.00
C244   C     0.99386   0.21653   0.10105   0.00000  Uiso   1.00
C245   C     0.73910   0.04476   0.20447   0.00000  Uiso   1.00
C246   C     0.71129   0.01470   0.17272   0.00000  Uiso   1.00
C247   C     0.91095   0.27804   0.32619   0.00000  Uiso   1.00
C248   C     0.95789   0.27884   0.33486   0.00000  Uiso   1.00
C249   C     0.90497   0.06086   0.33204   0.00000  Uiso   1.00
C250   C     0.89910   0.21166   0.48408   0.00000  Uiso   1.00
C251   C     0.91446   0.06371   0.38231   0.00000  Uiso   1.00
C252   C     0.79998   0.29005   0.14478   0.00000  Uiso   1.00
C253   C     0.77304   0.26338   0.10961   0.00000  Uiso   1.00
C254   C     0.68880   0.12850   0.26590   0.00000  Uiso   1.00
C255   C     0.97790   0.20575   0.23463   0.00000  Uiso   1.00
C256   C     0.97948   0.12804   0.26472   0.00000  Uiso   1.00
C257   C     0.68732   0.20579   0.23488   0.00000  Uiso   1.00
C258   C     0.95720   0.16684   0.24962   0.00000  Uiso   1.00
Cu259  Cu    0.83333   0.21355   0.25000   0.00000  Uiso   1.00
Cu260  Cu    0.83333   0.11978   0.25000   0.00000  Uiso   1.00
H261   H     0.88868   0.20904   0.39327   0.00000  Uiso   1.00
H262   H     0.68391   0.12418   0.45807   0.00000  Uiso   1.00
H263   H     0.99522   0.14354   0.38195   0.00000  Uiso   1.00
H264   H     0.71297   0.13524   0.36331   0.00000  Uiso   1.00
H265   H     0.68376   0.08585   0.38018   0.00000  Uiso   1.00
H266   H     0.97575   0.18281   0.03833   0.00000  Uiso   1.00
H267   H     0.94717   0.16488   0.08512   0.00000  Uiso   1.00
H268   H     0.68482   0.19052   0.10960   0.00000  Uiso   1.00
H269   H     0.67491   0.24678   0.08559   0.00000  Uiso   1.00
H270   H     0.97990   0.22823   0.13212   0.00000  Uiso   1.00
H271   H     0.68777   0.02795   0.02000   0.00000  Uiso   1.00
H272   H     0.78045   0.12077   0.10829   0.00000  Uiso   1.00
H273   H     0.99399   0.28305   0.48048   0.00000  Uiso   1.00
H274   H     0.72600   0.08005   0.20178   0.00000  Uiso   1.00
H275   H     0.73643   0.03343   0.23953   0.00000  Uiso   1.00
H276   H     0.71502   0.31074   0.17997   0.00000  Uiso   1.00
H277   H     0.67844   0.02340   0.17719   0.00000  Uiso   1.00
H278   H     0.71774   0.02129   0.13764   0.00000  Uiso   1.00
H279   H     0.90062   0.24197   0.33001   0.00000  Uiso   1.00
H280   H     0.89637   0.30026   0.35122   0.00000  Uiso   1.00
H281   H     0.97149   0.31088   0.32191   0.00000  Uiso   1.00
H282   H     0.96655   0.27741   0.37097   0.00000  Uiso   1.00
H283   H     0.78244   0.12214   0.38326   0.00000  Uiso   1.00
H284   H     0.97169   0.24853   0.31818   0.00000  Uiso   1.00
H285   H     0.90746   0.09668   0.32040   0.00000  Uiso   1.00
H286   H     0.92841   0.03915   0.31640   0.00000  Uiso   1.00
H287   H     0.91304   0.02897   0.39714   0.00000  Uiso   1.00
H288   H     0.94577   0.07827   0.38994   0.00000  Uiso   1.00
H289   H     0.89175   0.08656   0.39797   0.00000  Uiso   1.00
H290   H     0.83247   0.27807   0.14362   0.00000  Uiso   1.00
H291   H     0.79936   0.32703   0.13529   0.00000  Uiso   1.00
H292   H     0.74270   0.28072   0.10431   0.00000  Uiso   1.00
H293   H     0.78827   0.26237   0.07753   0.00000  Uiso   1.00
H294   H     0.88671   0.20806   0.11754   0.00000  Uiso   1.00
H295   H     0.76766   0.22738   0.12042   0.00000  Uiso   1.00
H296   H     0.70555   0.09878   0.27904   0.00000  Uiso   1.00
H297   H     0.96109   0.23589   0.22249   0.00000  Uiso   1.00
H298   H     0.96415   0.09751   0.27601   0.00000  Uiso   1.00
H299   H     0.70295   0.23584   0.22263   0.00000  Uiso   1.00
H300   H     0.71910   0.16695   0.43891   0.00000  Uiso   1.00
N301   N     0.83333   0.28402   0.25000   0.00000  Uiso   1.00
N302   N     0.83333   0.04931   0.25000   0.00000  Uiso   1.00
O303   O     0.77321   0.20625   0.24999   0.00000  Uiso   1.00
O304   O     0.93064   0.22918   0.05764   0.00000  Uiso   1.00
O305   O     0.75961   0.04334   0.07144   0.00000  Uiso   1.00
O306   O     0.70824   0.10558   0.06809   0.00000  Uiso   1.00
O307   O     0.70759   0.04537   0.00279   0.00000  Uiso   1.00
O308   O     0.96115   0.21362   0.42965   0.00000  Uiso   1.00
O309   O     0.91753   0.28284   0.43402   0.00000  Uiso   1.00
O310   O     0.97254   0.26906   0.49817   0.00000  Uiso   1.00
O311   O     0.78032   0.04746   0.19111   0.00000  Uiso   1.00
O312   O     0.90132   0.29156   0.28205   0.00000  Uiso   1.00
O313   O     0.86423   0.04430   0.32342   0.00000  Uiso   1.00
O314   O     0.89345   0.12709   0.25000   0.00000  Uiso   1.00
O315   O     0.78482   0.28278   0.18742   0.00000  Uiso   1.00
O316   O     0.89345   0.20625   0.25000   0.00000  Uiso   1.00
O317   O     0.77321   0.12709   0.24999   0.00000  Uiso   1.00
O318   O     0.83332   0.20627   0.18513   0.00000  Uiso   1.00
O319   O     0.83334   0.12707   0.31487   0.00000  Uiso   1.00
O320   O     0.83334   0.20627   0.31487   0.00000  Uiso   1.00
O321   O     0.83332   0.12707   0.18513   0.00000  Uiso   1.00
O322   O     0.74054   0.09705   0.44359   0.00000  Uiso   1.00
S323   S     0.73636   0.07651   0.04122   0.00000  Uiso   1.00
S324   S     0.93829   0.24472   0.46024   0.00000  Uiso   1.00
C325   C     0.08747   0.50003   0.25011   0.00000  Uiso   1.00
C326   C     0.04284   0.50035   0.25036   0.00000  Uiso   1.00
C327   C     0.14060   0.35756   0.22063   0.00000  Uiso   1.00
C328   C     0.19511   0.64259   0.27640   0.00000  Uiso   1.00
C329   C     0.19103   0.35861   0.28087   0.00000  Uiso   1.00
C330   C     0.14176   0.64106   0.21958   0.00000  Uiso   1.00
C331   C     0.16597   0.49950   0.16455   0.00000  Uiso   1.00
C332   C     0.16772   0.50031   0.33566   0.00000  Uiso   1.00
C333   C     0.19878   0.52427   0.41016   0.00000  Uiso   1.00
C334   C     0.13713   0.47197   0.09093   0.00000  Uiso   1.00
C335   C     0.16806   0.50052   0.38417   0.00000  Uiso   1.00
C336   C     0.24588   0.50007   0.24981   0.00000  Uiso   1.00
C337   C     0.16660   0.49800   0.11647   0.00000  Uiso   1.00
C338   C     0.13835   0.47481   0.40428   0.00000  Uiso   1.00
C339   C     0.19736   0.52201   0.09654   0.00000  Uiso   1.00
C340   C     0.13746   0.47425   0.45067   0.00000  Uiso   1.00
C341   C     0.19948   0.52029   0.05036   0.00000  Uiso   1.00
C342   C     0.16886   0.49759   0.47723   0.00000  Uiso   1.00
C343   C     0.16832   0.49646   0.02382   0.00000  Uiso   1.00
C344   C     0.20036   0.52264   0.45702   0.00000  Uiso   1.00
C345   C     0.13692   0.47129   0.04411   0.00000  Uiso   1.00
C346   C     0.10546   0.45061   0.47050   0.00000  Uiso   1.00
C347   C     0.10616   0.44677   0.01718   0.00000  Uiso   1.00
C348   C     0.23252   0.54203   0.03074   0.00000  Uiso   1.00
C349   C     0.04208   0.46330   0.43490   0.00000  Uiso   1.00
C350   C     0.02404   0.45646   0.38718   0.00000  Uiso   1.00
C351   C     0.29412   0.52854   0.06870   0.00000  Uiso   1.00
C352   C     0.32720   0.54986   0.10105   0.00000  Uiso   1.00
C353   C     0.07243   0.37809   0.20447   0.00000  Uiso   1.00
C354   C     0.04463   0.34804   0.17272   0.00000  Uiso   1.00
C355   C     0.24428   0.61138   0.32619   0.00000  Uiso   1.00
C356   C     0.29123   0.61218   0.33486   0.00000  Uiso   1.00
C357   C     0.23830   0.39420   0.33204   0.00000  Uiso   1.00
C358   C     0.23243   0.54499   0.48408   0.00000  Uiso   1.00
C359   C     0.24779   0.39704   0.38231   0.00000  Uiso   1.00
C360   C     0.13331   0.62338   0.14478   0.00000  Uiso   1.00
C361   C     0.10637   0.59671   0.10961   0.00000  Uiso   1.00
C362   C     0.02213   0.46183   0.26590   0.00000  Uiso   1.00
C363   C     0.31124   0.53909   0.23463   0.00000  Uiso   1.00
C364   C     0.31281   0.46138   0.26472   0.00000  Uiso   1.00
C365   C     0.02066   0.53912   0.23488   0.00000  Uiso   1.00
C366   C     0.29054   0.50017   0.24962   0.00000  Uiso   1.00
Cu367  Cu    0.16667   0.54689   0.25000   0.00000  Uiso   1.00
Cu368  Cu    0.16667   0.45311   0.25000   0.00000  Uiso   1.00
H369   H     0.22201   0.54237   0.39327   0.00000  Uiso   1.00
H370   H     0.01724   0.45751   0.45807   0.00000  Uiso   1.00
H371   H     0.32856   0.47688   0.38195   0.00000  Uiso   1.00
H372   H     0.04631   0.46857   0.36331   0.00000  Uiso   1.00
H373   H     0.01709   0.41918   0.38018   0.00000  Uiso   1.00
H374   H     0.30909   0.51614   0.03833   0.00000  Uiso   1.00
H375   H     0.28050   0.49821   0.08512   0.00000  Uiso   1.00
H376   H     0.01815   0.52386   0.10960   0.00000  Uiso   1.00
H377   H     0.00824   0.58011   0.08559   0.00000  Uiso   1.00
H378   H     0.31324   0.56156   0.13212   0.00000  Uiso   1.00
H379   H     0.02110   0.36129   0.02000   0.00000  Uiso   1.00
H380   H     0.11379   0.45410   0.10829   0.00000  Uiso   1.00
H381   H     0.32733   0.61638   0.48048   0.00000  Uiso   1.00
H382   H     0.05933   0.41338   0.20178   0.00000  Uiso   1.00
H383   H     0.06976   0.36676   0.23953   0.00000  Uiso   1.00
H384   H     0.04835   0.64408   0.17997   0.00000  Uiso   1.00
H385   H     0.01177   0.35674   0.17719   0.00000  Uiso   1.00
H386   H     0.05107   0.35463   0.13764   0.00000  Uiso   1.00
H387   H     0.23396   0.57530   0.33001   0.00000  Uiso   1.00
H388   H     0.22971   0.63359   0.35122   0.00000  Uiso   1.00
H389   H     0.30483   0.64421   0.32191   0.00000  Uiso   1.00
H390   H     0.29989   0.61074   0.37097   0.00000  Uiso   1.00
H391   H     0.11578   0.45548   0.38326   0.00000  Uiso   1.00
H392   H     0.30502   0.58186   0.31818   0.00000  Uiso   1.00
H393   H     0.24079   0.43002   0.32040   0.00000  Uiso   1.00
H394   H     0.26174   0.37248   0.31640   0.00000  Uiso   1.00
H395   H     0.24637   0.36230   0.39714   0.00000  Uiso   1.00
H396   H     0.27910   0.41161   0.38994   0.00000  Uiso   1.00
H397   H     0.22508   0.41989   0.39797   0.00000  Uiso   1.00
H398   H     0.16580   0.61140   0.14362   0.00000  Uiso   1.00
H399   H     0.13269   0.66037   0.13529   0.00000  Uiso   1.00
H400   H     0.07604   0.61405   0.10431   0.00000  Uiso   1.00
H401   H     0.12160   0.59570   0.07753   0.00000  Uiso   1.00
H402   H     0.22004   0.54139   0.11754   0.00000  Uiso   1.00
H403   H     0.10099   0.56071   0.12042   0.00000  Uiso   1.00
H404   H     0.03888   0.43212   0.27904   0.00000  Uiso   1.00
H405   H     0.29443   0.56923   0.22249   0.00000  Uiso   1.00
H406   H     0.29748   0.43085   0.27601   0.00000  Uiso   1.00
H407   H     0.03628   0.56917   0.22263   0.00000  Uiso   1.00
H408   H     0.05243   0.50028   0.43891   0.00000  Uiso   1.00
N409   N     0.16667   0.61736   0.25000   0.00000  Uiso   1.00
N410   N     0.16667   0.38264   0.25000   0.00000  Uiso   1.00
O411   O     0.10655   0.53958   0.24999   0.00000  Uiso   1.00
O412   O     0.26398   0.56252   0.05764   0.00000  Uiso   1.00
O413   O     0.09294   0.37667   0.07144   0.00000  Uiso   1.00
O414   O     0.04157   0.43892   0.06809   0.00000  Uiso   1.00
O415   O     0.04092   0.37870   0.00279   0.00000  Uiso   1.00
O416   O     0.29449   0.54696   0.42965   0.00000  Uiso   1.00
O417   O     0.25086   0.61618   0.43402   0.00000  Uiso   1.00
O418   O     0.30587   0.60239   0.49817   0.00000  Uiso   1.00
O419   O     0.11365   0.38080   0.19111   0.00000  Uiso   1.00
O420   O     0.23465   0.62489   0.28205   0.00000  Uiso   1.00
O421   O     0.19756   0.37764   0.32342   0.00000  Uiso   1.00
O422   O     0.22679   0.46042   0.25000   0.00000  Uiso   1.00
O423   O     0.11816   0.61612   0.18742   0.00000  Uiso   1.00
O424   O     0.22679   0.53958   0.25000   0.00000  Uiso   1.00
O425   O     0.10655   0.46042   0.24999   0.00000  Uiso   1.00
O426   O     0.16666   0.53960   0.18513   0.00000  Uiso   1.00
O427   O     0.16668   0.46040   0.31487   0.00000  Uiso   1.00
O428   O     0.16668   0.53960   0.31487   0.00000  Uiso   1.00
O429   O     0.16666   0.46040   0.18513   0.00000  Uiso   1.00
O430   O     0.07387   0.43039   0.44359   0.00000  Uiso   1.00
S431   S     0.06970   0.40984   0.04122   0.00000  Uiso   1.00
S432   S     0.27163   0.57805   0.46024   0.00000  Uiso   1.00
C433   C     0.42080   0.50003   0.25011   0.00000  Uiso   1.00
C434   C     0.37618   0.50035   0.25036   0.00000  Uiso   1.00
C435   C     0.47394   0.35756   0.22063   0.00000  Uiso   1.00
C436   C     0.52844   0.64259   0.27640   0.00000  Uiso   1.00
C437   C     0.52436   0.35861   0.28087   0.00000  Uiso   1.00
C438   C     0.47510   0.64106   0.21958   0.00000  Uiso   1.00
C439   C     0.49930   0.49950   0.16455   0.00000  Uiso   1.00
C440   C     0.50105   0.50031   0.33566   0.00000  Uiso   1.00
C441   C     0.53212   0.52427   0.41016   0.00000  Uiso   1.00
C442   C     0.47046   0.47197   0.09093   0.00000  Uiso   1.00
C443   C     0.50140   0.50052   0.38417   0.00000  Uiso   1.00
C444   C     0.57921   0.50007   0.24981   0.00000  Uiso   1.00
C445   C     0.49993   0.49800   0.11647   0.00000  Uiso   1.00
C446   C     0.47168   0.47481   0.40428   0.00000  Uiso   1.00
C447   C     0.53069   0.52201   0.09654   0.00000  Uiso   1.00
C448   C     0.47079   0.47425   0.45067   0.00000  Uiso   1.00
C449   C     0.53281   0.52029   0.05036   0.00000  Uiso   1.00
C450   C     0.50220   0.49759   0.47723   0.00000  Uiso   1.00
C451   C     0.50166   0.49646   0.02382   0.00000  Uiso   1.00
C452   C     0.53369   0.52264   0.45702   0.00000  Uiso   1.00
C453   C     0.47025   0.47129   0.04411   0.00000  Uiso   1.00
C454   C     0.43879   0.45061   0.47050   0.00000  Uiso   1.00
C455   C     0.43949   0.44677   0.01718   0.00000  Uiso   1.00
C456   C     0.56586   0.54203   0.03074   0.00000  Uiso   1.00
C457   C     0.37542   0.46330   0.43490   0.00000  Uiso   1.00
C458   C     0.35737   0.45646   0.38718   0.00000  Uiso   1.00
C459   C     0.62745   0.52854   0.06870   0.00000  Uiso   1.00
C460   C     0.66053   0.54986   0.10105   0.00000  Uiso   1.00
C461   C     0.40577   0.37809   0.20447   0.00000  Uiso   1.00
C462   C     0.37796   0.34804   0.17272   0.00000  Uiso   1.00
C463   C     0.57762   0.61138   0.32619   0.00000  Uiso   1.00
C464   C     0.62456   0.61218   0.33486   0.00000  Uiso   1.00
C465   C     0.57163   0.39420   0.33204   0.00000  Uiso   1.00
C466   C     0.56577   0.54499   0.48408   0.00000  Uiso   1.00
C467   C     0.58112   0.39704   0.38231   0.00000  Uiso   1.00
C468   C     0.46664   0.62338   0.14478   0.00000  Uiso   1.00
C469   C     0.43971   0.59671   0.10961   0.00000  Uiso   1.00
C470   C     0.35547   0.46183   0.26590   0.00000  Uiso   1.00
C471   C     0.64457   0.53909   0.23463   0.00000  Uiso   1.00
C472   C     0.64614   0.46138   0.26472   0.00000  Uiso   1.00
C473   C     0.35399   0.53912   0.23488   0.00000  Uiso   1.00
C474   C     0.62387   0.50017   0.24962   0.00000  Uiso   1.00
Cu475  Cu    0.50000   0.54689   0.25000   0.00000  Uiso   1.00
Cu476  Cu    0.50000   0.45311   0.25000   0.00000  Uiso   1.00
H477   H     0.55534   0.54237   0.39327   0.00000  Uiso   1.00
H478   H     0.35058   0.45751   0.45807   0.00000  Uiso   1.00
H479   H     0.66189   0.47688   0.38195   0.00000  Uiso   1.00
H480   H     0.37964   0.46857   0.36331   0.00000  Uiso   1.00
H481   H     0.35043   0.41918   0.38018   0.00000  Uiso   1.00
H482   H     0.64242   0.51614   0.03833   0.00000  Uiso   1.00
H483   H     0.61384   0.49821   0.08512   0.00000  Uiso   1.00
H484   H     0.35148   0.52386   0.10960   0.00000  Uiso   1.00
H485   H     0.34158   0.58011   0.08559   0.00000  Uiso   1.00
H486   H     0.64657   0.56156   0.13212   0.00000  Uiso   1.00
H487   H     0.35443   0.36129   0.02000   0.00000  Uiso   1.00
H488   H     0.44712   0.45410   0.10829   0.00000  Uiso   1.00
H489   H     0.66066   0.61638   0.48048   0.00000  Uiso   1.00
H490   H     0.39267   0.41338   0.20178   0.00000  Uiso   1.00
H491   H     0.40310   0.36676   0.23953   0.00000  Uiso   1.00
H492   H     0.38168   0.64408   0.17997   0.00000  Uiso   1.00
H493   H     0.34510   0.35674   0.17719   0.00000  Uiso   1.00
H494   H     0.38440   0.35463   0.13764   0.00000  Uiso   1.00
H495   H     0.56729   0.57530   0.33001   0.00000  Uiso   1.00
H496   H     0.56304   0.63359   0.35122   0.00000  Uiso   1.00
H497   H     0.63816   0.64421   0.32191   0.00000  Uiso   1.00
H498   H     0.63322   0.61074   0.37097   0.00000  Uiso   1.00
H499   H     0.44911   0.45548   0.38326   0.00000  Uiso   1.00
H500   H     0.63835   0.58186   0.31818   0.00000  Uiso   1.00
H501   H     0.57413   0.43002   0.32040   0.00000  Uiso   1.00
H502   H     0.59508   0.37248   0.31640   0.00000  Uiso   1.00
H503   H     0.57970   0.36230   0.39714   0.00000  Uiso   1.00
H504   H     0.61243   0.41161   0.38994   0.00000  Uiso   1.00
H505   H     0.55841   0.41989   0.39797   0.00000  Uiso   1.00
H506   H     0.49913   0.61140   0.14362   0.00000  Uiso   1.00
H507   H     0.46603   0.66037   0.13529   0.00000  Uiso   1.00
H508   H     0.40937   0.61405   0.10431   0.00000  Uiso   1.00
H509   H     0.45494   0.59570   0.07753   0.00000  Uiso   1.00
H510   H     0.55337   0.54139   0.11754   0.00000  Uiso   1.00
H511   H     0.43432   0.56071   0.12042   0.00000  Uiso   1.00
H512   H     0.37221   0.43212   0.27904   0.00000  Uiso   1.00
H513   H     0.62776   0.56923   0.22249   0.00000  Uiso   1.00
H514   H     0.63082   0.43085   0.27601   0.00000  Uiso   1.00
H515   H     0.36961   0.56917   0.22263   0.00000  Uiso   1.00
H516   H     0.38576   0.50028   0.43891   0.00000  Uiso   1.00
N517   N     0.50000   0.61736   0.25000   0.00000  Uiso   1.00
N518   N     0.50000   0.38264   0.25000   0.00000  Uiso   1.00
O519   O     0.43988   0.53958   0.24999   0.00000  Uiso   1.00
O520   O     0.59731   0.56252   0.05764   0.00000  Uiso   1.00
O521   O     0.42627   0.37667   0.07144   0.00000  Uiso   1.00
O522   O     0.37491   0.43892   0.06809   0.00000  Uiso   1.00
O523   O     0.37426   0.37870   0.00279   0.00000  Uiso   1.00
O524   O     0.62782   0.54696   0.42965   0.00000  Uiso   1.00
O525   O     0.58420   0.61618   0.43402   0.00000  Uiso   1.00
O526   O     0.63920   0.60239   0.49817   0.00000  Uiso   1.00
O527   O     0.44698   0.38080   0.19111   0.00000  Uiso   1.00
O528   O     0.56799   0.62489   0.28205   0.00000  Uiso   1.00
O529   O     0.53090   0.37764   0.32342   0.00000  Uiso   1.00
O530   O     0.56012   0.46042   0.25000   0.00000  Uiso   1.00
O531   O     0.45149   0.61612   0.18742   0.00000  Uiso   1.00
O532   O     0.56012   0.53958   0.25000   0.00000  Uiso   1.00
O533   O     0.43988   0.46042   0.24999   0.00000  Uiso   1.00
O534   O     0.49999   0.53960   0.18513   0.00000  Uiso   1.00
O535   O     0.50001   0.46040   0.31487   0.00000  Uiso   1.00
O536   O     0.50001   0.53960   0.31487   0.00000  Uiso   1.00
O537   O     0.49999   0.46040   0.18513   0.00000  Uiso   1.00
O538   O     0.40720   0.43039   0.44359   0.00000  Uiso   1.00
S539   S     0.40303   0.40984   0.04122   0.00000  Uiso   1.00
S540   S     0.60496   0.57805   0.46024   0.00000  Uiso   1.00
C541   C     0.75413   0.50003   0.25011   0.00000  Uiso   1.00
C542   C     0.70951   0.50035   0.25036   0.00000  Uiso   1.00
C543   C     0.80727   0.35756   0.22063   0.00000  Uiso   1.00
C544   C     0.86177   0.64259   0.27640   0.00000  Uiso   1.00
C545   C     0.85770   0.35861   0.28087   0.00000  Uiso   1.00
C546   C     0.80843   0.64106   0.21958   0.00000  Uiso   1.00
C547   C     0.83264   0.49950   0.16455   0.00000  Uiso   1.00
C548   C     0.83438   0.50031   0.33566   0.00000  Uiso   1.00
C549   C     0.86545   0.52427   0.41016   0.00000  Uiso   1.00
C550   C     0.80380   0.47197   0.09093   0.00000  Uiso   1.00
C551   C     0.83473   0.50052   0.38417   0.00000  Uiso   1.00
C552   C     0.91255   0.50007   0.24981   0.00000  Uiso   1.00
C553   C     0.83326   0.49800   0.11647   0.00000  Uiso   1.00
C554   C     0.80501   0.47481   0.40428   0.00000  Uiso   1.00
C555   C     0.86403   0.52201   0.09654   0.00000  Uiso   1.00
C556   C     0.80412   0.47425   0.45067   0.00000  Uiso   1.00
C557   C     0.86615   0.52029   0.05036   0.00000  Uiso   1.00
C558   C     0.83553   0.49759   0.47723   0.00000  Uiso   1.00
C559   C     0.83499   0.49646   0.02382   0.00000  Uiso   1.00
C560   C     0.86702   0.52264   0.45702   0.00000  Uiso   1.00
C561   C     0.80358   0.47129   0.04411   0.00000  Uiso   1.00
C562   C     0.77212   0.45061   0.47050   0.00000  Uiso   1.00
C563   C     0.77283   0.44677   0.01718   0.00000  Uiso   1.00
C564   C     0.89919   0.54203   0.03074   0.00000  Uiso   1.00
C565   C     0.70875   0.46330   0.43490   0.00000  Uiso   1.00
C566   C     0.69070   0.45646   0.38718   0.00000  Uiso   1.00
C567   C     0.96079   0.52854   0.06870   0.00000  Uiso   1.00
C568   C     0.99386   0.54986   0.10105   0.00000  Uiso   1.00
C569   C     0.73910   0.37809   0.20447   0.00000  Uiso   1.00
C570   C     0.71129   0.34804   0.17272   0.00000  Uiso   1.00
C571   C     0.91095   0.61138   0.32619   0.00000  Uiso   1.00
C572   C     0.95789   0.61218   0.33486   0.00000  Uiso   1.00
C573   C     0.90497   0.39420   0.33204   0.00000  Uiso   1.00
C574   C     0.89910   0.54499   0.48408   0.00000  Uiso   1.00
C575   C     0.91446   0.39704   0.38231   0.00000  Uiso   1.00
C576   C     0.79998   0.62338   0.14478   0.00000  Uiso   1.00
C577   C     0.77304   0.59671   0.10961   0.00000  Uiso   1.00
C578   C     0.68880   0.46183   0.26590   0.00000  Uiso   1.00
C579   C     0.97790   0.53909   0.23463   0.00000  Uiso   1.00
C580   C     0.97948   0.46138   0.26472   0.00000  Uiso   1.00
C581   C     0.68732   0.53912   0.23488   0.00000  Uiso   1.00
C582   C     0.95720   0.50017   0.24962   0.00000  Uiso   1.00
Cu583  Cu    0.83333   0.54689   0.25000   0.00000  Uiso   1.00
Cu584  Cu    0.83333   0.45311   0.25000   0.00000  Uiso   1.00
H585   H     0.88868   0.54237   0.39327   0.00000  Uiso   1.00
H586   H     0.68391   0.45751   0.45807   0.00000  Uiso   1.00
H587   H     0.99522   0.47688   0.38195   0.00000  Uiso   1.00
H588   H     0.71297   0.46857   0.36331   0.00000  Uiso   1.00
H589   H     0.68376   0.41918   0.38018   0.00000  Uiso   1.00
H590   H     0.97575   0.51614   0.03833   0.00000  Uiso   1.00
H591   H     0.94717   0.49821   0.08512   0.00000  Uiso   1.00
H592   H     0.68482   0.52386   0.10960   0.00000  Uiso   1.00
H593   H     0.67491   0.58011   0.08559   0.00000  Uiso   1.00
H594   H     0.97990   0.56156   0.13212   0.00000  Uiso   1.00
H595   H     0.68777   0.36129   0.02000   0.00000  Uiso   1.00
H596   H     0.78045   0.45410   0.10829   0.00000  Uiso   1.00
H597   H     0.99399   0.61638   0.48048   0.00000  Uiso   1.00
H598   H     0.72600   0.41338   0.20178   0.00000  Uiso   1.00
H599   H     0.73643   0.36676   0.23953   0.00000  Uiso   1.00
H600   H     0.71502   0.64408   0.17997   0.00000  Uiso   1.00
H601   H     0.67844   0.35674   0.17719   0.00000  Uiso   1.00
H602   H     0.71774   0.35463   0.13764   0.00000  Uiso   1.00
H603   H     0.90062   0.57530   0.33001   0.00000  Uiso   1.00
H604   H     0.89637   0.63359   0.35122   0.00000  Uiso   1.00
H605   H     0.97149   0.64421   0.32191   0.00000  Uiso   1.00
H606   H     0.96655   0.61074   0.37097   0.00000  Uiso   1.00
H607   H     0.78244   0.45548   0.38326   0.00000  Uiso   1.00
H608   H     0.97169   0.58186   0.31818   0.00000  Uiso   1.00
H609   H     0.90746   0.43002   0.32040   0.00000  Uiso   1.00
H610   H     0.92841   0.37248   0.31640   0.00000  Uiso   1.00
H611   H     0.91304   0.36230   0.39714   0.00000  Uiso   1.00
H612   H     0.94577   0.41161   0.38994   0.00000  Uiso   1.00
H613   H     0.89175   0.41989   0.39797   0.00000  Uiso   1.00
H614   H     0.83247   0.61140   0.14362   0.00000  Uiso   1.00
H615   H     0.79936   0.66037   0.13529   0.00000  Uiso   1.00
H616   H     0.74270   0.61405   0.10431   0.00000  Uiso   1.00
H617   H     0.78827   0.59570   0.07753   0.00000  Uiso   1.00
H618   H     0.88671   0.54139   0.11754   0.00000  Uiso   1.00
H619   H     0.76766   0.56071   0.12042   0.00000  Uiso   1.00
H620   H     0.70555   0.43212   0.27904   0.00000  Uiso   1.00
H621   H     0.96109   0.56923   0.22249   0.00000  Uiso   1.00
H622   H     0.96415   0.43085   0.27601   0.00000  Uiso   1.00
H623   H     0.70295   0.56917   0.22263   0.00000  Uiso   1.00
H624   H     0.71910   0.50028   0.43891   0.00000  Uiso   1.00
N625   N     0.83333   0.61736   0.25000   0.00000  Uiso   1.00
N626   N     0.83333   0.38264   0.25000   0.00000  Uiso   1.00
O627   O     0.77321   0.53958   0.24999   0.00000  Uiso   1.00
O628   O     0.93064   0.56252   0.05764   0.00000  Uiso   1.00
O629   O     0.75961   0.37667   0.07144   0.00000  Uiso   1.00
O630   O     0.70824   0.43892   0.06809   0.00000  Uiso   1.00
O631   O     0.70759   0.37870   0.00279   0.00000  Uiso   1.00
O632   O     0.96115   0.54696   0.42965   0.00000  Uiso   1.00
O633   O     0.91753   0.61618   0.43402   0.00000  Uiso   1.00
O634   O     0.97254   0.60239   0.49817   0.00000  Uiso   1.00
O635   O     0.78032   0.38080   0.19111   0.00000  Uiso   1.00
O636   O     0.90132   0.62489   0.28205   0.00000  Uiso   1.00
O637   O     0.86423   0.37764   0.32342   0.00000  Uiso   1.00
O638   O     0.89345   0.46042   0.25000   0.00000  Uiso   1.00
O639   O     0.78482   0.61612   0.18742   0.00000  Uiso   1.00
O640   O     0.89345   0.53958   0.25000   0.00000  Uiso   1.00
O641   O     0.77321   0.46042   0.24999   0.00000  Uiso   1.00
O642   O     0.83332   0.53960   0.18513   0.00000  Uiso   1.00
O643   O     0.83334   0.46040   0.31487   0.00000  Uiso   1.00
O644   O     0.83334   0.53960   0.31487   0.00000  Uiso   1.00
O645   O     0.83332   0.46040   0.18513   0.00000  Uiso   1.00
O646   O     0.74054   0.43039   0.44359   0.00000  Uiso   1.00
S647   S     0.73636   0.40984   0.04122   0.00000  Uiso   1.00
S648   S     0.93829   0.57805   0.46024   0.00000  Uiso   1.00
C649   C     0.08747   0.83336   0.25011   0.00000  Uiso   1.00
C650   C     0.04284   0.83368   0.25036   0.00000  Uiso   1.00
C651   C     0.14060   0.69089   0.22063   0.00000  Uiso   1.00
C652   C     0.19511   0.97592   0.27640   0.00000  Uiso   1.00
C653   C     0.19103   0.69194   0.28087   0.00000  Uiso   1.00
C654   C     0.14176   0.97439   0.21958   0.00000  Uiso   1.00
C655   C     0.16597   0.83283   0.16455   0.00000  Uiso   1.00
C656   C     0.16772   0.83365   0.33566   0.00000  Uiso   1.00
C657   C     0.19878   0.85761   0.41016   0.00000  Uiso   1.00
C658   C     0.13713   0.80531   0.09093   0.00000  Uiso   1.00
C659   C     0.16806   0.83386   0.38417   0.00000  Uiso   1.00
C660   C     0.24588   0.83340   0.24981   0.00000  Uiso   1.00
C661   C     0.16660   0.83133   0.11647   0.00000  Uiso   1.00
C662   C     0.13835   0.80815   0.40428   0.00000  Uiso   1.00
C663   C     0.19736   0.85534   0.09654   0.00000  Uiso   1.00
C664   C     0.13746   0.80758   0.45067   0.00000  Uiso   1.00
C665   C     0.19948   0.85362   0.05036   0.00000  Uiso   1.00
C666   C     0.16886   0.83092   0.47723   0.00000  Uiso   1.00
C667   C     0.16832   0.82979   0.02382   0.00000  Uiso   1.00
C668   C     0.20036   0.85597   0.45702   0.00000  Uiso   1.00
C669   C     0.13692   0.80463   0.04411   0.00000  Uiso   1.00
C670   C     0.10546   0.78394   0.47050   0.00000  Uiso   1.00
C671   C     0.10616   0.78010   0.01718   0.00000  Uiso   1.00
C672   C     0.23252   0.87537   0.03074   0.00000  Uiso   1.00
C673   C     0.04208   0.79663   0.43490   0.00000  Uiso   1.00
C674   C     0.02404   0.78979   0.38718   0.00000  Uiso   1.00
C675   C     0.29412   0.86187   0.06870   0.00000  Uiso   1.00
C676   C     0.32720   0.88320   0.10105   0.00000  Uiso   1.00
C677   C     0.07243   0.71143   0.20447   0.00000  Uiso   1.00
C678   C     0.04463   0.68137   0.17272   0.00000  Uiso   1.00
C679   C     0.24428   0.94471   0.32619   0.00000  Uiso   1.00
C680   C     0.29123   0.94551   0.33486   0.00000  Uiso   1.00
C681   C     0.23830   0.72753   0.33204   0.00000  Uiso   1.00
C682   C     0.23243   0.87833   0.48408   0.00000  Uiso   1.00
C683   C     0.24779   0.73038   0.38231   0.00000  Uiso   1.00
C684   C     0.13331   0.95671   0.14478   0.00000  Uiso   1.00
C685   C     0.10637   0.93004   0.10961   0.00000  Uiso   1.00
C686   C     0.02213   0.79516   0.26590   0.00000  Uiso   1.00
C687   C     0.31124   0.87242   0.23463   0.00000  Uiso   1.00
C688   C     0.31281   0.79471   0.26472   0.00000  Uiso   1.00
C689   C     0.02066   0.87246   0.23488   0.00000  Uiso   1.00
C690   C     0.29054   0.83350   0.24962   0.00000  Uiso   1.00
Cu691  Cu    0.16667   0.88022   0.25000   0.00000  Uiso   1.00
Cu692  Cu    0.16667   0.78645   0.25000   0.00000  Uiso   1.00
H693   H     0.22201   0.87570   0.39327   0.00000  Uiso   1.00
H694   H     0.01724   0.79085   0.45807   0.00000  Uiso   1.00
H695   H     0.32856   0.81021   0.38195   0.00000  Uiso   1.00
H696   H     0.04631   0.80191   0.36331   0.00000  Uiso   1.00
H697   H     0.01709   0.75251   0.38018   0.00000  Uiso   1.00
H698   H     0.30909   0.84948   0.03833   0.00000  Uiso   1.00
H699   H     0.28050   0.83154   0.08512   0.00000  Uiso   1.00
H700   H     0.01815   0.85719   0.10960   0.00000  Uiso   1.00
H701   H     0.00824   0.91344   0.08559   0.00000  Uiso   1.00
H702   H     0.31324   0.89490   0.13212   0.00000  Uiso   1.00
H703   H     0.02110   0.69462   0.02000   0.00000  Uiso   1.00
H704   H     0.11379   0.78743   0.10829   0.00000  Uiso   1.00
H705   H     0.32733   0.94971   0.48048   0.00000  Uiso   1.00
H706   H     0.05933   0.74671   0.20178   0.00000  Uiso   1.00
H707   H     0.06976   0.70010   0.23953   0.00000  Uiso   1.00
H708   H     0.04835   0.97741   0.17997   0.00000  Uiso   1.00
H709   H     0.01177   0.69007   0.17719   0.00000  Uiso   1.00
H710   H     0.05107   0.68796   0.13764   0.00000  Uiso   1.00
H711   H     0.23396   0.90864   0.33001   0.00000  Uiso   1.00
H712   H     0.22971   0.96692   0.35122   0.00000  Uiso   1.00
H713   H     0.30483   0.97755   0.32191   0.00000  Uiso   1.00
H714   H     0.29989   0.94408   0.37097   0.00000  Uiso   1.00
H715   H     0.11578   0.78881   0.38326   0.00000  Uiso   1.00
H716   H     0.30502   0.91519   0.31818   0.00000  Uiso   1.00
H717   H     0.24079   0.76335   0.32040   0.00000  Uiso   1.00
H718   H     0.26174   0.70582   0.31640   0.00000  Uiso   1.00
H719   H     0.24637   0.69563   0.39714   0.00000  Uiso   1.00
H720   H     0.27910   0.74494   0.38994   0.00000  Uiso   1.00
H721   H     0.22508   0.75322   0.39797   0.00000  Uiso   1.00
H722   H     0.16580   0.94474   0.14362   0.00000  Uiso   1.00
H723   H     0.13269   0.99370   0.13529   0.00000  Uiso   1.00
H724   H     0.07604   0.94739   0.10431   0.00000  Uiso   1.00
H725   H     0.12160   0.92903   0.07753   0.00000  Uiso   1.00
H726   H     0.22004   0.87472   0.11754   0.00000  Uiso   1.00
H727   H     0.10099   0.89405   0.12042   0.00000  Uiso   1.00
H728   H     0.03888   0.76545   0.27904   0.00000  Uiso   1.00
H729   H     0.29443   0.90256   0.22249   0.00000  Uiso   1.00
H730   H     0.29748   0.76418   0.27601   0.00000  Uiso   1.00
H731   H     0.03628   0.90251   0.22263   0.00000  Uiso   1.00
H732   H     0.05243   0.83361   0.43891   0.00000  Uiso   1.00
N733   N     0.16667   0.95069   0.25000   0.00000  Uiso   1.00
N734   N     0.16667   0.71598   0.25000   0.00000  Uiso   1.00
O735   O     0.10655   0.87291   0.24999   0.00000  Uiso   1.00
O736   O     0.26398   0.89585   0.05764   0.00000  Uiso   1.00
O737   O     0.09294   0.71001   0.07144   0.00000  Uiso   1.00
O738   O     0.04157   0.77225   0.06809   0.00000  Uiso   1.00
O739   O     0.04092   0.71203   0.00279   0.00000  Uiso   1.00
O740   O     0.29449   0.88029   0.42965   0.00000  Uiso   1.00
O741   O     0.25086   0.94951   0.43402   0.00000  Uiso   1.00
O742   O     0.30587   0.93572   0.49817   0.00000  Uiso   1.00
O743   O     0.11365   0.71413   0.19111   0.00000  Uiso   1.00
O744   O     0.23465   0.95823   0.28205   0.00000  Uiso   1.00
O745   O     0.19756   0.71097   0.32342   0.00000  Uiso   1.00
O746   O     0.22679   0.79375   0.25000   0.00000  Uiso   1.00
O747   O     0.11816   0.94945   0.18742   0.00000  Uiso   1.00
O748   O     0.22679   0.87291   0.25000   0.00000  Uiso   1.00
O749   O     0.10655   0.79375   0.24999   0.00000  Uiso   1.00
O750   O     0.16666   0.87293   0.18513   0.00000  Uiso   1.00
O751   O     0.16668   0.79373   0.31487   0.00000  Uiso   1.00
O752   O     0.16668   0.87293   0.31487   0.00000  Uiso   1.00
O753   O     0.16666   0.79373   0.18513   0.00000  Uiso   1.00
O754   O     0.07387   0.76372   0.44359   0.00000  Uiso   1.00
S755   S     0.06970   0.74318   0.04122   0.00000  Uiso   1.00
S756   S     0.27163   0.91138   0.46024   0.00000  Uiso   1.00
C757   C     0.42080   0.83336   0.25011   0.00000  Uiso   1.00
C758   C     0.37618   0.83368   0.25036   0.00000  Uiso   1.00
C759   C     0.47394   0.69089   0.22063   0.00000  Uiso   1.00
C760   C     0.52844   0.97592   0.27640   0.00000  Uiso   1.00
C761   C     0.52436   0.69194   0.28087   0.00000  Uiso   1.00
C762   C     0.47510   0.97439   0.21958   0.00000  Uiso   1.00
C763   C     0.49930   0.83283   0.16455   0.00000  Uiso   1.00
C764   C     0.50105   0.83365   0.33566   0.00000  Uiso   1.00
C765   C     0.53212   0.85761   0.41016   0.00000  Uiso   1.00
C766   C     0.47046   0.80531   0.09093   0.00000  Uiso   1.00
C767   C     0.50140   0.83386   0.38417   0.00000  Uiso   1.00
C768   C     0.57921   0.83340   0.24981   0.00000  Uiso   1.00
C769   C     0.49993   0.83133   0.11647   0.00000  Uiso   1.00
C770   C     0.47168   0.80815   0.40428   0.00000  Uiso   1.00
C771   C     0.53069   0.85534   0.09654   0.00000  Uiso   1.00
C772   C     0.47079   0.80758   0.45067   0.00000  Uiso   1.00
C773   C     0.53281   0.85362   0.05036   0.00000  Uiso   1.00
C774   C     0.50220   0.83092   0.47723   0.00000  Uiso   1.00
C775   C     0.50166   0.82979   0.02382   0.00000  Uiso   1.00
C776   C     0.53369   0.85597   0.45702   0.00000  Uiso   1.00
C777   C     0.47025   0.80463   0.04411   0.00000  Uiso   1.00
C778   C     0.43879   0.78394   0.47050   0.00000  Uiso   1.00
C779   C     0.43949   0.78010   0.01718   0.00000  Uiso   1.00
C780   C     0.56586   0.87537   0.03074   0.00000  Uiso   1.00
C781   C     0.37542   0.79663   0.43490   0.00000  Uiso   1.00
C782   C     0.35737   0.78979   0.38718   0.00000  Uiso   1.00
C783   C     0.62745   0.86187   0.06870   0.00000  Uiso   1.00
C784   C     0.66053   0.88320   0.10105   0.00000  Uiso   1.00
C785   C     0.40577   0.71143   0.20447   0.00000  Uiso   1.00
C786   C     0.37796   0.68137   0.17272   0.00000  Uiso   1.00
C787   C     0.57762   0.94471   0.32619   0.00000  Uiso   1.00
C788   C     0.62456   0.94551   0.33486   0.00000  Uiso   1.00
C789   C     0.57163   0.72753   0.33204   0.00000  Uiso   1.00
C790   C     0.56577   0.87833   0.48408   0.00000  Uiso   1.00
C791   C     0.58112   0.73038   0.38231   0.00000  Uiso   1.00
C792   C     0.46664   0.95671   0.14478   0.00000  Uiso   1.00
C793   C     0.43971   0.93004   0.10961   0.00000  Uiso   1.00
C794   C     0.35547   0.79516   0.26590   0.00000  Uiso   1.00
C795   C     0.64457   0.87242   0.23463   0.00000  Uiso   1.00
C796   C     0.64614   0.79471   0.26472   0.00000  Uiso   1.00
C797   C     0.35399   0.87246   0.23488   0.00000  Uiso   1.00
C798   C     0.62387   0.83350   0.24962   0.00000  Uiso   1.00
Cu799  Cu    0.50000   0.88022   0.25000   0.00000  Uiso   1.00
Cu800  Cu    0.50000   0.78645   0.25000   0.00000  Uiso   1.00
H801   H     0.55534   0.87570   0.39327   0.00000  Uiso   1.00
H802   H     0.35058   0.79085   0.45807   0.00000  Uiso   1.00
H803   H     0.66189   0.81021   0.38195   0.00000  Uiso   1.00
H804   H     0.37964   0.80191   0.36331   0.00000  Uiso   1.00
H805   H     0.35043   0.75251   0.38018   0.00000  Uiso   1.00
H806   H     0.64242   0.84948   0.03833   0.00000  Uiso   1.00
H807   H     0.61384   0.83154   0.08512   0.00000  Uiso   1.00
H808   H     0.35148   0.85719   0.10960   0.00000  Uiso   1.00
H809   H     0.34158   0.91344   0.08559   0.00000  Uiso   1.00
H810   H     0.64657   0.89490   0.13212   0.00000  Uiso   1.00
H811   H     0.35443   0.69462   0.02000   0.00000  Uiso   1.00
H812   H     0.44712   0.78743   0.10829   0.00000  Uiso   1.00
H813   H     0.66066   0.94971   0.48048   0.00000  Uiso   1.00
H814   H     0.39267   0.74671   0.20178   0.00000  Uiso   1.00
H815   H     0.40310   0.70010   0.23953   0.00000  Uiso   1.00
H816   H     0.38168   0.97741   0.17997   0.00000  Uiso   1.00
H817   H     0.34510   0.69007   0.17719   0.00000  Uiso   1.00
H818   H     0.38440   0.68796   0.13764   0.00000  Uiso   1.00
H819   H     0.56729   0.90864   0.33001   0.00000  Uiso   1.00
H820   H     0.56304   0.96692   0.35122   0.00000  Uiso   1.00
H821   H     0.63816   0.97755   0.32191   0.00000  Uiso   1.00
H822   H     0.63322   0.94408   0.37097   0.00000  Uiso   1.00
H823   H     0.44911   0.78881   0.38326   0.00000  Uiso   1.00
H824   H     0.63835   0.91519   0.31818   0.00000  Uiso   1.00
H825   H     0.57413   0.76335   0.32040   0.00000  Uiso   1.00
H826   H     0.59508   0.70582   0.31640   0.00000  Uiso   1.00
H827   H     0.57970   0.69563   0.39714   0.00000  Uiso   1.00
H828   H     0.61243   0.74494   0.38994   0.00000  Uiso   1.00
H829   H     0.55841   0.75322   0.39797   0.00000  Uiso   1.00
H830   H     0.49913   0.94474   0.14362   0.00000  Uiso   1.00
H831   H     0.46603   0.99370   0.13529   0.00000  Uiso   1.00
H832   H     0.40937   0.94739   0.10431   0.00000  Uiso   1.00
H833   H     0.45494   0.92903   0.07753   0.00000  Uiso   1.00
H834   H     0.55337   0.87472   0.11754   0.00000  Uiso   1.00
H835   H     0.43432   0.89405   0.12042   0.00000  Uiso   1.00
H836   H     0.37221   0.76545   0.27904   0.00000  Uiso   1.00
H837   H     0.62776   0.90256   0.22249   0.00000  Uiso   1.00
H838   H     0.63082   0.76418   0.27601   0.00000  Uiso   1.00
H839   H     0.36961   0.90251   0.22263   0.00000  Uiso   1.00
H840   H     0.38576   0.83361   0.43891   0.00000  Uiso   1.00
N841   N     0.50000   0.95069   0.25000   0.00000  Uiso   1.00
N842   N     0.50000   0.71598   0.25000   0.00000  Uiso   1.00
O843   O     0.43988   0.87291   0.24999   0.00000  Uiso   1.00
O844   O     0.59731   0.89585   0.05764   0.00000  Uiso   1.00
O845   O     0.42627   0.71001   0.07144   0.00000  Uiso   1.00
O846   O     0.37491   0.77225   0.06809   0.00000  Uiso   1.00
O847   O     0.37426   0.71203   0.00279   0.00000  Uiso   1.00
O848   O     0.62782   0.88029   0.42965   0.00000  Uiso   1.00
O849   O     0.58420   0.94951   0.43402   0.00000  Uiso   1.00
O850   O     0.63920   0.93572   0.49817   0.00000  Uiso   1.00
O851   O     0.44698   0.71413   0.19111   0.00000  Uiso   1.00
O852   O     0.56799   0.95823   0.28205   0.00000  Uiso   1.00
O853   O     0.53090   0.71097   0.32342   0.00000  Uiso   1.00
O854   O     0.56012   0.79375   0.25000   0.00000  Uiso   1.00
O855   O     0.45149   0.94945   0.18742   0.00000  Uiso   1.00
O856   O     0.56012   0.87291   0.25000   0.00000  Uiso   1.00
O857   O     0.43988   0.79375   0.24999   0.00000  Uiso   1.00
O858   O     0.49999   0.87293   0.18513   0.00000  Uiso   1.00
O859   O     0.50001   0.79373   0.31487   0.00000  Uiso   1.00
O860   O     0.50001   0.87293   0.31487   0.00000  Uiso   1.00
O861   O     0.49999   0.79373   0.18513   0.00000  Uiso   1.00
O862   O     0.40720   0.76372   0.44359   0.00000  Uiso   1.00
S863   S     0.40303   0.74318   0.04122   0.00000  Uiso   1.00
S864   S     0.60496   0.91138   0.46024   0.00000  Uiso   1.00
C865   C     0.75413   0.83336   0.25011   0.00000  Uiso   1.00
C866   C     0.70951   0.83368   0.25036   0.00000  Uiso   1.00
C867   C     0.80727   0.69089   0.22063   0.00000  Uiso   1.00
C868   C     0.86177   0.97592   0.27640   0.00000  Uiso   1.00
C869   C     0.85770   0.69194   0.28087   0.00000  Uiso   1.00
C870   C     0.80843   0.97439   0.21958   0.00000  Uiso   1.00
C871   C     0.83264   0.83283   0.16455   0.00000  Uiso   1.00
C872   C     0.83438   0.83365   0.33566   0.00000  Uiso   1.00
C873   C     0.86545   0.85761   0.41016   0.00000  Uiso   1.00
C874   C     0.80380   0.80531   0.09093   0.00000  Uiso   1.00
C875   C     0.83473   0.83386   0.38417   0.00000  Uiso   1.00
C876   C     0.91255   0.83340   0.24981   0.00000  Uiso   1.00
C877   C     0.83326   0.83133   0.11647   0.00000  Uiso   1.00
C878   C     0.80501   0.80815   0.40428   0.00000  Uiso   1.00
C879   C     0.86403   0.85534   0.09654   0.00000  Uiso   1.00
C880   C     0.80412   0.80758   0.45067   0.00000  Uiso   1.00
C881   C     0.86615   0.85362   0.05036   0.00000  Uiso   1.00
C882   C     0.83553   0.83092   0.47723   0.00000  Uiso   1.00
C883   C     0.83499   0.82979   0.02382   0.00000  Uiso   1.00
C884   C     0.86702   0.85597   0.45702   0.00000  Uiso   1.00
C885   C     0.80358   0.80463   0.04411   0.00000  Uiso   1.00
C886   C     0.77212   0.78394   0.47050   0.00000  Uiso   1.00
C887   C     0.77283   0.78010   0.01718   0.00000  Uiso   1.00
C888   C     0.89919   0.87537   0.03074   0.00000  Uiso   1.00
C889   C     0.70875   0.79663   0.43490   0.00000  Uiso   1.00
C890   C     0.69070   0.78979   0.38718   0.00000  Uiso   1.00
C891   C     0.96079   0.86187   0.06870   0.00000  Uiso   1.00
C892   C     0.99386   0.88320   0.10105   0.00000  Uiso   1.00
C893   C     0.73910   0.71143   0.20447   0.00000  Uiso   1.00
C894   C     0.71129   0.68137   0.17272   0.00000  Uiso   1.00
C895   C     0.91095   0.94471   0.32619   0.00000  Uiso   1.00
C896   C     0.95789   0.94551   0.33486   0.00000  Uiso   1.00
C897   C     0.90497   0.72753   0.33204   0.00000  Uiso   1.00
C898   C     0.89910   0.87833   0.48408   0.00000  Uiso   1.00
C899   C     0.91446   0.73038   0.38231   0.00000  Uiso   1.00
C900   C     0.79998   0.95671   0.14478   0.00000  Uiso   1.00
C901   C     0.77304   0.93004   0.10961   0.00000  Uiso   1.00
C902   C     0.68880   0.79516   0.26590   0.00000  Uiso   1.00
C903   C     0.97790   0.87242   0.23463   0.00000  Uiso   1.00
C904   C     0.97948   0.79471   0.26472   0.00000  Uiso   1.00
C905   C     0.68732   0.87246   0.23488   0.00000  Uiso   1.00
C906   C     0.95720   0.83350   0.24962   0.00000  Uiso   1.00
Cu907  Cu    0.83333   0.88022   0.25000   0.00000  Uiso   1.00
Cu908  Cu    0.83333   0.78645   0.25000   0.00000  Uiso   1.00
H909   H     0.88868   0.87570   0.39327   0.00000  Uiso   1.00
H910   H     0.68391   0.79085   0.45807   0.00000  Uiso   1.00
H911   H     0.99522   0.81021   0.38195   0.00000  Uiso   1.00
H912   H     0.71297   0.80191   0.36331   0.00000  Uiso   1.00
H913   H     0.68376   0.75251   0.38018   0.00000  Uiso   1.00
H914   H     0.97575   0.84948   0.03833   0.00000  Uiso   1.00
H915   H     0.94717   0.83154   0.08512   0.00000  Uiso   1.00
H916   H     0.68482   0.85719   0.10960   0.00000  Uiso   1.00
H917   H     0.67491   0.91344   0.08559   0.00000  Uiso   1.00
H918   H     0.97990   0.89490   0.13212   0.00000  Uiso   1.00
H919   H     0.68777   0.69462   0.02000   0.00000  Uiso   1.00
H920   H     0.78045   0.78743   0.10829   0.00000  Uiso   1.00
H921   H     0.99399   0.94971   0.48048   0.00000  Uiso   1.00
H922   H     0.72600   0.74671   0.20178   0.00000  Uiso   1.00
H923   H     0.73643   0.70010   0.23953   0.00000  Uiso   1.00
H924   H     0.71502   0.97741   0.17997   0.00000  Uiso   1.00
H925   H     0.67844   0.69007   0.17719   0.00000  Uiso   1.00
H926   H     0.71774   0.68796   0.13764   0.00000  Uiso   1.00
H927   H     0.90062   0.90864   0.33001   0.00000  Uiso   1.00
H928   H     0.89637   0.96692   0.35122   0.00000  Uiso   1.00
H929   H     0.97149   0.97755   0.32191   0.00000  Uiso   1.00
H930   H     0.96655   0.94408   0.37097   0.00000  Uiso   1.00
H931   H     0.78244   0.78881   0.38326   0.00000  Uiso   1.00
H932   H     0.97169   0.91519   0.31818   0.00000  Uiso   1.00
H933   H     0.90746   0.76335   0.32040   0.00000  Uiso   1.00
H934   H     0.92841   0.70582   0.31640   0.00000  Uiso   1.00
H935   H     0.91304   0.69563   0.39714   0.00000  Uiso   1.00
H936   H     0.94577   0.74494   0.38994   0.00000  Uiso   1.00
H937   H     0.89175   0.75322   0.39797   0.00000  Uiso   1.00
H938   H     0.83247   0.94474   0.14362   0.00000  Uiso   1.00
H939   H     0.79936   0.99370   0.13529   0.00000  Uiso   1.00
H940   H     0.74270   0.94739   0.10431   0.00000  Uiso   1.00
H941   H     0.78827   0.92903   0.07753   0.00000  Uiso   1.00
H942   H     0.88671   0.87472   0.11754   0.00000  Uiso   1.00
H943   H     0.76766   0.89405   0.12042   0.00000  Uiso   1.00
H944   H     0.70555   0.76545   0.27904   0.00000  Uiso   1.00
H945   H     0.96109   0.90256   0.22249   0.00000  Uiso   1.00
H946   H     0.96415   0.76418   0.27601   0.00000  Uiso   1.00
H947   H     0.70295   0.90251   0.22263   0.00000  Uiso   1.00
H948   H     0.71910   0.83361   0.43891   0.00000  Uiso   1.00
N949   N     0.83333   0.95069   0.25000   0.00000  Uiso   1.00
N950   N     0.83333   0.71598   0.25000   0.00000  Uiso   1.00
O951   O     0.77321   0.87291   0.24999   0.00000  Uiso   1.00
O952   O     0.93064   0.89585   0.05764   0.00000  Uiso   1.00
O953   O     0.75961   0.71001   0.07144   0.00000  Uiso   1.00
O954   O     0.70824   0.77225   0.06809   0.00000  Uiso   1.00
O955   O     0.70759   0.71203   0.00279   0.00000  Uiso   1.00
O956   O     0.96115   0.88029   0.42965   0.00000  Uiso   1.00
O957   O     0.91753   0.94951   0.43402   0.00000  Uiso   1.00
O958   O     0.97254   0.93572   0.49817   0.00000  Uiso   1.00
O959   O     0.78032   0.71413   0.19111   0.00000  Uiso   1.00
O960   O     0.90132   0.95823   0.28205   0.00000  Uiso   1.00
O961   O     0.86423   0.71097   0.32342   0.00000  Uiso   1.00
O962   O     0.89345   0.79375   0.25000   0.00000  Uiso   1.00
O963   O     0.78482   0.94945   0.18742   0.00000  Uiso   1.00
O964   O     0.89345   0.87291   0.25000   0.00000  Uiso   1.00
O965   O     0.77321   0.79375   0.24999   0.00000  Uiso   1.00
O966   O     0.83332   0.87293   0.18513   0.00000  Uiso   1.00
O967   O     0.83334   0.79373   0.31487   0.00000  Uiso   1.00
O968   O     0.83334   0.87293   0.31487   0.00000  Uiso   1.00
O969   O     0.83332   0.79373   0.18513   0.00000  Uiso   1.00
O970   O     0.74054   0.76372   0.44359   0.00000  Uiso   1.00
S971   S     0.73636   0.74318   0.04122   0.00000  Uiso   1.00
S972   S     0.93829   0.91138   0.46024   0.00000  Uiso   1.00
C973   C     0.08747   0.16670   0.75011   0.00000  Uiso   1.00
C974   C     0.04284   0.16701   0.75036   0.00000  Uiso   1.00
C975   C     0.14060   0.02422   0.72063   0.00000  Uiso   1.00
C976   C     0.19511   0.30925   0.77640   0.00000  Uiso   1.00
C977   C     0.19103   0.02527   0.78087   0.00000  Uiso   1.00
C978   C     0.14176   0.30773   0.71958   0.00000  Uiso   1.00
C979   C     0.16597   0.16617   0.66455   0.00000  Uiso   1.00
C980   C     0.16772   0.16698   0.83566   0.00000  Uiso   1.00
C981   C     0.19878   0.19094   0.91016   0.00000  Uiso   1.00
C982   C     0.13713   0.13864   0.59093   0.00000  Uiso   1.00
C983   C     0.16806   0.16719   0.88417   0.00000  Uiso   1.00
C984   C     0.24588   0.16674   0.74981   0.00000  Uiso   1.00
C985   C     0.16660   0.16466   0.61647   0.00000  Uiso   1.00
C986   C     0.13835   0.14148   0.90428   0.00000  Uiso   1.00
C987   C     0.19736   0.18867   0.59654   0.00000  Uiso   1.00
C988   C     0.13746   0.14091   0.95067   0.00000  Uiso   1.00
C989   C     0.19948   0.18695   0.55036   0.00000  Uiso   1.00
C990   C     0.16886   0.16426   0.97723   0.00000  Uiso   1.00
C991   C     0.16832   0.16313   0.52382   0.00000  Uiso   1.00
C992   C     0.20036   0.18931   0.95702   0.00000  Uiso   1.00
C993   C     0.13692   0.13796   0.54411   0.00000  Uiso   1.00
C994   C     0.10546   0.11728   0.97050   0.00000  Uiso   1.00
C995   C     0.10616   0.11344   0.51718   0.00000  Uiso   1.00
C996   C     0.23252   0.20870   0.53074   0.00000  Uiso   1.00
C997   C     0.04208   0.12996   0.93490   0.00000  Uiso   1.00
C998   C     0.02404   0.12312   0.88718   0.00000  Uiso   1.00
C999   C     0.29412   0.19520   0.56870   0.00000  Uiso   1.00
C1000  C     0.32720   0.21653   0.60105   0.00000  Uiso   1.00
C1001  C     0.07243   0.04476   0.70447   0.00000  Uiso   1.00
C1002  C     0.04463   0.01470   0.67272   0.00000  Uiso   1.00
C1003  C     0.24428   0.27804   0.82619   0.00000  Uiso   1.00
C1004  C     0.29123   0.27884   0.83486   0.00000  Uiso   1.00
C1005  C     0.23830   0.06086   0.83204   0.00000  Uiso   1.00
C1006  C     0.23243   0.21166   0.98408   0.00000  Uiso   1.00
C1007  C     0.24779   0.06371   0.88231   0.00000  Uiso   1.00
C1008  C     0.13331   0.29005   0.64478   0.00000  Uiso   1.00
C1009  C     0.10637   0.26338   0.60961   0.00000  Uiso   1.00
C1010  C     0.02213   0.12850   0.76590   0.00000  Uiso   1.00
C1011  C     0.31124   0.20575   0.73463   0.00000  Uiso   1.00
C1012  C     0.31281   0.12804   0.76472   0.00000  Uiso   1.00
C1013  C     0.02066   0.20579   0.73488   0.00000  Uiso   1.00
C1014  C     0.29054   0.16684   0.74962   0.00000  Uiso   1.00
Cu1015 Cu    0.16667   0.21355   0.75000   0.00000  Uiso   1.00
Cu1016 Cu    0.16667   0.11978   0.75000   0.00000  Uiso   1.00
H1017  H     0.22201   0.20904   0.89327   0.00000  Uiso   1.00
H1018  H     0.01724   0.12418   0.95807   0.00000  Uiso   1.00
H1019  H     0.32856   0.14354   0.88195   0.00000  Uiso   1.00
H1020  H     0.04631   0.13524   0.86331   0.00000  Uiso   1.00
H1021  H     0.01709   0.08585   0.88018   0.00000  Uiso   1.00
H1022  H     0.30909   0.18281   0.53833   0.00000  Uiso   1.00
H1023  H     0.28050   0.16488   0.58512   0.00000  Uiso   1.00
H1024  H     0.01815   0.19052   0.60960   0.00000  Uiso   1.00
H1025  H     0.00824   0.24678   0.58559   0.00000  Uiso   1.00
H1026  H     0.31324   0.22823   0.63212   0.00000  Uiso   1.00
H1027  H     0.02110   0.02795   0.52000   0.00000  Uiso   1.00
H1028  H     0.11379   0.12077   0.60829   0.00000  Uiso   1.00
H1029  H     0.32733   0.28305   0.98048   0.00000  Uiso   1.00
H1030  H     0.05933   0.08005   0.70178   0.00000  Uiso   1.00
H1031  H     0.06976   0.03343   0.73953   0.00000  Uiso   1.00
H1032  H     0.04835   0.31074   0.67997   0.00000  Uiso   1.00
H1033  H     0.01177   0.02340   0.67719   0.00000  Uiso   1.00
H1034  H     0.05107   0.02129   0.63764   0.00000  Uiso   1.00
H1035  H     0.23396   0.24197   0.83001   0.00000  Uiso   1.00
H1036  H     0.22971   0.30026   0.85122   0.00000  Uiso   1.00
H1037  H     0.30483   0.31088   0.82191   0.00000  Uiso   1.00
H1038  H     0.29989   0.27741   0.87097   0.00000  Uiso   1.00
H1039  H     0.11578   0.12214   0.88326   0.00000  Uiso   1.00
H1040  H     0.30502   0.24853   0.81818   0.00000  Uiso   1.00
H1041  H     0.24079   0.09668   0.82040   0.00000  Uiso   1.00
H1042  H     0.26174   0.03915   0.81640   0.00000  Uiso   1.00
H1043  H     0.24637   0.02897   0.89714   0.00000  Uiso   1.00
H1044  H     0.27910   0.07827   0.88994   0.00000  Uiso   1.00
H1045  H     0.22508   0.08656   0.89797   0.00000  Uiso   1.00
H1046  H     0.16580   0.27807   0.64362   0.00000  Uiso   1.00
H1047  H     0.13269   0.32703   0.63529   0.00000  Uiso   1.00
H1048  H     0.07604   0.28072   0.60431   0.00000  Uiso   1.00
H1049  H     0.12160   0.26237   0.57753   0.00000  Uiso   1.00
H1050  H     0.22004   0.20806   0.61754   0.00000  Uiso   1.00
H1051  H     0.10099   0.22738   0.62042   0.00000  Uiso   1.00
H1052  H     0.03888   0.09878   0.77904   0.00000  Uiso   1.00
H1053  H     0.29443   0.23589   0.72249   0.00000  Uiso   1.00
H1054  H     0.29748   0.09751   0.77601   0.00000  Uiso   1.00
H1055  H     0.03628   0.23584   0.72263   0.00000  Uiso   1.00
H1056  H     0.05243   0.16695   0.93891   0.00000  Uiso   1.00
N1057  N     0.16667   0.28402   0.75000   0.00000  Uiso   1.00
N1058  N     0.16667   0.04931   0.75000   0.00000  Uiso   1.00
O1059  O     0.10655   0.20625   0.74999   0.00000  Uiso   1.00
O1060  O     0.26398   0.22918   0.55764   0.00000  Uiso   1.00
O1061  O     0.09294   0.04334   0.57144   0.00000  Uiso   1.00
O1062  O     0.04157   0.10558   0.56809   0.00000  Uiso   1.00
O1063  O     0.04092   0.04537   0.50279   0.00000  Uiso   1.00
O1064  O     0.29449   0.21362   0.92965   0.00000  Uiso   1.00
O1065  O     0.25086   0.28284   0.93402   0.00000  Uiso   1.00
O1066  O     0.30587   0.26906   0.99817   0.00000  Uiso   1.00
O1067  O     0.11365   0.04746   0.69111   0.00000  Uiso   1.00
O1068  O     0.23465   0.29156   0.78205   0.00000  Uiso   1.00
O1069  O     0.19756   0.04430   0.82342   0.00000  Uiso   1.00
O1070  O     0.22679   0.12709   0.75000   0.00000  Uiso   1.00
O1071  O     0.11816   0.28278   0.68742   0.00000  Uiso   1.00
O1072  O     0.22679   0.20625   0.75000   0.00000  Uiso   1.00
O1073  O     0.10655   0.12709   0.74999   0.00000  Uiso   1.00
O1074  O     0.16666   0.20627   0.68513   0.00000  Uiso   1.00
O1075  O     0.16668   0.12707   0.81487   0.00000  Uiso   1.00
O1076  O     0.16668   0.20627   0.81487   0.00000  Uiso   1.00
O1077  O     0.16666   0.12707   0.68513   0.00000  Uiso   1.00
O1078  O     0.07387   0.09705   0.94359   0.00000  Uiso   1.00
S1079  S     0.06970   0.07651   0.54122   0.00000  Uiso   1.00
S1080  S     0.27163   0.24472   0.96024   0.00000  Uiso   1.00
C1081  C     0.42080   0.16670   0.75011   0.00000  Uiso   1.00
C1082  C     0.37618   0.16701   0.75036   0.00000  Uiso   1.00
C1083  C     0.47394   0.02422   0.72063   0.00000  Uiso   1.00
C1084  C     0.52844   0.30925   0.77640   0.00000  Uiso   1.00
C1085  C     0.52436   0.02527   0.78087   0.00000  Uiso   1.00
C1086  C     0.47510   0.30773   0.71958   0.00000  Uiso   1.00
C1087  C     0.49930   0.16617   0.66455   0.00000  Uiso   1.00
C1088  C     0.50105   0.16698   0.83566   0.00000  Uiso   1.00
C1089  C     0.53212   0.19094   0.91016   0.00000  Uiso   1.00
C1090  C     0.47046   0.13864   0.59093   0.00000  Uiso   1.00
C1091  C     0.50140   0.16719   0.88417   0.00000  Uiso   1.00
C1092  C     0.57921   0.16674   0.74981   0.00000  Uiso   1.00
C1093  C     0.49993   0.16466   0.61647   0.00000  Uiso   1.00
C1094  C     0.47168   0.14148   0.90428   0.00000  Uiso   1.00
C1095  C     0.53069   0.18867   0.59654   0.00000  Uiso   1.00
C1096  C     0.47079   0.14091   0.95067   0.00000  Uiso   1.00
C1097  C     0.53281   0.18695   0.55036   0.00000  Uiso   1.00
C1098  C     0.50220   0.16426   0.97723   0.00000  Uiso   1.00
C1099  C     0.50166   0.16313   0.52382   0.00000  Uiso   1.00
C1100  C     0.53369   0.18931   0.95702   0.00000  Uiso   1.00
C1101  C     0.47025   0.13796   0.54411   0.00000  Uiso   1.00
C1102  C     0.43879   0.11728   0.97050   0.00000  Uiso   1.00
C1103  C     0.43949   0.11344   0.51718   0.00000  Uiso   1.00
C1104  C     0.56586   0.20870   0.53074   0.00000  Uiso   1.00
C1105  C     0.37542   0.12996   0.93490   0.00000  Uiso   1.00
C1106  C     0.35737   0.12312   0.88718   0.00000  Uiso   1.00
C1107  C     0.62745   0.19520   0.56870   0.00000  Uiso   1.00
C1108  C     0.66053   0.21653   0.60105   0.00000  Uiso   1.00
C1109  C     0.40577   0.04476   0.70447   0.00000  Uiso   1.00
C1110  C     0.37796   0.01470   0.67272   0.00000  Uiso   1.00
C1111  C     0.57762   0.27804   0.82619   0.00000  Uiso   1.00
C1112  C     0.62456   0.27884   0.83486   0.00000  Uiso   1.00
C1113  C     0.57163   0.06086   0.83204   0.00000  Uiso   1.00
C1114  C     0.56577   0.21166   0.98408   0.00000  Uiso   1.00
C1115  C     0.58112   0.06371   0.88231   0.00000  Uiso   1.00
C1116  C     0.46664   0.29005   0.64478   0.00000  Uiso   1.00
C1117  C     0.43971   0.26338   0.60961   0.00000  Uiso   1.00
C1118  C     0.35547   0.12850   0.76590   0.00000  Uiso   1.00
C1119  C     0.64457   0.20575   0.73463   0.00000  Uiso   1.00
C1120  C     0.64614   0.12804   0.76472   0.00000  Uiso   1.00
C1121  C     0.35399   0.20579   0.73488   0.00000  Uiso   1.00
C1122  C     0.62387   0.16684   0.74962   0.00000  Uiso   1.00
Cu1123 Cu    0.50000   0.21355   0.75000   0.00000  Uiso   1.00
Cu1124 Cu    0.50000   0.11978   0.75000   0.00000  Uiso   1.00
H1125  H     0.55534   0.20904   0.89327   0.00000  Uiso   1.00
H1126  H     0.35058   0.12418   0.95807   0.00000  Uiso   1.00
H1127  H     0.66189   0.14354   0.88195   0.00000  Uiso   1.00
H1128  H     0.37964   0.13524   0.86331   0.00000  Uiso   1.00
H1129  H     0.35043   0.08585   0.88018   0.00000  Uiso   1.00
H1130  H     0.64242   0.18281   0.53833   0.00000  Uiso   1.00
H1131  H     0.61384   0.16488   0.58512   0.00000  Uiso   1.00
H1132  H     0.35148   0.19052   0.60960   0.00000  Uiso   1.00
H1133  H     0.34158   0.24678   0.58559   0.00000  Uiso   1.00
H1134  H     0.64657   0.22823   0.63212   0.00000  Uiso   1.00
H1135  H     0.35443   0.02795   0.52000   0.00000  Uiso   1.00
H1136  H     0.44712   0.12077   0.60829   0.00000  Uiso   1.00
H1137  H     0.66066   0.28305   0.98048   0.00000  Uiso   1.00
H1138  H     0.39267   0.08005   0.70178   0.00000  Uiso   1.00
H1139  H     0.40310   0.03343   0.73953   0.00000  Uiso   1.00
H1140  H     0.38168   0.31074   0.67997   0.00000  Uiso   1.00
H1141  H     0.34510   0.02340   0.67719   0.00000  Uiso   1.00
H1142  H     0.38440   0.02129   0.63764   0.00000  Uiso   1.00
H1143  H     0.56729   0.24197   0.83001   0.00000  Uiso   1.00
H1144  H     0.56304   0.30026   0.85122   0.00000  Uiso   1.00
H1145  H     0.63816   0.31088   0.82191   0.00000  Uiso   1.00
H1146  H     0.63322   0.27741   0.87097   0.00000  Uiso   1.00
H1147  H     0.44911   0.12214   0.88326   0.00000  Uiso   1.00
H1148  H     0.63835   0.24853   0.81818   0.00000  Uiso   1.00
H1149  H     0.57413   0.09668   0.82040   0.00000  Uiso   1.00
H1150  H     0.59508   0.03915   0.81640   0.00000  Uiso   1.00
H1151  H     0.57970   0.02897   0.89714   0.00000  Uiso   1.00
H1152  H     0.61243   0.07827   0.88994   0.00000  Uiso   1.00
H1153  H     0.55841   0.08656   0.89797   0.00000  Uiso   1.00
H1154  H     0.49913   0.27807   0.64362   0.00000  Uiso   1.00
H1155  H     0.46603   0.32703   0.63529   0.00000  Uiso   1.00
H1156  H     0.40937   0.28072   0.60431   0.00000  Uiso   1.00
H1157  H     0.45494   0.26237   0.57753   0.00000  Uiso   1.00
H1158  H     0.55337   0.20806   0.61754   0.00000  Uiso   1.00
H1159  H     0.43432   0.22738   0.62042   0.00000  Uiso   1.00
H1160  H     0.37221   0.09878   0.77904   0.00000  Uiso   1.00
H1161  H     0.62776   0.23589   0.72249   0.00000  Uiso   1.00
H1162  H     0.63082   0.09751   0.77601   0.00000  Uiso   1.00
H1163  H     0.36961   0.23584   0.72263   0.00000  Uiso   1.00
H1164  H     0.38576   0.16695   0.93891   0.00000  Uiso   1.00
N1165  N     0.50000   0.28402   0.75000   0.00000  Uiso   1.00
N1166  N     0.50000   0.04931   0.75000   0.00000  Uiso   1.00
O1167  O     0.43988   0.20625   0.74999   0.00000  Uiso   1.00
O1168  O     0.59731   0.22918   0.55764   0.00000  Uiso   1.00
O1169  O     0.42627   0.04334   0.57144   0.00000  Uiso   1.00
O1170  O     0.37491   0.10558   0.56809   0.00000  Uiso   1.00
O1171  O     0.37426   0.04537   0.50279   0.00000  Uiso   1.00
O1172  O     0.62782   0.21362   0.92965   0.00000  Uiso   1.00
O1173  O     0.58420   0.28284   0.93402   0.00000  Uiso   1.00
O1174  O     0.63920   0.26906   0.99817   0.00000  Uiso   1.00
O1175  O     0.44698   0.04746   0.69111   0.00000  Uiso   1.00
O1176  O     0.56799   0.29156   0.78205   0.00000  Uiso   1.00
O1177  O     0.53090   0.04430   0.82342   0.00000  Uiso   1.00
O1178  O     0.56012   0.12709   0.75000   0.00000  Uiso   1.00
O1179  O     0.45149   0.28278   0.68742   0.00000  Uiso   1.00
O1180  O     0.56012   0.20625   0.75000   0.00000  Uiso   1.00
O1181  O     0.43988   0.12709   0.74999   0.00000  Uiso   1.00
O1182  O     0.49999   0.20627   0.68513   0.00000  Uiso   1.00
O1183  O     0.50001   0.12707   0.81487   0.00000  Uiso   1.00
O1184  O     0.50001   0.20627   0.81487   0.00000  Uiso   1.00
O1185  O     0.49999   0.12707   0.68513   0.00000  Uiso   1.00
O1186  O     0.40720   0.09705   0.94359   0.00000  Uiso   1.00
S1187  S     0.40303   0.07651   0.54122   0.00000  Uiso   1.00
S1188  S     0.60496   0.24472   0.96024   0.00000  Uiso   1.00
C1189  C     0.75413   0.16670   0.75011   0.00000  Uiso   1.00
C1190  C     0.70951   0.16701   0.75036   0.00000  Uiso   1.00
C1191  C     0.80727   0.02422   0.72063   0.00000  Uiso   1.00
C1192  C     0.86177   0.30925   0.77640   0.00000  Uiso   1.00
C1193  C     0.85770   0.02527   0.78087   0.00000  Uiso   1.00
C1194  C     0.80843   0.30773   0.71958   0.00000  Uiso   1.00
C1195  C     0.83264   0.16617   0.66455   0.00000  Uiso   1.00
C1196  C     0.83438   0.16698   0.83566   0.00000  Uiso   1.00
C1197  C     0.86545   0.19094   0.91016   0.00000  Uiso   1.00
C1198  C     0.80380   0.13864   0.59093   0.00000  Uiso   1.00
C1199  C     0.83473   0.16719   0.88417   0.00000  Uiso   1.00
C1200  C     0.91255   0.16674   0.74981   0.00000  Uiso   1.00
C1201  C     0.83326   0.16466   0.61647   0.00000  Uiso   1.00
C1202  C     0.80501   0.14148   0.90428   0.00000  Uiso   1.00
C1203  C     0.86403   0.18867   0.59654   0.00000  Uiso   1.00
C1204  C     0.80412   0.14091   0.95067   0.00000  Uiso   1.00
C1205  C     0.86615   0.18695   0.55036   0.00000  Uiso   1.00
C1206  C     0.83553   0.16426   0.97723   0.00000  Uiso   1.00
C1207  C     0.83499   0.16313   0.52382   0.00000  Uiso   1.00
C1208  C     0.86702   0.18931   0.95702   0.00000  Uiso   1.00
C1209  C     0.80358   0.13796   0.54411   0.00000  Uiso   1.00
C1210  C     0.77212   0.11728   0.97050   0.00000  Uiso   1.00
C1211  C     0.77283   0.11344   0.51718   0.00000  Uiso   1.00
C1212  C     0.89919   0.20870   0.53074   0.00000  Uiso   1.00
C1213  C     0.70875   0.12996   0.93490   0.00000  Uiso   1.00
C1214  C     0.69070   0.12312   0.88718   0.00000  Uiso   1.00
C1215  C     0.96079   0.19520   0.56870   0.00000  Uiso   1.00
C1216  C     0.99386   0.21653   0.60105   0.00000  Uiso   1.00
C1217  C     0.73910   0.04476   0.70447   0.00000  Uiso   1.00
C1218  C     0.71129   0.01470   0.67272   0.00000  Uiso   1.00
C1219  C     0.91095   0.27804   0.82619   0.00000  Uiso   1.00
C1220  C     0.95789   0.27884   0.83486   0.00000  Uiso   1.00
C1221  C     0.90497   0.06086   0.83204   0.00000  Uiso   1.00
C1222  C     0.89910   0.21166   0.98408   0.00000  Uiso   1.00
C1223  C     0.91446   0.06371   0.88231   0.00000  Uiso   1.00
C1224  C     0.79998   0.29005   0.64478   0.00000  Uiso   1.00
C1225  C     0.77304   0.26338   0.60961   0.00000  Uiso   1.00
C1226  C     0.68880   0.12850   0.76590   0.00000  Uiso   1.00
C1227  C     0.97790   0.20575   0.73463   0.00000  Uiso   1.00
C1228  C     0.97948   0.12804   0.76472   0.00000  Uiso   1.00
C1229  C     0.68732   0.20579   0.73488   0.00000  Uiso   1.00
C1230  C     0.95720   0.16684   0.74962   0.00000  Uiso   1.00
Cu1231 Cu    0.83333   0.21355   0.75000   0.00000  Uiso   1.00
Cu1232 Cu    0.83333   0.11978   0.75000   0.00000  Uiso   1.00
H1233  H     0.88868   0.20904   0.89327   0.00000  Uiso   1.00
H1234  H     0.68391   0.12418   0.95807   0.00000  Uiso   1.00
H1235  H     0.99522   0.14354   0.88195   0.00000  Uiso   1.00
H1236  H     0.71297   0.13524   0.86331   0.00000  Uiso   1.00
H1237  H     0.68376   0.08585   0.88018   0.00000  Uiso   1.00
H1238  H     0.97575   0.18281   0.53833   0.00000  Uiso   1.00
H1239  H     0.94717   0.16488   0.58512   0.00000  Uiso   1.00
H1240  H     0.68482   0.19052   0.60960   0.00000  Uiso   1.00
H1241  H     0.67491   0.24678   0.58559   0.00000  Uiso   1.00
H1242  H     0.97990   0.22823   0.63212   0.00000  Uiso   1.00
H1243  H     0.68777   0.02795   0.52000   0.00000  Uiso   1.00
H1244  H     0.78045   0.12077   0.60829   0.00000  Uiso   1.00
H1245  H     0.99399   0.28305   0.98048   0.00000  Uiso   1.00
H1246  H     0.72600   0.08005   0.70178   0.00000  Uiso   1.00
H1247  H     0.73643   0.03343   0.73953   0.00000  Uiso   1.00
H1248  H     0.71502   0.31074   0.67997   0.00000  Uiso   1.00
H1249  H     0.67844   0.02340   0.67719   0.00000  Uiso   1.00
H1250  H     0.71774   0.02129   0.63764   0.00000  Uiso   1.00
H1251  H     0.90062   0.24197   0.83001   0.00000  Uiso   1.00
H1252  H     0.89637   0.30026   0.85122   0.00000  Uiso   1.00
H1253  H     0.97149   0.31088   0.82191   0.00000  Uiso   1.00
H1254  H     0.96655   0.27741   0.87097   0.00000  Uiso   1.00
H1255  H     0.78244   0.12214   0.88326   0.00000  Uiso   1.00
H1256  H     0.97169   0.24853   0.81818   0.00000  Uiso   1.00
H1257  H     0.90746   0.09668   0.82040   0.00000  Uiso   1.00
H1258  H     0.92841   0.03915   0.81640   0.00000  Uiso   1.00
H1259  H     0.91304   0.02897   0.89714   0.00000  Uiso   1.00
H1260  H     0.94577   0.07827   0.88994   0.00000  Uiso   1.00
H1261  H     0.89175   0.08656   0.89797   0.00000  Uiso   1.00
H1262  H     0.83247   0.27807   0.64362   0.00000  Uiso   1.00
H1263  H     0.79936   0.32703   0.63529   0.00000  Uiso   1.00
H1264  H     0.74270   0.28072   0.60431   0.00000  Uiso   1.00
H1265  H     0.78827   0.26237   0.57753   0.00000  Uiso   1.00
H1266  H     0.88671   0.20806   0.61754   0.00000  Uiso   1.00
H1267  H     0.76766   0.22738   0.62042   0.00000  Uiso   1.00
H1268  H     0.70555   0.09878   0.77904   0.00000  Uiso   1.00
H1269  H     0.96109   0.23589   0.72249   0.00000  Uiso   1.00
H1270  H     0.96415   0.09751   0.77601   0.00000  Uiso   1.00
H1271  H     0.70295   0.23584   0.72263   0.00000  Uiso   1.00
H1272  H     0.71910   0.16695   0.93891   0.00000  Uiso   1.00
N1273  N     0.83333   0.28402   0.75000   0.00000  Uiso   1.00
N1274  N     0.83333   0.04931   0.75000   0.00000  Uiso   1.00
O1275  O     0.77321   0.20625   0.74999   0.00000  Uiso   1.00
O1276  O     0.93064   0.22918   0.55764   0.00000  Uiso   1.00
O1277  O     0.75961   0.04334   0.57144   0.00000  Uiso   1.00
O1278  O     0.70824   0.10558   0.56809   0.00000  Uiso   1.00
O1279  O     0.70759   0.04537   0.50279   0.00000  Uiso   1.00
O1280  O     0.96115   0.21362   0.92965   0.00000  Uiso   1.00
O1281  O     0.91753   0.28284   0.93402   0.00000  Uiso   1.00
O1282  O     0.97254   0.26906   0.99817   0.00000  Uiso   1.00
O1283  O     0.78032   0.04746   0.69111   0.00000  Uiso   1.00
O1284  O     0.90132   0.29156   0.78205   0.00000  Uiso   1.00
O1285  O     0.86423   0.04430   0.82342   0.00000  Uiso   1.00
O1286  O     0.89345   0.12709   0.75000   0.00000  Uiso   1.00
O1287  O     0.78482   0.28278   0.68742   0.00000  Uiso   1.00
O1288  O     0.89345   0.20625   0.75000   0.00000  Uiso   1.00
O1289  O     0.77321   0.12709   0.74999   0.00000  Uiso   1.00
O1290  O     0.83332   0.20627   0.68513   0.00000  Uiso   1.00
O1291  O     0.83334   0.12707   0.81487   0.00000  Uiso   1.00
O1292  O     0.83334   0.20627   0.81487   0.00000  Uiso   1.00
O1293  O     0.83332   0.12707   0.68513   0.00000  Uiso   1.00
O1294  O     0.74054   0.09705   0.94359   0.00000  Uiso   1.00
S1295  S     0.73636   0.07651   0.54122   0.00000  Uiso   1.00
S1296  S     0.93829   0.24472   0.96024   0.00000  Uiso   1.00
C1297  C     0.08747   0.50003   0.75011   0.00000  Uiso   1.00
C1298  C     0.04284   0.50035   0.75036   0.00000  Uiso   1.00
C1299  C     0.14060   0.35756   0.72063   0.00000  Uiso   1.00
C1300  C     0.19511   0.64259   0.77640   0.00000  Uiso   1.00
C1301  C     0.19103   0.35861   0.78087   0.00000  Uiso   1.00
C1302  C     0.14176   0.64106   0.71958   0.00000  Uiso   1.00
C1303  C     0.16597   0.49950   0.66455   0.00000  Uiso   1.00
C1304  C     0.16772   0.50031   0.83566   0.00000  Uiso   1.00
C1305  C     0.19878   0.52427   0.91016   0.00000  Uiso   1.00
C1306  C     0.13713   0.47197   0.59093   0.00000  Uiso   1.00
C1307  C     0.16806   0.50052   0.88417   0.00000  Uiso   1.00
C1308  C     0.24588   0.50007   0.74981   0.00000  Uiso   1.00
C1309  C     0.16660   0.49800   0.61647   0.00000  Uiso   1.00
C1310  C     0.13835   0.47481   0.90428   0.00000  Uiso   1.00
C1311  C     0.19736   0.52201   0.59654   0.00000  Uiso   1.00
C1312  C     0.13746   0.47425   0.95067   0.00000  Uiso   1.00
C1313  C     0.19948   0.52029   0.55036   0.00000  Uiso   1.00
C1314  C     0.16886   0.49759   0.97723   0.00000  Uiso   1.00
C1315  C     0.16832   0.49646   0.52382   0.00000  Uiso   1.00
C1316  C     0.20036   0.52264   0.95702   0.00000  Uiso   1.00
C1317  C     0.13692   0.47129   0.54411   0.00000  Uiso   1.00
C1318  C     0.10546   0.45061   0.97050   0.00000  Uiso   1.00
C1319  C     0.10616   0.44677   0.51718   0.00000  Uiso   1.00
C1320  C     0.23252   0.54203   0.53074   0.00000  Uiso   1.00
C1321  C     0.04208   0.46330   0.93490   0.00000  Uiso   1.00
C1322  C     0.02404   0.45646   0.88718   0.00000  Uiso   1.00
C1323  C     0.29412   0.52854   0.56870   0.00000  Uiso   1.00
C1324  C     0.32720   0.54986   0.60105   0.00000  Uiso   1.00
C1325  C     0.07243   0.37809   0.70447   0.00000  Uiso   1.00
C1326  C     0.04463   0.34804   0.67272   0.00000  Uiso   1.00
C1327  C     0.24428   0.61138   0.82619   0.00000  Uiso   1.00
C1328  C     0.29123   0.61218   0.83486   0.00000  Uiso   1.00
C1329  C     0.23830   0.39420   0.83204   0.00000  Uiso   1.00
C1330  C     0.23243   0.54499   0.98408   0.00000  Uiso   1.00
C1331  C     0.24779   0.39704   0.88231   0.00000  Uiso   1.00
C1332  C     0.13331   0.62338   0.64478   0.00000  Uiso   1.00
C1333  C     0.10637   0.59671   0.60961   0.00000  Uiso   1.00
C1334  C     0.02213   0.46183   0.76590   0.00000  Uiso   1.00
C1335  C     0.31124   0.53909   0.73463   0.00000  Uiso   1.00
C1336  C     0.31281   0.46138   0.76472   0.00000  Uiso   1.00
C1337  C     0.02066   0.53912   0.73488   0.00000  Uiso   1.00
C1338  C     0.29054   0.50017   0.74962   0.00000  Uiso   1.00
Cu1339 Cu    0.16667   0.54689   0.75000   0.00000  Uiso   1.00
Cu1340 Cu    0.16667   0.45311   0.75000   0.00000  Uiso   1.00
H1341  H     0.22201   0.54237   0.89327   0.00000  Uiso   1.00
H1342  H     0.01724   0.45751   0.95807   0.00000  Uiso   1.00
H1343  H     0.32856   0.47688   0.88195   0.00000  Uiso   1.00
H1344  H     0.04631   0.46857   0.86331   0.00000  Uiso   1.00
H1345  H     0.01709   0.41918   0.88018   0.00000  Uiso   1.00
H1346  H     0.30909   0.51614   0.53833   0.00000  Uiso   1.00
H1347  H     0.28050   0.49821   0.58512   0.00000  Uiso   1.00
H1348  H     0.01815   0.52386   0.60960   0.00000  Uiso   1.00
H1349  H     0.00824   0.58011   0.58559   0.00000  Uiso   1.00
H1350  H     0.31324   0.56156   0.63212   0.00000  Uiso   1.00
H1351  H     0.02110   0.36129   0.52000   0.00000  Uiso   1.00
H1352  H     0.11379   0.45410   0.60829   0.00000  Uiso   1.00
H1353  H     0.32733   0.61638   0.98048   0.00000  Uiso   1.00
H1354  H     0.05933   0.41338   0.70178   0.00000  Uiso   1.00
H1355  H     0.06976   0.36676   0.73953   0.00000  Uiso   1.00
H1356  H     0.04835   0.64408   0.67997   0.00000  Uiso   1.00
H1357  H     0.01177   0.35674   0.67719   0.00000  Uiso   1.00
H1358  H     0.05107   0.35463   0.63764   0.00000  Uiso   1.00
H1359  H     0.23396   0.57530   0.83001   0.00000  Uiso   1.00
H1360  H     0.22971   0.63359   0.85122   0.00000  Uiso   1.00
H1361  H     0.30483   0.64421   0.82191   0.00000  Uiso   1.00
H1362  H     0.29989   0.61074   0.87097   0.00000  Uiso   1.00
H1363  H     0.11578   0.45548   0.88326   0.00000  Uiso   1.00
H1364  H     0.30502   0.58186   0.81818   0.00000  Uiso   1.00
H1365  H     0.24079   0.43002   0.82040   0.00000  Uiso   1.00
H1366  H     0.26174   0.37248   0.81640   0.00000  Uiso   1.00
H1367  H     0.24637   0.36230   0.89714   0.00000  Uiso   1.00
H1368  H     0.27910   0.41161   0.88994   0.00000  Uiso   1.00
H1369  H     0.22508   0.41989   0.89797   0.00000  Uiso   1.00
H1370  H     0.16580   0.61140   0.64362   0.00000  Uiso   1.00
H1371  H     0.13269   0.66037   0.63529   0.00000  Uiso   1.00
H1372  H     0.07604   0.61405   0.60431   0.00000  Uiso   1.00
H1373  H     0.12160   0.59570   0.57753   0.00000  Uiso   1.00
H1374  H     0.22004   0.54139   0.61754   0.00000  Uiso   1.00
H1375  H     0.10099   0.56071   0.62042   0.00000  Uiso   1.00
H1376  H     0.03888   0.43212   0.77904   0.00000  Uiso   1.00
H1377  H     0.29443   0.56923   0.72249   0.00000  Uiso   1.00
H1378  H     0.29748   0.43085   0.77601   0.00000  Uiso   1.00
H1379  H     0.03628   0.56917   0.72263   0.00000  Uiso   1.00
H1380  H     0.05243   0.50028   0.93891   0.00000  Uiso   1.00
N1381  N     0.16667   0.61736   0.75000   0.00000  Uiso   1.00
N1382  N     0.16667   0.38264   0.75000   0.00000  Uiso   1.00
O1383  O     0.10655   0.53958   0.74999   0.00000  Uiso   1.00
O1384  O     0.26398   0.56252   0.55764   0.00000  Uiso   1.00
O1385  O     0.09294   0.37667   0.57144   0.00000  Uiso   1.00
O1386  O     0.04157   0.43892   0.56809   0.00000  Uiso   1.00
O1387  O     0.04092   0.37870   0.50279   0.00000  Uiso   1.00
O1388  O     0.29449   0.54696   0.92965   0.00000  Uiso   1.00
O1389  O     0.25086   0.61618   0.93402   0.00000  Uiso   1.00
O1390  O     0.30587   0.60239   0.99817   0.00000  Uiso   1.00
O1391  O     0.11365   0.38080   0.69111   0.00000  Uiso   1.00
O1392  O     0.23465   0.62489   0.78205   0.00000  Uiso   1.00
O1393  O     0.19756   0.37764   0.82342   0.00000  Uiso   1.00
O1394  O     0.22679   0.46042   0.75000   0.00000  Uiso   1.00
O1395  O     0.11816   0.61612   0.68742   0.00000  Uiso   1.00
O1396  O     0.22679   0.53958   0.75000   0.00000  Uiso   1.00
O1397  O     0.10655   0.46042   0.74999   0.00000  Uiso   1.00
O1398  O     0.16666   0.53960   0.68513   0.00000  Uiso   1.00
O1399  O     0.16668   0.46040   0.81487   0.00000  Uiso   1.00
O1400  O     0.16668   0.53960   0.81487   0.00000  Uiso   1.00
O1401  O     0.16666   0.46040   0.68513   0.00000  Uiso   1.00
O1402  O     0.07387   0.43039   0.94359   0.00000  Uiso   1.00
S1403  S     0.06970   0.40984   0.54122   0.00000  Uiso   1.00
S1404  S     0.27163   0.57805   0.96024   0.00000  Uiso   1.00
C1405  C     0.42080   0.50003   0.75011   0.00000  Uiso   1.00
C1406  C     0.37618   0.50035   0.75036   0.00000  Uiso   1.00
C1407  C     0.47394   0.35756   0.72063   0.00000  Uiso   1.00
C1408  C     0.52844   0.64259   0.77640   0.00000  Uiso   1.00
C1409  C     0.52436   0.35861   0.78087   0.00000  Uiso   1.00
C1410  C     0.47510   0.64106   0.71958   0.00000  Uiso   1.00
C1411  C     0.49930   0.49950   0.66455   0.00000  Uiso   1.00
C1412  C     0.50105   0.50031   0.83566   0.00000  Uiso   1.00
C1413  C     0.53212   0.52427   0.91016   0.00000  Uiso   1.00
C1414  C     0.47046   0.47197   0.59093   0.00000  Uiso   1.00
C1415  C     0.50140   0.50052   0.88417   0.00000  Uiso   1.00
C1416  C     0.57921   0.50007   0.74981   0.00000  Uiso   1.00
C1417  C     0.49993   0.49800   0.61647   0.00000  Uiso   1.00
C1418  C     0.47168   0.47481   0.90428   0.00000  Uiso   1.00
C1419  C     0.53069   0.52201   0.59654   0.00000  Uiso   1.00
C1420  C     0.47079   0.47425   0.95067   0.00000  Uiso   1.00
C1421  C     0.53281   0.52029   0.55036   0.00000  Uiso   1.00
C1422  C     0.50220   0.49759   0.97723   0.00000  Uiso   1.00
C1423  C     0.50166   0.49646   0.52382   0.00000  Uiso   1.00
C1424  C     0.53369   0.52264   0.95702   0.00000  Uiso   1.00
C1425  C     0.47025   0.47129   0.54411   0.00000  Uiso   1.00
C1426  C     0.43879   0.45061   0.97050   0.00000  Uiso   1.00
C1427  C     0.43949   0.44677   0.51718   0.00000  Uiso   1.00
C1428  C     0.56586   0.54203   0.53074   0.00000  Uiso   1.00
C1429  C     0.37542   0.46330   0.93490   0.00000  Uiso   1.00
C1430  C     0.35737   0.45646   0.88718   0.00000  Uiso   1.00
C1431  C     0.62745   0.52854   0.56870   0.00000  Uiso   1.00
C1432  C     0.66053   0.54986   0.60105   0.00000  Uiso   1.00
C1433  C     0.40577   0.37809   0.70447   0.00000  Uiso   1.00
C1434  C     0.37796   0.34804   0.67272   0.00000  Uiso   1.00
C1435  C     0.57762   0.61138   0.82619   0.00000  Uiso   1.00
C1436  C     0.62456   0.61218   0.83486   0.00000  Uiso   1.00
C1437  C     0.57163   0.39420   0.83204   0.00000  Uiso   1.00
C1438  C     0.56577   0.54499   0.98408   0.00000  Uiso   1.00
C1439  C     0.58112   0.39704   0.88231   0.00000  Uiso   1.00
C1440  C     0.46664   0.62338   0.64478   0.00000  Uiso   1.00
C1441  C     0.43971   0.59671   0.60961   0.00000  Uiso   1.00
C1442  C     0.35547   0.46183   0.76590   0.00000  Uiso   1.00
C1443  C     0.64457   0.53909   0.73463   0.00000  Uiso   1.00
C1444  C     0.64614   0.46138   0.76472   0.00000  Uiso   1.00
C1445  C     0.35399   0.53912   0.73488   0.00000  Uiso   1.00
C1446  C     0.62387   0.50017   0.74962   0.00000  Uiso   1.00
Cu1447 Cu    0.50000   0.54689   0.75000   0.00000  Uiso   1.00
Cu1448 Cu    0.50000   0.45311   0.75000   0.00000  Uiso   1.00
H1449  H     0.55534   0.54237   0.89327   0.00000  Uiso   1.00
H1450  H     0.35058   0.45751   0.95807   0.00000  Uiso   1.00
H1451  H     0.66189   0.47688   0.88195   0.00000  Uiso   1.00
H1452  H     0.37964   0.46857   0.86331   0.00000  Uiso   1.00
H1453  H     0.35043   0.41918   0.88018   0.00000  Uiso   1.00
H1454  H     0.64242   0.51614   0.53833   0.00000  Uiso   1.00
H1455  H     0.61384   0.49821   0.58512   0.00000  Uiso   1.00
H1456  H     0.35148   0.52386   0.60960   0.00000  Uiso   1.00
H1457  H     0.34158   0.58011   0.58559   0.00000  Uiso   1.00
H1458  H     0.64657   0.56156   0.63212   0.00000  Uiso   1.00
H1459  H     0.35443   0.36129   0.52000   0.00000  Uiso   1.00
H1460  H     0.44712   0.45410   0.60829   0.00000  Uiso   1.00
H1461  H     0.66066   0.61638   0.98048   0.00000  Uiso   1.00
H1462  H     0.39267   0.41338   0.70178   0.00000  Uiso   1.00
H1463  H     0.40310   0.36676   0.73953   0.00000  Uiso   1.00
H1464  H     0.38168   0.64408   0.67997   0.00000  Uiso   1.00
H1465  H     0.34510   0.35674   0.67719   0.00000  Uiso   1.00
H1466  H     0.38440   0.35463   0.63764   0.00000  Uiso   1.00
H1467  H     0.56729   0.57530   0.83001   0.00000  Uiso   1.00
H1468  H     0.56304   0.63359   0.85122   0.00000  Uiso   1.00
H1469  H     0.63816   0.64421   0.82191   0.00000  Uiso   1.00
H1470  H     0.63322   0.61074   0.87097   0.00000  Uiso   1.00
H1471  H     0.44911   0.45548   0.88326   0.00000  Uiso   1.00
H1472  H     0.63835   0.58186   0.81818   0.00000  Uiso   1.00
H1473  H     0.57413   0.43002   0.82040   0.00000  Uiso   1.00
H1474  H     0.59508   0.37248   0.81640   0.00000  Uiso   1.00
H1475  H     0.57970   0.36230   0.89714   0.00000  Uiso   1.00
H1476  H     0.61243   0.41161   0.88994   0.00000  Uiso   1.00
H1477  H     0.55841   0.41989   0.89797   0.00000  Uiso   1.00
H1478  H     0.49913   0.61140   0.64362   0.00000  Uiso   1.00
H1479  H     0.46603   0.66037   0.63529   0.00000  Uiso   1.00
H1480  H     0.40937   0.61405   0.60431   0.00000  Uiso   1.00
H1481  H     0.45494   0.59570   0.57753   0.00000  Uiso   1.00
H1482  H     0.55337   0.54139   0.61754   0.00000  Uiso   1.00
H1483  H     0.43432   0.56071   0.62042   0.00000  Uiso   1.00
H1484  H     0.37221   0.43212   0.77904   0.00000  Uiso   1.00
H1485  H     0.62776   0.56923   0.72249   0.00000  Uiso   1.00
H1486  H     0.63082   0.43085   0.77601   0.00000  Uiso   1.00
H1487  H     0.36961   0.56917   0.72263   0.00000  Uiso   1.00
H1488  H     0.38576   0.50028   0.93891   0.00000  Uiso   1.00
N1489  N     0.50000   0.61736   0.75000   0.00000  Uiso   1.00
N1490  N     0.50000   0.38264   0.75000   0.00000  Uiso   1.00
O1491  O     0.43988   0.53958   0.74999   0.00000  Uiso   1.00
O1492  O     0.59731   0.56252   0.55764   0.00000  Uiso   1.00
O1493  O     0.42627   0.37667   0.57144   0.00000  Uiso   1.00
O1494  O     0.37491   0.43892   0.56809   0.00000  Uiso   1.00
O1495  O     0.37426   0.37870   0.50279   0.00000  Uiso   1.00
O1496  O     0.62782   0.54696   0.92965   0.00000  Uiso   1.00
O1497  O     0.58420   0.61618   0.93402   0.00000  Uiso   1.00
O1498  O     0.63920   0.60239   0.99817   0.00000  Uiso   1.00
O1499  O     0.44698   0.38080   0.69111   0.00000  Uiso   1.00
O1500  O     0.56799   0.62489   0.78205   0.00000  Uiso   1.00
O1501  O     0.53090   0.37764   0.82342   0.00000  Uiso   1.00
O1502  O     0.56012   0.46042   0.75000   0.00000  Uiso   1.00
O1503  O     0.45149   0.61612   0.68742   0.00000  Uiso   1.00
O1504  O     0.56012   0.53958   0.75000   0.00000  Uiso   1.00
O1505  O     0.43988   0.46042   0.74999   0.00000  Uiso   1.00
O1506  O     0.49999   0.53960   0.68513   0.00000  Uiso   1.00
O1507  O     0.50001   0.46040   0.81487   0.00000  Uiso   1.00
O1508  O     0.50001   0.53960   0.81487   0.00000  Uiso   1.00
O1509  O     0.49999   0.46040   0.68513   0.00000  Uiso   1.00
O1510  O     0.40720   0.43039   0.94359   0.00000  Uiso   1.00
S1511  S     0.40303   0.40984   0.54122   0.00000  Uiso   1.00
S1512  S     0.60496   0.57805   0.96024   0.00000  Uiso   1.00
C1513  C     0.75413   0.50003   0.75011   0.00000  Uiso   1.00
C1514  C     0.70951   0.50035   0.75036   0.00000  Uiso   1.00
C1515  C     0.80727   0.35756   0.72063   0.00000  Uiso   1.00
C1516  C     0.86177   0.64259   0.77640   0.00000  Uiso   1.00
C1517  C     0.85770   0.35861   0.78087   0.00000  Uiso   1.00
C1518  C     0.80843   0.64106   0.71958   0.00000  Uiso   1.00
C1519  C     0.83264   0.49950   0.66455   0.00000  Uiso   1.00
C1520  C     0.83438   0.50031   0.83566   0.00000  Uiso   1.00
C1521  C     0.86545   0.52427   0.91016   0.00000  Uiso   1.00
C1522  C     0.80380   0.47197   0.59093   0.00000  Uiso   1.00
C1523  C     0.83473   0.50052   0.88417   0.00000  Uiso   1.00
C1524  C     0.91255   0.50007   0.74981   0.00000  Uiso   1.00
C1525  C     0.83326   0.49800   0.61647   0.00000  Uiso   1.00
C1526  C     0.80501   0.47481   0.90428   0.00000  Uiso   1.00
C1527  C     0.86403   0.52201   0.59654   0.00000  Uiso   1.00
C1528  C     0.80412   0.47425   0.95067   0.00000  Uiso   1.00
C1529  C     0.86615   0.52029   0.55036   0.00000  Uiso   1.00
C1530  C     0.83553   0.49759   0.97723   0.00000  Uiso   1.00
C1531  C     0.83499   0.49646   0.52382   0.00000  Uiso   1.00
C1532  C     0.86702   0.52264   0.95702   0.00000  Uiso   1.00
C1533  C     0.80358   0.47129   0.54411   0.00000  Uiso   1.00
C1534  C     0.77212   0.45061   0.97050   0.00000  Uiso   1.00
C1535  C     0.77283   0.44677   0.51718   0.00000  Uiso   1.00
C1536  C     0.89919   0.54203   0.53074   0.00000  Uiso   1.00
C1537  C     0.70875   0.46330   0.93490   0.00000  Uiso   1.00
C1538  C     0.69070   0.45646   0.88718   0.00000  Uiso   1.00
C1539  C     0.96079   0.52854   0.56870   0.00000  Uiso   1.00
C1540  C     0.99386   0.54986   0.60105   0.00000  Uiso   1.00
C1541  C     0.73910   0.37809   0.70447   0.00000  Uiso   1.00
C1542  C     0.71129   0.34804   0.67272   0.00000  Uiso   1.00
C1543  C     0.91095   0.61138   0.82619   0.00000  Uiso   1.00
C1544  C     0.95789   0.61218   0.83486   0.00000  Uiso   1.00
C1545  C     0.90497   0.39420   0.83204   0.00000  Uiso   1.00
C1546  C     0.89910   0.54499   0.98408   0.00000  Uiso   1.00
C1547  C     0.91446   0.39704   0.88231   0.00000  Uiso   1.00
C1548  C     0.79998   0.62338   0.64478   0.00000  Uiso   1.00
C1549  C     0.77304   0.59671   0.60961   0.00000  Uiso   1.00
C1550  C     0.68880   0.46183   0.76590   0.00000  Uiso   1.00
C1551  C     0.97790   0.53909   0.73463   0.00000  Uiso   1.00
C1552  C     0.97948   0.46138   0.76472   0.00000  Uiso   1.00
C1553  C     0.68732   0.53912   0.73488   0.00000  Uiso   1.00
C1554  C     0.95720   0.50017   0.74962   0.00000  Uiso   1.00
Cu1555 Cu    0.83333   0.54689   0.75000   0.00000  Uiso   1.00
Cu1556 Cu    0.83333   0.45311   0.75000   0.00000  Uiso   1.00
H1557  H     0.88868   0.54237   0.89327   0.00000  Uiso   1.00
H1558  H     0.68391   0.45751   0.95807   0.00000  Uiso   1.00
H1559  H     0.99522   0.47688   0.88195   0.00000  Uiso   1.00
H1560  H     0.71297   0.46857   0.86331   0.00000  Uiso   1.00
H1561  H     0.68376   0.41918   0.88018   0.00000  Uiso   1.00
H1562  H     0.97575   0.51614   0.53833   0.00000  Uiso   1.00
H1563  H     0.94717   0.49821   0.58512   0.00000  Uiso   1.00
H1564  H     0.68482   0.52386   0.60960   0.00000  Uiso   1.00
H1565  H     0.67491   0.58011   0.58559   0.00000  Uiso   1.00
H1566  H     0.97990   0.56156   0.63212   0.00000  Uiso   1.00
H1567  H     0.68777   0.36129   0.52000   0.00000  Uiso   1.00
H1568  H     0.78045   0.45410   0.60829   0.00000  Uiso   1.00
H1569  H     0.99399   0.61638   0.98048   0.00000  Uiso   1.00
H1570  H     0.72600   0.41338   0.70178   0.00000  Uiso   1.00
H1571  H     0.73643   0.36676   0.73953   0.00000  Uiso   1.00
H1572  H     0.71502   0.64408   0.67997   0.00000  Uiso   1.00
H1573  H     0.67844   0.35674   0.67719   0.00000  Uiso   1.00
H1574  H     0.71774   0.35463   0.63764   0.00000  Uiso   1.00
H1575  H     0.90062   0.57530   0.83001   0.00000  Uiso   1.00
H1576  H     0.89637   0.63359   0.85122   0.00000  Uiso   1.00
H1577  H     0.97149   0.64421   0.82191   0.00000  Uiso   1.00
H1578  H     0.96655   0.61074   0.87097   0.00000  Uiso   1.00
H1579  H     0.78244   0.45548   0.88326   0.00000  Uiso   1.00
H1580  H     0.97169   0.58186   0.81818   0.00000  Uiso   1.00
H1581  H     0.90746   0.43002   0.82040   0.00000  Uiso   1.00
H1582  H     0.92841   0.37248   0.81640   0.00000  Uiso   1.00
H1583  H     0.91304   0.36230   0.89714   0.00000  Uiso   1.00
H1584  H     0.94577   0.41161   0.88994   0.00000  Uiso   1.00
H1585  H     0.89175   0.41989   0.89797   0.00000  Uiso   1.00
H1586  H     0.83247   0.61140   0.64362   0.00000  Uiso   1.00
H1587  H     0.79936   0.66037   0.63529   0.00000  Uiso   1.00
H1588  H     0.74270   0.61405   0.60431   0.00000  Uiso   1.00
H1589  H     0.78827   0.59570   0.57753   0.00000  Uiso   1.00
H1590  H     0.88671   0.54139   0.61754   0.00000  Uiso   1.00
H1591  H     0.76766   0.56071   0.62042   0.00000  Uiso   1.00
H1592  H     0.70555   0.43212   0.77904   0.00000  Uiso   1.00
H1593  H     0.96109   0.56923   0.72249   0.00000  Uiso   1.00
H1594  H     0.96415   0.43085   0.77601   0.00000  Uiso   1.00
H1595  H     0.70295   0.56917   0.72263   0.00000  Uiso   1.00
H1596  H     0.71910   0.50028   0.93891   0.00000  Uiso   1.00
N1597  N     0.83333   0.61736   0.75000   0.00000  Uiso   1.00
N1598  N     0.83333   0.38264   0.75000   0.00000  Uiso   1.00
O1599  O     0.77321   0.53958   0.74999   0.00000  Uiso   1.00
O1600  O     0.93064   0.56252   0.55764   0.00000  Uiso   1.00
O1601  O     0.75961   0.37667   0.57144   0.00000  Uiso   1.00
O1602  O     0.70824   0.43892   0.56809   0.00000  Uiso   1.00
O1603  O     0.70759   0.37870   0.50279   0.00000  Uiso   1.00
O1604  O     0.96115   0.54696   0.92965   0.00000  Uiso   1.00
O1605  O     0.91753   0.61618   0.93402   0.00000  Uiso   1.00
O1606  O     0.97254   0.60239   0.99817   0.00000  Uiso   1.00
O1607  O     0.78032   0.38080   0.69111   0.00000  Uiso   1.00
O1608  O     0.90132   0.62489   0.78205   0.00000  Uiso   1.00
O1609  O     0.86423   0.37764   0.82342   0.00000  Uiso   1.00
O1610  O     0.89345   0.46042   0.75000   0.00000  Uiso   1.00
O1611  O     0.78482   0.61612   0.68742   0.00000  Uiso   1.00
O1612  O     0.89345   0.53958   0.75000   0.00000  Uiso   1.00
O1613  O     0.77321   0.46042   0.74999   0.00000  Uiso   1.00
O1614  O     0.83332   0.53960   0.68513   0.00000  Uiso   1.00
O1615  O     0.83334   0.46040   0.81487   0.00000  Uiso   1.00
O1616  O     0.83334   0.53960   0.81487   0.00000  Uiso   1.00
O1617  O     0.83332   0.46040   0.68513   0.00000  Uiso   1.00
O1618  O     0.74054   0.43039   0.94359   0.00000  Uiso   1.00
S1619  S     0.73636   0.40984   0.54122   0.00000  Uiso   1.00
S1620  S     0.93829   0.57805   0.96024   0.00000  Uiso   1.00
C1621  C     0.08747   0.83336   0.75011   0.00000  Uiso   1.00
C1622  C     0.04284   0.83368   0.75036   0.00000  Uiso   1.00
C1623  C     0.14060   0.69089   0.72063   0.00000  Uiso   1.00
C1624  C     0.19511   0.97592   0.77640   0.00000  Uiso   1.00
C1625  C     0.19103   0.69194   0.78087   0.00000  Uiso   1.00
C1626  C     0.14176   0.97439   0.71958   0.00000  Uiso   1.00
C1627  C     0.16597   0.83283   0.66455   0.00000  Uiso   1.00
C1628  C     0.16772   0.83365   0.83566   0.00000  Uiso   1.00
C1629  C     0.19878   0.85761   0.91016   0.00000  Uiso   1.00
C1630  C     0.13713   0.80531   0.59093   0.00000  Uiso   1.00
C1631  C     0.16806   0.83386   0.88417   0.00000  Uiso   1.00
C1632  C     0.24588   0.83340   0.74981   0.00000  Uiso   1.00
C1633  C     0.16660   0.83133   0.61647   0.00000  Uiso   1.00
C1634  C     0.13835   0.80815   0.90428   0.00000  Uiso   1.00
C1635  C     0.19736   0.85534   0.59654   0.00000  Uiso   1.00
C1636  C     0.13746   0.80758   0.95067   0.00000  Uiso   1.00
C1637  C     0.19948   0.85362   0.55036   0.00000  Uiso   1.00
C1638  C     0.16886   0.83092   0.97723   0.00000  Uiso   1.00
C1639  C     0.16832   0.82979   0.52382   0.00000  Uiso   1.00
C1640  C     0.20036   0.85597   0.95702   0.00000  Uiso   1.00
C1641  C     0.13692   0.80463   0.54411   0.00000  Uiso   1.00
C1642  C     0.10546   0.78394   0.97050   0.00000  Uiso   1.00
C1643  C     0.10616   0.78010   0.51718   0.00000  Uiso   1.00
C1644  C     0.23252   0.87537   0.53074   0.00000  Uiso   1.00
C1645  C     0.04208   0.79663   0.93490   0.00000  Uiso   1.00
C1646  C     0.02404   0.78979   0.88718   0.00000  Uiso   1.00
C1647  C     0.29412   0.86187   0.56870   0.00000  Uiso   1.00
C1648  C     0.32720   0.88320   0.60105   0.00000  Uiso   1.00
C1649  C     0.07243   0.71143   0.70447   0.00000  Uiso   1.00
C1650  C     0.04463   0.68137   0.67272   0.00000  Uiso   1.00
C1651  C     0.24428   0.94471   0.82619   0.00000  Uiso   1.00
C1652  C     0.29123   0.94551   0.83486   0.00000  Uiso   1.00
C1653  C     0.23830   0.72753   0.83204   0.00000  Uiso   1.00
C1654  C     0.23243   0.87833   0.98408   0.00000  Uiso   1.00
C1655  C     0.24779   0.73038   0.88231   0.00000  Uiso   1.00
C1656  C     0.13331   0.95671   0.64478   0.00000  Uiso   1.00
C1657  C     0.10637   0.93004   0.60961   0.00000  Uiso   1.00
C1658  C     0.02213   0.79516   0.76590   0.00000  Uiso   1.00
C1659  C     0.31124   0.87242   0.73463   0.00000  Uiso   1.00
C1660  C     0.31281   0.79471   0.76472   0.00000  Uiso   1.00
C1661  C     0.02066   0.87246   0.73488   0.00000  Uiso   1.00
C1662  C     0.29054   0.83350   0.74962   0.00000  Uiso   1.00
Cu1663 Cu    0.16667   0.88022   0.75000   0.00000  Uiso   1.00
Cu1664 Cu    0.16667   0.78645   0.75000   0.00000  Uiso   1.00
H1665  H     0.22201   0.87570   0.89327   0.00000  Uiso   1.00
H1666  H     0.01724   0.79085   0.95807   0.00000  Uiso   1.00
H1667  H     0.32856   0.81021   0.88195   0.00000  Uiso   1.00
H1668  H     0.04631   0.80191   0.86331   0.00000  Uiso   1.00
H1669  H     0.01709   0.75251   0.88018   0.00000  Uiso   1.00
H1670  H     0.30909   0.84948   0.53833   0.00000  Uiso   1.00
H1671  H     0.28050   0.83154   0.58512   0.00000  Uiso   1.00
H1672  H     0.01815   0.85719   0.60960   0.00000  Uiso   1.00
H1673  H     0.00824   0.91344   0.58559   0.00000  Uiso   1.00
H1674  H     0.31324   0.89490   0.63212   0.00000  Uiso   1.00
H1675  H     0.02110   0.69462   0.52000   0.00000  Uiso   1.00
H1676  H     0.11379   0.78743   0.60829   0.00000  Uiso   1.00
H1677  H     0.32733   0.94971   0.98048   0.00000  Uiso   1.00
H1678  H     0.05933   0.74671   0.70178   0.00000  Uiso   1.00
H1679  H     0.06976   0.70010   0.73953   0.00000  Uiso   1.00
H1680  H     0.04835   0.97741   0.67997   0.00000  Uiso   1.00
H1681  H     0.01177   0.69007   0.67719   0.00000  Uiso   1.00
H1682  H     0.05107   0.68796   0.63764   0.00000  Uiso   1.00
H1683  H     0.23396   0.90864   0.83001   0.00000  Uiso   1.00
H1684  H     0.22971   0.96692   0.85122   0.00000  Uiso   1.00
H1685  H     0.30483   0.97755   0.82191   0.00000  Uiso   1.00
H1686  H     0.29989   0.94408   0.87097   0.00000  Uiso   1.00
H1687  H     0.11578   0.78881   0.88326   0.00000  Uiso   1.00
H1688  H     0.30502   0.91519   0.81818   0.00000  Uiso   1.00
H1689  H     0.24079   0.76335   0.82040   0.00000  Uiso   1.00
H1690  H     0.26174   0.70582   0.81640   0.00000  Uiso   1.00
H1691  H     0.24637   0.69563   0.89714   0.00000  Uiso   1.00
H1692  H     0.27910   0.74494   0.88994   0.00000  Uiso   1.00
H1693  H     0.22508   0.75322   0.89797   0.00000  Uiso   1.00
H1694  H     0.16580   0.94474   0.64362   0.00000  Uiso   1.00
H1695  H     0.13269   0.99370   0.63529   0.00000  Uiso   1.00
H1696  H     0.07604   0.94739   0.60431   0.00000  Uiso   1.00
H1697  H     0.12160   0.92903   0.57753   0.00000  Uiso   1.00
H1698  H     0.22004   0.87472   0.61754   0.00000  Uiso   1.00
H1699  H     0.10099   0.89405   0.62042   0.00000  Uiso   1.00
H1700  H     0.03888   0.76545   0.77904   0.00000  Uiso   1.00
H1701  H     0.29443   0.90256   0.72249   0.00000  Uiso   1.00
H1702  H     0.29748   0.76418   0.77601   0.00000  Uiso   1.00
H1703  H     0.03628   0.90251   0.72263   0.00000  Uiso   1.00
H1704  H     0.05243   0.83361   0.93891   0.00000  Uiso   1.00
N1705  N     0.16667   0.95069   0.75000   0.00000  Uiso   1.00
N1706  N     0.16667   0.71598   0.75000   0.00000  Uiso   1.00
O1707  O     0.10655   0.87291   0.74999   0.00000  Uiso   1.00
O1708  O     0.26398   0.89585   0.55764   0.00000  Uiso   1.00
O1709  O     0.09294   0.71001   0.57144   0.00000  Uiso   1.00
O1710  O     0.04157   0.77225   0.56809   0.00000  Uiso   1.00
O1711  O     0.04092   0.71203   0.50279   0.00000  Uiso   1.00
O1712  O     0.29449   0.88029   0.92965   0.00000  Uiso   1.00
O1713  O     0.25086   0.94951   0.93402   0.00000  Uiso   1.00
O1714  O     0.30587   0.93572   0.99817   0.00000  Uiso   1.00
O1715  O     0.11365   0.71413   0.69111   0.00000  Uiso   1.00
O1716  O     0.23465   0.95823   0.78205   0.00000  Uiso   1.00
O1717  O     0.19756   0.71097   0.82342   0.00000  Uiso   1.00
O1718  O     0.22679   0.79375   0.75000   0.00000  Uiso   1.00
O1719  O     0.11816   0.94945   0.68742   0.00000  Uiso   1.00
O1720  O     0.22679   0.87291   0.75000   0.00000  Uiso   1.00
O1721  O     0.10655   0.79375   0.74999   0.00000  Uiso   1.00
O1722  O     0.16666   0.87293   0.68513   0.00000  Uiso   1.00
O1723  O     0.16668   0.79373   0.81487   0.00000  Uiso   1.00
O1724  O     0.16668   0.87293   0.81487   0.00000  Uiso   1.00
O1725  O     0.16666   0.79373   0.68513   0.00000  Uiso   1.00
O1726  O     0.07387   0.76372   0.94359   0.00000  Uiso   1.00
S1727  S     0.06970   0.74318   0.54122   0.00000  Uiso   1.00
S1728  S     0.27163   0.91138   0.96024   0.00000  Uiso   1.00
C1729  C     0.42080   0.83336   0.75011   0.00000  Uiso   1.00
C1730  C     0.37618   0.83368   0.75036   0.00000  Uiso   1.00
C1731  C     0.47394   0.69089   0.72063   0.00000  Uiso   1.00
C1732  C     0.52844   0.97592   0.77640   0.00000  Uiso   1.00
C1733  C     0.52436   0.69194   0.78087   0.00000  Uiso   1.00
C1734  C     0.47510   0.97439   0.71958   0.00000  Uiso   1.00
C1735  C     0.49930   0.83283   0.66455   0.00000  Uiso   1.00
C1736  C     0.50105   0.83365   0.83566   0.00000  Uiso   1.00
C1737  C     0.53212   0.85761   0.91016   0.00000  Uiso   1.00
C1738  C     0.47046   0.80531   0.59093   0.00000  Uiso   1.00
C1739  C     0.50140   0.83386   0.88417   0.00000  Uiso   1.00
C1740  C     0.57921   0.83340   0.74981   0.00000  Uiso   1.00
C1741  C     0.49993   0.83133   0.61647   0.00000  Uiso   1.00
C1742  C     0.47168   0.80815   0.90428   0.00000  Uiso   1.00
C1743  C     0.53069   0.85534   0.59654   0.00000  Uiso   1.00
C1744  C     0.47079   0.80758   0.95067   0.00000  Uiso   1.00
C1745  C     0.53281   0.85362   0.55036   0.00000  Uiso   1.00
C1746  C     0.50220   0.83092   0.97723   0.00000  Uiso   1.00
C1747  C     0.50166   0.82979   0.52382   0.00000  Uiso   1.00
C1748  C     0.53369   0.85597   0.95702   0.00000  Uiso   1.00
C1749  C     0.47025   0.80463   0.54411   0.00000  Uiso   1.00
C1750  C     0.43879   0.78394   0.97050   0.00000  Uiso   1.00
C1751  C     0.43949   0.78010   0.51718   0.00000  Uiso   1.00
C1752  C     0.56586   0.87537   0.53074   0.00000  Uiso   1.00
C1753  C     0.37542   0.79663   0.93490   0.00000  Uiso   1.00
C1754  C     0.35737   0.78979   0.88718   0.00000  Uiso   1.00
C1755  C     0.62745   0.86187   0.56870   0.00000  Uiso   1.00
C1756  C     0.66053   0.88320   0.60105   0.00000  Uiso   1.00
C1757  C     0.40577   0.71143   0.70447   0.00000  Uiso   1.00
C1758  C     0.37796   0.68137   0.67272   0.00000  Uiso   1.00
C1759  C     0.57762   0.94471   0.82619   0.00000  Uiso   1.00
C1760  C     0.62456   0.94551   0.83486   0.00000  Uiso   1.00
C1761  C     0.57163   0.72753   0.83204   0.00000  Uiso   1.00
C1762  C     0.56577   0.87833   0.98408   0.00000  Uiso   1.00
C1763  C     0.58112   0.73038   0.88231   0.00000  Uiso   1.00
C1764  C     0.46664   0.95671   0.64478   0.00000  Uiso   1.00
C1765  C     0.43971   0.93004   0.60961   0.00000  Uiso   1.00
C1766  C     0.35547   0.79516   0.76590   0.00000  Uiso   1.00
C1767  C     0.64457   0.87242   0.73463   0.00000  Uiso   1.00
C1768  C     0.64614   0.79471   0.76472   0.00000  Uiso   1.00
C1769  C     0.35399   0.87246   0.73488   0.00000  Uiso   1.00
C1770  C     0.62387   0.83350   0.74962   0.00000  Uiso   1.00
Cu1771 Cu    0.50000   0.88022   0.75000   0.00000  Uiso   1.00
Cu1772 Cu    0.50000   0.78645   0.75000   0.00000  Uiso   1.00
H1773  H     0.55534   0.87570   0.89327   0.00000  Uiso   1.00
H1774  H     0.35058   0.79085   0.95807   0.00000  Uiso   1.00
H1775  H     0.66189   0.81021   0.88195   0.00000  Uiso   1.00
H1776  H     0.37964   0.80191   0.86331   0.00000  Uiso   1.00
H1777  H     0.35043   0.75251   0.88018   0.00000  Uiso   1.00
H1778  H     0.64242   0.84948   0.53833   0.00000  Uiso   1.00
H1779  H     0.61384   0.83154   0.58512   0.00000  Uiso   1.00
H1780  H     0.35148   0.85719   0.60960   0.00000  Uiso   1.00
H1781  H     0.34158   0.91344   0.58559   0.00000  Uiso   1.00
H1782  H     0.64657   0.89490   0.63212   0.00000  Uiso   1.00
H1783  H     0.35443   0.69462   0.52000   0.00000  Uiso   1.00
H1784  H     0.44712   0.78743   0.60829   0.00000  Uiso   1.00
H1785  H     0.66066   0.94971   0.98048   0.00000  Uiso   1.00
H1786  H     0.39267   0.74671   0.70178   0.00000  Uiso   1.00
H1787  H     0.40310   0.70010   0.73953   0.00000  Uiso   1.00
H1788  H     0.38168   0.97741   0.67997   0.00000  Uiso   1.00
H1789  H     0.34510   0.69007   0.67719   0.00000  Uiso   1.00
H1790  H     0.38440   0.68796   0.63764   0.00000  Uiso   1.00
H1791  H     0.56729   0.90864   0.83001   0.00000  Uiso   1.00
H1792  H     0.56304   0.96692   0.85122   0.00000  Uiso   1.00
H1793  H     0.63816   0.97755   0.82191   0.00000  Uiso   1.00
H1794  H     0.63322   0.94408   0.87097   0.00000  Uiso   1.00
H1795  H     0.44911   0.78881   0.88326   0.00000  Uiso   1.00
H1796  H     0.63835   0.91519   0.81818   0.00000  Uiso   1.00
H1797  H     0.57413   0.76335   0.82040   0.00000  Uiso   1.00
H1798  H     0.59508   0.70582   0.81640   0.00000  Uiso   1.00
H1799  H     0.57970   0.69563   0.89714   0.00000  Uiso   1.00
H1800  H     0.61243   0.74494   0.88994   0.00000  Uiso   1.00
H1801  H     0.55841   0.75322   0.89797   0.00000  Uiso   1.00
H1802  H     0.49913   0.94474   0.64362   0.00000  Uiso   1.00
H1803  H     0.46603   0.99370   0.63529   0.00000  Uiso   1.00
H1804  H     0.40937   0.94739   0.60431   0.00000  Uiso   1.00
H1805  H     0.45494   0.92903   0.57753   0.00000  Uiso   1.00
H1806  H     0.55337   0.87472   0.61754   0.00000  Uiso   1.00
H1807  H     0.43432   0.89405   0.62042   0.00000  Uiso   1.00
H1808  H     0.37221   0.76545   0.77904   0.00000  Uiso   1.00
H1809  H     0.62776   0.90256   0.72249   0.00000  Uiso   1.00
H1810  H     0.63082   0.76418   0.77601   0.00000  Uiso   1.00
H1811  H     0.36961   0.90251   0.72263   0.00000  Uiso   1.00
H1812  H     0.38576   0.83361   0.93891   0.00000  Uiso   1.00
N1813  N     0.50000   0.95069   0.75000   0.00000  Uiso   1.00
N1814  N     0.50000   0.71598   0.75000   0.00000  Uiso   1.00
O1815  O     0.43988   0.87291   0.74999   0.00000  Uiso   1.00
O1816  O     0.59731   0.89585   0.55764   0.00000  Uiso   1.00
O1817  O     0.42627   0.71001   0.57144   0.00000  Uiso   1.00
O1818  O     0.37491   0.77225   0.56809   0.00000  Uiso   1.00
O1819  O     0.37426   0.71203   0.50279   0.00000  Uiso   1.00
O1820  O     0.62782   0.88029   0.92965   0.00000  Uiso   1.00
O1821  O     0.58420   0.94951   0.93402   0.00000  Uiso   1.00
O1822  O     0.63920   0.93572   0.99817   0.00000  Uiso   1.00
O1823  O     0.44698   0.71413   0.69111   0.00000  Uiso   1.00
O1824  O     0.56799   0.95823   0.78205   0.00000  Uiso   1.00
O1825  O     0.53090   0.71097   0.82342   0.00000  Uiso   1.00
O1826  O     0.56012   0.79375   0.75000   0.00000  Uiso   1.00
O1827  O     0.45149   0.94945   0.68742   0.00000  Uiso   1.00
O1828  O     0.56012   0.87291   0.75000   0.00000  Uiso   1.00
O1829  O     0.43988   0.79375   0.74999   0.00000  Uiso   1.00
O1830  O     0.49999   0.87293   0.68513   0.00000  Uiso   1.00
O1831  O     0.50001   0.79373   0.81487   0.00000  Uiso   1.00
O1832  O     0.50001   0.87293   0.81487   0.00000  Uiso   1.00
O1833  O     0.49999   0.79373   0.68513   0.00000  Uiso   1.00
O1834  O     0.40720   0.76372   0.94359   0.00000  Uiso   1.00
S1835  S     0.40303   0.74318   0.54122   0.00000  Uiso   1.00
S1836  S     0.60496   0.91138   0.96024   0.00000  Uiso   1.00
C1837  C     0.75413   0.83336   0.75011   0.00000  Uiso   1.00
C1838  C     0.70951   0.83368   0.75036   0.00000  Uiso   1.00
C1839  C     0.80727   0.69089   0.72063   0.00000  Uiso   1.00
C1840  C     0.86177   0.97592   0.77640   0.00000  Uiso   1.00
C1841  C     0.85770   0.69194   0.78087   0.00000  Uiso   1.00
C1842  C     0.80843   0.97439   0.71958   0.00000  Uiso   1.00
C1843  C     0.83264   0.83283   0.66455   0.00000  Uiso   1.00
C1844  C     0.83438   0.83365   0.83566   0.00000  Uiso   1.00
C1845  C     0.86545   0.85761   0.91016   0.00000  Uiso   1.00
C1846  C     0.80380   0.80531   0.59093   0.00000  Uiso   1.00
C1847  C     0.83473   0.83386   0.88417   0.00000  Uiso   1.00
C1848  C     0.91255   0.83340   0.74981   0.00000  Uiso   1.00
C1849  C     0.83326   0.83133   0.61647   0.00000  Uiso   1.00
C1850  C     0.80501   0.80815   0.90428   0.00000  Uiso   1.00
C1851  C     0.86403   0.85534   0.59654   0.00000  Uiso   1.00
C1852  C     0.80412   0.80758   0.95067   0.00000  Uiso   1.00
C1853  C     0.86615   0.85362   0.55036   0.00000  Uiso   1.00
C1854  C     0.83553   0.83092   0.97723   0.00000  Uiso   1.00
C1855  C     0.83499   0.82979   0.52382   0.00000  Uiso   1.00
C1856  C     0.86702   0.85597   0.95702   0.00000  Uiso   1.00
C1857  C     0.80358   0.80463   0.54411   0.00000  Uiso   1.00
C1858  C     0.77212   0.78394   0.97050   0.00000  Uiso   1.00
C1859  C     0.77283   0.78010   0.51718   0.00000  Uiso   1.00
C1860  C     0.89919   0.87537   0.53074   0.00000  Uiso   1.00
C1861  C     0.70875   0.79663   0.93490   0.00000  Uiso   1.00
C1862  C     0.69070   0.78979   0.88718   0.00000  Uiso   1.00
C1863  C     0.96079   0.86187   0.56870   0.00000  Uiso   1.00
C1864  C     0.99386   0.88320   0.60105   0.00000  Uiso   1.00
C1865  C     0.73910   0.71143   0.70447   0.00000  Uiso   1.00
C1866  C     0.71129   0.68137   0.67272   0.00000  Uiso   1.00
C1867  C     0.91095   0.94471   0.82619   0.00000  Uiso   1.00
C1868  C     0.95789   0.94551   0.83486   0.00000  Uiso   1.00
C1869  C     0.90497   0.72753   0.83204   0.00000  Uiso   1.00
C1870  C     0.89910   0.87833   0.98408   0.00000  Uiso   1.00
C1871  C     0.91446   0.73038   0.88231   0.00000  Uiso   1.00
C1872  C     0.79998   0.95671   0.64478   0.00000  Uiso   1.00
C1873  C     0.77304   0.93004   0.60961   0.00000  Uiso   1.00
C1874  C     0.68880   0.79516   0.76590   0.00000  Uiso   1.00
C1875  C     0.97790   0.87242   0.73463   0.00000  Uiso   1.00
C1876  C     0.97948   0.79471   0.76472   0.00000  Uiso   1.00
C1877  C     0.68732   0.87246   0.73488   0.00000  Uiso   1.00
C1878  C     0.95720   0.83350   0.74962   0.00000  Uiso   1.00
Cu1879 Cu    0.83333   0.88022   0.75000   0.00000  Uiso   1.00
Cu1880 Cu    0.83333   0.78645   0.75000   0.00000  Uiso   1.00
H1881  H     0.88868   0.87570   0.89327   0.00000  Uiso   1.00
H1882  H     0.68391   0.79085   0.95807   0.00000  Uiso   1.00
H1883  H     0.99522   0.81021   0.88195   0.00000  Uiso   1.00
H1884  H     0.71297   0.80191   0.86331   0.00000  Uiso   1.00
H1885  H     0.68376   0.75251   0.88018   0.00000  Uiso   1.00
H1886  H     0.97575   0.84948   0.53833   0.00000  Uiso   1.00
H1887  H     0.94717   0.83154   0.58512   0.00000  Uiso   1.00
H1888  H     0.68482   0.85719   0.60960   0.00000  Uiso   1.00
H1889  H     0.67491   0.91344   0.58559   0.00000  Uiso   1.00
H1890  H     0.97990   0.89490   0.63212   0.00000  Uiso   1.00
H1891  H     0.68777   0.69462   0.52000   0.00000  Uiso   1.00
H1892  H     0.78045   0.78743   0.60829   0.00000  Uiso   1.00
H1893  H     0.99399   0.94971   0.98048   0.00000  Uiso   1.00
H1894  H     0.72600   0.74671   0.70178   0.00000  Uiso   1.00
H1895  H     0.73643   0.70010   0.73953   0.00000  Uiso   1.00
H1896  H     0.71502   0.97741   0.67997   0.00000  Uiso   1.00
H1897  H     0.67844   0.69007   0.67719   0.00000  Uiso   1.00
H1898  H     0.71774   0.68796   0.63764   0.00000  Uiso   1.00
H1899  H     0.90062   0.90864   0.83001   0.00000  Uiso   1.00
H1900  H     0.89637   0.96692   0.85122   0.00000  Uiso   1.00
H1901  H     0.97149   0.97755   0.82191   0.00000  Uiso   1.00
H1902  H     0.96655   0.94408   0.87097   0.00000  Uiso   1.00
H1903  H     0.78244   0.78881   0.88326   0.00000  Uiso   1.00
H1904  H     0.97169   0.91519   0.81818   0.00000  Uiso   1.00
H1905  H     0.90746   0.76335   0.82040   0.00000  Uiso   1.00
H1906  H     0.92841   0.70582   0.81640   0.00000  Uiso   1.00
H1907  H     0.91304   0.69563   0.89714   0.00000  Uiso   1.00
H1908  H     0.94577   0.74494   0.88994   0.00000  Uiso   1.00
H1909  H     0.89175   0.75322   0.89797   0.00000  Uiso   1.00
H1910  H     0.83247   0.94474   0.64362   0.00000  Uiso   1.00
H1911  H     0.79936   0.99370   0.63529   0.00000  Uiso   1.00
H1912  H     0.74270   0.94739   0.60431   0.00000  Uiso   1.00
H1913  H     0.78827   0.92903   0.57753   0.00000  Uiso   1.00
H1914  H     0.88671   0.87472   0.61754   0.00000  Uiso   1.00
H1915  H     0.76766   0.89405   0.62042   0.00000  Uiso   1.00
H1916  H     0.70555   0.76545   0.77904   0.00000  Uiso   1.00
H1917  H     0.96109   0.90256   0.72249   0.00000  Uiso   1.00
H1918  H     0.96415   0.76418   0.77601   0.00000  Uiso   1.00
H1919  H     0.70295   0.90251   0.72263   0.00000  Uiso   1.00
H1920  H     0.71910   0.83361   0.93891   0.00000  Uiso   1.00
N1921  N     0.83333   0.95069   0.75000   0.00000  Uiso   1.00
N1922  N     0.83333   0.71598   0.75000   0.00000  Uiso   1.00
O1923  O     0.77321   0.87291   0.74999   0.00000  Uiso   1.00
O1924  O     0.93064   0.89585   0.55764   0.00000  Uiso   1.00
O1925  O     0.75961   0.71001   0.57144   0.00000  Uiso   1.00
O1926  O     0.70824   0.77225   0.56809   0.00000  Uiso   1.00
O1927  O     0.70759   0.71203   0.50279   0.00000  Uiso   1.00
O1928  O     0.96115   0.88029   0.92965   0.00000  Uiso   1.00
O1929  O     0.91753   0.94951   0.93402   0.00000  Uiso   1.00
O1930  O     0.97254   0.93572   0.99817   0.00000  Uiso   1.00
O1931  O     0.78032   0.71413   0.69111   0.00000  Uiso   1.00
O1932  O     0.90132   0.95823   0.78205   0.00000  Uiso   1.00
O1933  O     0.86423   0.71097   0.82342   0.00000  Uiso   1.00
O1934  O     0.89345   0.79375   0.75000   0.00000  Uiso   1.00
O1935  O     0.78482   0.94945   0.68742   0.00000  Uiso   1.00
O1936  O     0.89345   0.87291   0.75000   0.00000  Uiso   1.00
O1937  O     0.77321   0.79375   0.74999   0.00000  Uiso   1.00
O1938  O     0.83332   0.87293   0.68513   0.00000  Uiso   1.00
O1939  O     0.83334   0.79373   0.81487   0.00000  Uiso   1.00
O1940  O     0.83334   0.87293   0.81487   0.00000  Uiso   1.00
O1941  O     0.83332   0.79373   0.68513   0.00000  Uiso   1.00
O1942  O     0.74054   0.76372   0.94359   0.00000  Uiso   1.00
S1943  S     0.73636   0.74318   0.54122   0.00000  Uiso   1.00
S1944  S     0.93829   0.91138   0.96024   0.00000  Uiso   1.00
loop_
_geom_bond_atom_site_label_1
_geom_bond_atom_site_label_2
_geom_bond_distance
_geom_bond_site_symmetry_2
_ccdc_geom_bond_type
C1     O87     1.295   .     A
C1     C2      1.447   .     S
C1     O101    1.300   .     A
C2     C41     1.401   .     A
C2     C38     1.397   .     A
C3     N86     1.376   .     A
C3     O95     1.388   .     S
C3     C654    1.436   1_545 S
C4     O96     1.383   .     S
C4     N85     1.375   .     A
C4     C329    1.433   .     S
C5     N86     1.378   .     A
C5     O97     1.386   .     S
C5     C652    1.433   1_545 S
C6     N85     1.374   .     A
C6     O99     1.383   .     S
C6     C327    1.436   .     S
C7     O102    1.300   .     A
C7     O105    1.294   .     A
C7     C13     1.446   .     S
C8     O104    1.302   .     A
C8     C11     1.457   .     S
C8     O103    1.298   .     A
C9     H45     1.073   .     S
C9     C11     1.395   .     A
C9     C20     1.408   .     A
C10    H56     1.080   .     S
C10    C21     1.406   .     A
C10    C13     1.395   .     A
C11    C14     1.388   .     A
C12    C42     1.448   .     S
C12    O98     1.298   .     A
C12    O100    1.298   .     A
C13    C15     1.385   .     A
C14    H67     1.082   .     S
C14    C16     1.397   .     A
C15    H78     1.085   .     S
C15    C17     1.394   .     A
C16    C22     1.408   .     A
C16    C18     1.414   .     A
C17    C24     1.406   .     A
C17    C19     1.414   .     A
C18    C20     1.421   .     A
C18    C991    1.402   .     S
C19    C21     1.422   .     A
C19    C990    1.402   1_554 S
C20    C34     1.424   .     A
C21    C23     1.421   .     A
C22    O106    1.384   .     S
C22    C995    1.408   .     S
C23    S107    1.782   .     S
C23    C994    1.408   1_554 S
C24    O88     1.384   .     S
C24    C1006   1.406   1_554 S
C25    H84     1.118   .     S
C25    O106    1.418   .     S
C25    C26     1.523   .     S
C25    H46     1.111   .     S
C26    H49     1.110   .     S
C26    H48     1.109   .     S
C26    H263    1.110   1_455 S
C27    H50     1.114   .     S
C27    H51     1.114   .     S
C27    O88     1.415   .     S
C27    C28     1.521   .     S
C28    H54     1.111   .     S
C28    H160    1.110   .     S
C28    H161    1.110   .     S
C29    H59     1.117   .     S
C29    O95     1.421   .     S
C29    C30     1.526   .     S
C29    H58     1.106   .     S
C30    H62     1.107   .     S
C30    H61     1.111   .     S
C30    H708    1.106   1_545 S
C31    O96     1.405   .     S
C31    H63     1.101   .     S
C31    C32     1.528   .     S
C31    H64     1.109   .     S
C32    H68     1.109   .     S
C32    H66     1.105   .     S
C32    H65     1.109   .     S
C33    C35     1.523   .     S
C33    H69     1.100   .     S
C33    H70     1.108   .     S
C33    O97     1.409   .     S
C34    S108    1.779   .     S
C34    C996    1.406   .     S
C35    H71     1.105   .     S
C35    H72     1.106   .     S
C35    H73     1.110   .     S
C36    C37     1.523   .     S
C36    H75     1.108   .     S
C36    H74     1.112   .     S
C36    O99     1.420   .     S
C37    H79     1.109   .     S
C37    H77     1.111   .     S
C37    H76     1.109   .     S
C38    H80     1.083   .     S
C38    C256    1.381   1_455 S
C39    C42     1.400   .     A
C39    H81     1.083   .     S
C39    C149    1.385   .     S
C40    C42     1.400   .     A
C40    H82     1.079   .     S
C40    C146    1.381   .     S
C41    H83     1.083   .     S
C41    C255    1.385   1_455 S
Cu43   O104    1.964   .     S
Cu43   N85     2.030   .     S
Cu43   O100    1.961   .     S
Cu43   Cu44    2.702   .     S
Cu43   O87     1.959   .     S
Cu43   O102    1.957   .     S
Cu44   O105    1.964   .     S
Cu44   O98     1.959   .     S
Cu44   N86     2.030   .     S
Cu44   O103    1.957   .     S
Cu44   O101    1.961   .     S
H47    C134    1.110   .     S
H52    C244    1.110   1_455 S
H53    C244    1.110   1_455 S
H55    O91     0.991   .     S
H57    O94     0.991   .     S
H60    C354    1.106   .     S
O89    S107    1.502   .     D
O90    S107    1.503   .     D
O91    S107    1.682   .     S
O92    S108    1.503   .     D
O93    S108    1.500   .     D
O94    S108    1.682   .     S
C109   O195    1.295   .     A
C109   C110    1.447   .     S
C109   O209    1.300   .     A
C110   C149    1.401   .     A
C110   C146    1.397   .     A
C111   N194    1.376   .     A
C111   O203    1.388   .     S
C111   C762    1.436   1_545 S
C112   O204    1.383   .     S
C112   N193    1.375   .     A
C112   C437    1.433   .     S
C113   N194    1.378   .     A
C113   O205    1.386   .     S
C113   C760    1.433   1_545 S
C114   N193    1.374   .     A
C114   O207    1.383   .     S
C114   C435    1.436   .     S
C115   O210    1.300   .     A
C115   O213    1.294   .     A
C115   C121    1.446   .     S
C116   O212    1.302   .     A
C116   C119    1.457   .     S
C116   O211    1.298   .     A
C117   H153    1.073   .     S
C117   C119    1.395   .     A
C117   C128    1.408   .     A
C118   H164    1.080   .     S
C118   C129    1.406   .     A
C118   C121    1.395   .     A
C119   C122    1.388   .     A
C120   C150    1.448   .     S
C120   O206    1.298   .     A
C120   O208    1.298   .     A
C121   C123    1.385   .     A
C122   H175    1.082   .     S
C122   C124    1.397   .     A
C123   H186    1.085   .     S
C123   C125    1.394   .     A
C124   C130    1.408   .     A
C124   C126    1.414   .     A
C125   C132    1.406   .     A
C125   C127    1.414   .     A
C126   C128    1.421   .     A
C126   C1099   1.402   .     S
C127   C129    1.422   .     A
C127   C1098   1.402   1_554 S
C128   C142    1.424   .     A
C129   C131    1.421   .     A
C130   O214    1.384   .     S
C130   C1103   1.408   .     S
C131   S215    1.782   .     S
C131   C1102   1.408   1_554 S
C132   O196    1.384   .     S
C132   C1114   1.406   1_554 S
C133   H192    1.118   .     S
C133   O214    1.418   .     S
C133   C134    1.523   .     S
C133   H154    1.111   .     S
C134   H157    1.110   .     S
C134   H156    1.109   .     S
C135   H158    1.114   .     S
C135   H159    1.114   .     S
C135   O196    1.415   .     S
C135   C136    1.521   .     S
C136   H162    1.111   .     S
C136   H268    1.110   .     S
C136   H269    1.110   .     S
C137   H167    1.117   .     S
C137   O203    1.421   .     S
C137   C138    1.526   .     S
C137   H166    1.106   .     S
C138   H170    1.107   .     S
C138   H169    1.111   .     S
C138   H816    1.106   1_545 S
C139   O204    1.405   .     S
C139   H171    1.101   .     S
C139   C140    1.528   .     S
C139   H172    1.109   .     S
C140   H176    1.109   .     S
C140   H174    1.105   .     S
C140   H173    1.109   .     S
C141   C143    1.523   .     S
C141   H177    1.100   .     S
C141   H178    1.108   .     S
C141   O205    1.409   .     S
C142   S216    1.779   .     S
C142   C1104   1.406   .     S
C143   H179    1.105   .     S
C143   H180    1.106   .     S
C143   H181    1.110   .     S
C144   C145    1.523   .     S
C144   H183    1.108   .     S
C144   H182    1.112   .     S
C144   O207    1.420   .     S
C145   H187    1.109   .     S
C145   H185    1.111   .     S
C145   H184    1.109   .     S
C146   H188    1.083   .     S
C147   C150    1.400   .     A
C147   H189    1.083   .     S
C147   C257    1.385   .     S
C148   C150    1.400   .     A
C148   H190    1.079   .     S
C148   C254    1.381   .     S
C149   H191    1.083   .     S
Cu151  O212    1.964   .     S
Cu151  N193    2.030   .     S
Cu151  O208    1.961   .     S
Cu151  Cu152   2.702   .     S
Cu151  O195    1.959   .     S
Cu151  O210    1.957   .     S
Cu152  O213    1.964   .     S
Cu152  O206    1.959   .     S
Cu152  N194    2.030   .     S
Cu152  O211    1.957   .     S
Cu152  O209    1.961   .     S
H155   C242    1.110   .     S
H163   O199    0.991   .     S
H165   O202    0.991   .     S
H168   C462    1.106   .     S
O197   S215    1.502   .     D
O198   S215    1.503   .     D
O199   S215    1.682   .     S
O200   S216    1.503   .     D
O201   S216    1.500   .     D
O202   S216    1.682   .     S
C217   O303    1.295   .     A
C217   C218    1.447   .     S
C217   O317    1.300   .     A
C218   C257    1.401   .     A
C218   C254    1.397   .     A
C219   N302    1.376   .     A
C219   O311    1.388   .     S
C219   C870    1.436   1_545 S
C220   O312    1.383   .     S
C220   N301    1.375   .     A
C220   C545    1.433   .     S
C221   N302    1.378   .     A
C221   O313    1.386   .     S
C221   C868    1.433   1_545 S
C222   N301    1.374   .     A
C222   O315    1.383   .     S
C222   C543    1.436   .     S
C223   O318    1.300   .     A
C223   O321    1.294   .     A
C223   C229    1.446   .     S
C224   O320    1.302   .     A
C224   C227    1.457   .     S
C224   O319    1.298   .     A
C225   H261    1.073   .     S
C225   C227    1.395   .     A
C225   C236    1.408   .     A
C226   H272    1.080   .     S
C226   C237    1.406   .     A
C226   C229    1.395   .     A
C227   C230    1.388   .     A
C228   C258    1.448   .     S
C228   O314    1.298   .     A
C228   O316    1.298   .     A
C229   C231    1.385   .     A
C230   H283    1.082   .     S
C230   C232    1.397   .     A
C231   H294    1.085   .     S
C231   C233    1.394   .     A
C232   C238    1.408   .     A
C232   C234    1.414   .     A
C233   C240    1.406   .     A
C233   C235    1.414   .     A
C234   C236    1.421   .     A
C234   C1207   1.402   .     S
C235   C237    1.422   .     A
C235   C1206   1.402   1_554 S
C236   C250    1.424   .     A
C237   C239    1.421   .     A
C238   O322    1.384   .     S
C238   C1211   1.408   .     S
C239   S323    1.782   .     S
C239   C1210   1.408   1_554 S
C240   O304    1.384   .     S
C240   C1222   1.406   1_554 S
C241   H300    1.118   .     S
C241   O322    1.418   .     S
C241   C242    1.523   .     S
C241   H262    1.111   .     S
C242   H265    1.110   .     S
C242   H264    1.109   .     S
C243   H266    1.114   .     S
C243   H267    1.114   .     S
C243   O304    1.415   .     S
C243   C244    1.521   .     S
C244   H270    1.111   .     S
C244   H52     1.110   1_655 S
C244   H53     1.110   1_655 S
C245   H275    1.117   .     S
C245   O311    1.421   .     S
C245   C246    1.526   .     S
C245   H274    1.106   .     S
C246   H278    1.107   .     S
C246   H277    1.111   .     S
C246   H924    1.106   1_545 S
C247   O312    1.405   .     S
C247   H279    1.101   .     S
C247   C248    1.528   .     S
C247   H280    1.109   .     S
C248   H284    1.109   .     S
C248   H282    1.105   .     S
C248   H281    1.109   .     S
C249   C251    1.523   .     S
C249   H285    1.100   .     S
C249   H286    1.108   .     S
C249   O313    1.409   .     S
C250   S324    1.779   .     S
C250   C1212   1.406   .     S
C251   H287    1.105   .     S
C251   H288    1.106   .     S
C251   H289    1.110   .     S
C252   C253    1.523   .     S
C252   H291    1.108   .     S
C252   H290    1.112   .     S
C252   O315    1.420   .     S
C253   H295    1.109   .     S
C253   H293    1.111   .     S
C253   H292    1.109   .     S
C254   H296    1.083   .     S
C255   C258    1.400   .     A
C255   H297    1.083   .     S
C255   C41     1.385   1_655 S
C256   C258    1.400   .     A
C256   H298    1.079   .     S
C256   C38     1.381   1_655 S
C257   H299    1.083   .     S
Cu259  O320    1.964   .     S
Cu259  N301    2.030   .     S
Cu259  O316    1.961   .     S
Cu259  Cu260   2.702   .     S
Cu259  O303    1.959   .     S
Cu259  O318    1.957   .     S
Cu260  O321    1.964   .     S
Cu260  O314    1.959   .     S
Cu260  N302    2.030   .     S
Cu260  O319    1.957   .     S
Cu260  O317    1.961   .     S
H263   C26     1.110   1_655 S
H271   O307    0.991   .     S
H273   O310    0.991   .     S
H276   C570    1.106   .     S
O305   S323    1.502   .     D
O306   S323    1.503   .     D
O307   S323    1.682   .     S
O308   S324    1.503   .     D
O309   S324    1.500   .     D
O310   S324    1.682   .     S
C325   O411    1.295   .     A
C325   C326    1.447   .     S
C325   O425    1.300   .     A
C326   C365    1.401   .     A
C326   C362    1.397   .     A
C327   N410    1.376   .     A
C327   O419    1.388   .     S
C328   O420    1.383   .     S
C328   N409    1.375   .     A
C328   C653    1.433   .     S
C329   N410    1.378   .     A
C329   O421    1.386   .     S
C330   N409    1.374   .     A
C330   O423    1.383   .     S
C330   C651    1.436   .     S
C331   O426    1.300   .     A
C331   O429    1.294   .     A
C331   C337    1.446   .     S
C332   O428    1.302   .     A
C332   C335    1.457   .     S
C332   O427    1.298   .     A
C333   H369    1.073   .     S
C333   C335    1.395   .     A
C333   C344    1.408   .     A
C334   H380    1.080   .     S
C334   C345    1.406   .     A
C334   C337    1.395   .     A
C335   C338    1.388   .     A
C336   C366    1.448   .     S
C336   O422    1.298   .     A
C336   O424    1.298   .     A
C337   C339    1.385   .     A
C338   H391    1.082   .     S
C338   C340    1.397   .     A
C339   H402    1.085   .     S
C339   C341    1.394   .     A
C340   C346    1.408   .     A
C340   C342    1.414   .     A
C341   C348    1.406   .     A
C341   C343    1.414   .     A
C342   C344    1.421   .     A
C342   C1315   1.402   .     S
C343   C345    1.422   .     A
C343   C1314   1.402   1_554 S
C344   C358    1.424   .     A
C345   C347    1.421   .     A
C346   O430    1.384   .     S
C346   C1319   1.408   .     S
C347   S431    1.782   .     S
C347   C1318   1.408   1_554 S
C348   O412    1.384   .     S
C348   C1330   1.406   1_554 S
C349   H408    1.118   .     S
C349   O430    1.418   .     S
C349   C350    1.523   .     S
C349   H370    1.111   .     S
C350   H373    1.110   .     S
C350   H372    1.109   .     S
C350   H587    1.110   1_455 S
C351   H374    1.114   .     S
C351   H375    1.114   .     S
C351   O412    1.415   .     S
C351   C352    1.521   .     S
C352   H378    1.111   .     S
C352   H484    1.110   .     S
C352   H485    1.110   .     S
C353   H383    1.117   .     S
C353   O419    1.421   .     S
C353   C354    1.526   .     S
C353   H382    1.106   .     S
C354   H386    1.107   .     S
C354   H385    1.111   .     S
C355   O420    1.405   .     S
C355   H387    1.101   .     S
C355   C356    1.528   .     S
C355   H388    1.109   .     S
C356   H392    1.109   .     S
C356   H390    1.105   .     S
C356   H389    1.109   .     S
C357   C359    1.523   .     S
C357   H393    1.100   .     S
C357   H394    1.108   .     S
C357   O421    1.409   .     S
C358   S432    1.779   .     S
C358   C1320   1.406   .     S
C359   H395    1.105   .     S
C359   H396    1.106   .     S
C359   H397    1.110   .     S
C360   C361    1.523   .     S
C360   H399    1.108   .     S
C360   H398    1.112   .     S
C360   O423    1.420   .     S
C361   H403    1.109   .     S
C361   H401    1.111   .     S
C361   H400    1.109   .     S
C362   H404    1.083   .     S
C362   C580    1.381   1_455 S
C363   C366    1.400   .     A
C363   H405    1.083   .     S
C363   C473    1.385   .     S
C364   C366    1.400   .     A
C364   H406    1.079   .     S
C364   C470    1.381   .     S
C365   H407    1.083   .     S
C365   C579    1.385   1_455 S
Cu367  O428    1.964   .     S
Cu367  N409    2.030   .     S
Cu367  O424    1.961   .     S
Cu367  Cu368   2.702   .     S
Cu367  O411    1.959   .     S
Cu367  O426    1.957   .     S
Cu368  O429    1.964   .     S
Cu368  O422    1.959   .     S
Cu368  N410    2.030   .     S
Cu368  O427    1.957   .     S
Cu368  O425    1.961   .     S
H371   C458    1.110   .     S
H376   C568    1.110   1_455 S
H377   C568    1.110   1_455 S
H379   O415    0.991   .     S
H381   O418    0.991   .     S
H384   C678    1.106   .     S
O413   S431    1.502   .     D
O414   S431    1.503   .     D
O415   S431    1.682   .     S
O416   S432    1.503   .     D
O417   S432    1.500   .     D
O418   S432    1.682   .     S
C433   O519    1.295   .     A
C433   C434    1.447   .     S
C433   O533    1.300   .     A
C434   C473    1.401   .     A
C434   C470    1.397   .     A
C435   N518    1.376   .     A
C435   O527    1.388   .     S
C436   O528    1.383   .     S
C436   N517    1.375   .     A
C436   C761    1.433   .     S
C437   N518    1.378   .     A
C437   O529    1.386   .     S
C438   N517    1.374   .     A
C438   O531    1.383   .     S
C438   C759    1.436   .     S
C439   O534    1.300   .     A
C439   O537    1.294   .     A
C439   C445    1.446   .     S
C440   O536    1.302   .     A
C440   C443    1.457   .     S
C440   O535    1.298   .     A
C441   H477    1.073   .     S
C441   C443    1.395   .     A
C441   C452    1.408   .     A
C442   H488    1.080   .     S
C442   C453    1.406   .     A
C442   C445    1.395   .     A
C443   C446    1.388   .     A
C444   C474    1.448   .     S
C444   O530    1.298   .     A
C444   O532    1.298   .     A
C445   C447    1.385   .     A
C446   H499    1.082   .     S
C446   C448    1.397   .     A
C447   H510    1.085   .     S
C447   C449    1.394   .     A
C448   C454    1.408   .     A
C448   C450    1.414   .     A
C449   C456    1.406   .     A
C449   C451    1.414   .     A
C450   C452    1.421   .     A
C450   C1423   1.402   .     S
C451   C453    1.422   .     A
C451   C1422   1.402   1_554 S
C452   C466    1.424   .     A
C453   C455    1.421   .     A
C454   O538    1.384   .     S
C454   C1427   1.408   .     S
C455   S539    1.782   .     S
C455   C1426   1.408   1_554 S
C456   O520    1.384   .     S
C456   C1438   1.406   1_554 S
C457   H516    1.118   .     S
C457   O538    1.418   .     S
C457   C458    1.523   .     S
C457   H478    1.111   .     S
C458   H481    1.110   .     S
C458   H480    1.109   .     S
C459   H482    1.114   .     S
C459   H483    1.114   .     S
C459   O520    1.415   .     S
C459   C460    1.521   .     S
C460   H486    1.111   .     S
C460   H592    1.110   .     S
C460   H593    1.110   .     S
C461   H491    1.117   .     S
C461   O527    1.421   .     S
C461   C462    1.526   .     S
C461   H490    1.106   .     S
C462   H494    1.107   .     S
C462   H493    1.111   .     S
C463   O528    1.405   .     S
C463   H495    1.101   .     S
C463   C464    1.528   .     S
C463   H496    1.109   .     S
C464   H500    1.109   .     S
C464   H498    1.105   .     S
C464   H497    1.109   .     S
C465   C467    1.523   .     S
C465   H501    1.100   .     S
C465   H502    1.108   .     S
C465   O529    1.409   .     S
C466   S540    1.779   .     S
C466   C1428   1.406   .     S
C467   H503    1.105   .     S
C467   H504    1.106   .     S
C467   H505    1.110   .     S
C468   C469    1.523   .     S
C468   H507    1.108   .     S
C468   H506    1.112   .     S
C468   O531    1.420   .     S
C469   H511    1.109   .     S
C469   H509    1.111   .     S
C469   H508    1.109   .     S
C470   H512    1.083   .     S
C471   C474    1.400   .     A
C471   H513    1.083   .     S
C471   C581    1.385   .     S
C472   C474    1.400   .     A
C472   H514    1.079   .     S
C472   C578    1.381   .     S
C473   H515    1.083   .     S
Cu475  O536    1.964   .     S
Cu475  N517    2.030   .     S
Cu475  O532    1.961   .     S
Cu475  Cu476   2.702   .     S
Cu475  O519    1.959   .     S
Cu475  O534    1.957   .     S
Cu476  O537    1.964   .     S
Cu476  O530    1.959   .     S
Cu476  N518    2.030   .     S
Cu476  O535    1.957   .     S
Cu476  O533    1.961   .     S
H479   C566    1.110   .     S
H487   O523    0.991   .     S
H489   O526    0.991   .     S
H492   C786    1.106   .     S
O521   S539    1.502   .     D
O522   S539    1.503   .     D
O523   S539    1.682   .     S
O524   S540    1.503   .     D
O525   S540    1.500   .     D
O526   S540    1.682   .     S
C541   O627    1.295   .     A
C541   C542    1.447   .     S
C541   O641    1.300   .     A
C542   C581    1.401   .     A
C542   C578    1.397   .     A
C543   N626    1.376   .     A
C543   O635    1.388   .     S
C544   O636    1.383   .     S
C544   N625    1.375   .     A
C544   C869    1.433   .     S
C545   N626    1.378   .     A
C545   O637    1.386   .     S
C546   N625    1.374   .     A
C546   O639    1.383   .     S
C546   C867    1.436   .     S
C547   O642    1.300   .     A
C547   O645    1.294   .     A
C547   C553    1.446   .     S
C548   O644    1.302   .     A
C548   C551    1.457   .     S
C548   O643    1.298   .     A
C549   H585    1.073   .     S
C549   C551    1.395   .     A
C549   C560    1.408   .     A
C550   H596    1.080   .     S
C550   C561    1.406   .     A
C550   C553    1.395   .     A
C551   C554    1.388   .     A
C552   C582    1.448   .     S
C552   O638    1.298   .     A
C552   O640    1.298   .     A
C553   C555    1.385   .     A
C554   H607    1.082   .     S
C554   C556    1.397   .     A
C555   H618    1.085   .     S
C555   C557    1.394   .     A
C556   C562    1.408   .     A
C556   C558    1.414   .     A
C557   C564    1.406   .     A
C557   C559    1.414   .     A
C558   C560    1.421   .     A
C558   C1531   1.402   .     S
C559   C561    1.422   .     A
C559   C1530   1.402   1_554 S
C560   C574    1.424   .     A
C561   C563    1.421   .     A
C562   O646    1.384   .     S
C562   C1535   1.408   .     S
C563   S647    1.782   .     S
C563   C1534   1.408   1_554 S
C564   O628    1.384   .     S
C564   C1546   1.406   1_554 S
C565   H624    1.118   .     S
C565   O646    1.418   .     S
C565   C566    1.523   .     S
C565   H586    1.111   .     S
C566   H589    1.110   .     S
C566   H588    1.109   .     S
C567   H590    1.114   .     S
C567   H591    1.114   .     S
C567   O628    1.415   .     S
C567   C568    1.521   .     S
C568   H594    1.111   .     S
C568   H376    1.110   1_655 S
C568   H377    1.110   1_655 S
C569   H599    1.117   .     S
C569   O635    1.421   .     S
C569   C570    1.526   .     S
C569   H598    1.106   .     S
C570   H602    1.107   .     S
C570   H601    1.111   .     S
C571   O636    1.405   .     S
C571   H603    1.101   .     S
C571   C572    1.528   .     S
C571   H604    1.109   .     S
C572   H608    1.109   .     S
C572   H606    1.105   .     S
C572   H605    1.109   .     S
C573   C575    1.523   .     S
C573   H609    1.100   .     S
C573   H610    1.108   .     S
C573   O637    1.409   .     S
C574   S648    1.779   .     S
C574   C1536   1.406   .     S
C575   H611    1.105   .     S
C575   H612    1.106   .     S
C575   H613    1.110   .     S
C576   C577    1.523   .     S
C576   H615    1.108   .     S
C576   H614    1.112   .     S
C576   O639    1.420   .     S
C577   H619    1.109   .     S
C577   H617    1.111   .     S
C577   H616    1.109   .     S
C578   H620    1.083   .     S
C579   C582    1.400   .     A
C579   H621    1.083   .     S
C579   C365    1.385   1_655 S
C580   C582    1.400   .     A
C580   H622    1.079   .     S
C580   C362    1.381   1_655 S
C581   H623    1.083   .     S
Cu583  O644    1.964   .     S
Cu583  N625    2.030   .     S
Cu583  O640    1.961   .     S
Cu583  Cu584   2.702   .     S
Cu583  O627    1.959   .     S
Cu583  O642    1.957   .     S
Cu584  O645    1.964   .     S
Cu584  O638    1.959   .     S
Cu584  N626    2.030   .     S
Cu584  O643    1.957   .     S
Cu584  O641    1.961   .     S
H587   C350    1.110   1_655 S
H595   O631    0.991   .     S
H597   O634    0.991   .     S
H600   C894    1.106   .     S
O629   S647    1.502   .     D
O630   S647    1.503   .     D
O631   S647    1.682   .     S
O632   S648    1.503   .     D
O633   S648    1.500   .     D
O634   S648    1.682   .     S
C649   O735    1.295   .     A
C649   C650    1.447   .     S
C649   O749    1.300   .     A
C650   C689    1.401   .     A
C650   C686    1.397   .     A
C651   N734    1.376   .     A
C651   O743    1.388   .     S
C652   O744    1.383   .     S
C652   N733    1.375   .     A
C652   C5      1.433   1_565 S
C653   N734    1.378   .     A
C653   O745    1.386   .     S
C654   N733    1.374   .     A
C654   O747    1.383   .     S
C654   C3      1.436   1_565 S
C655   O750    1.300   .     A
C655   O753    1.294   .     A
C655   C661    1.446   .     S
C656   O752    1.302   .     A
C656   C659    1.457   .     S
C656   O751    1.298   .     A
C657   H693    1.073   .     S
C657   C659    1.395   .     A
C657   C668    1.408   .     A
C658   H704    1.080   .     S
C658   C669    1.406   .     A
C658   C661    1.395   .     A
C659   C662    1.388   .     A
C660   C690    1.448   .     S
C660   O746    1.298   .     A
C660   O748    1.298   .     A
C661   C663    1.385   .     A
C662   H715    1.082   .     S
C662   C664    1.397   .     A
C663   H726    1.085   .     S
C663   C665    1.394   .     A
C664   C670    1.408   .     A
C664   C666    1.414   .     A
C665   C672    1.406   .     A
C665   C667    1.414   .     A
C666   C668    1.421   .     A
C666   C1639   1.402   .     S
C667   C669    1.422   .     A
C667   C1638   1.402   1_554 S
C668   C682    1.424   .     A
C669   C671    1.421   .     A
C670   O754    1.384   .     S
C670   C1643   1.408   .     S
C671   S755    1.782   .     S
C671   C1642   1.408   1_554 S
C672   O736    1.384   .     S
C672   C1654   1.406   1_554 S
C673   H732    1.118   .     S
C673   O754    1.418   .     S
C673   C674    1.523   .     S
C673   H694    1.111   .     S
C674   H697    1.110   .     S
C674   H696    1.109   .     S
C674   H911    1.110   1_455 S
C675   H698    1.114   .     S
C675   H699    1.114   .     S
C675   O736    1.415   .     S
C675   C676    1.521   .     S
C676   H702    1.111   .     S
C676   H808    1.110   .     S
C676   H809    1.110   .     S
C677   H707    1.117   .     S
C677   O743    1.421   .     S
C677   C678    1.526   .     S
C677   H706    1.106   .     S
C678   H710    1.107   .     S
C678   H709    1.111   .     S
C679   O744    1.405   .     S
C679   H711    1.101   .     S
C679   C680    1.528   .     S
C679   H712    1.109   .     S
C680   H716    1.109   .     S
C680   H714    1.105   .     S
C680   H713    1.109   .     S
C681   C683    1.523   .     S
C681   H717    1.100   .     S
C681   H718    1.108   .     S
C681   O745    1.409   .     S
C682   S756    1.779   .     S
C682   C1644   1.406   .     S
C683   H719    1.105   .     S
C683   H720    1.106   .     S
C683   H721    1.110   .     S
C684   C685    1.523   .     S
C684   H723    1.108   .     S
C684   H722    1.112   .     S
C684   O747    1.420   .     S
C685   H727    1.109   .     S
C685   H725    1.111   .     S
C685   H724    1.109   .     S
C686   H728    1.083   .     S
C686   C904    1.381   1_455 S
C687   C690    1.400   .     A
C687   H729    1.083   .     S
C687   C797    1.385   .     S
C688   C690    1.400   .     A
C688   H730    1.079   .     S
C688   C794    1.381   .     S
C689   H731    1.083   .     S
C689   C903    1.385   1_455 S
Cu691  O752    1.964   .     S
Cu691  N733    2.030   .     S
Cu691  O748    1.961   .     S
Cu691  Cu692   2.702   .     S
Cu691  O735    1.959   .     S
Cu691  O750    1.957   .     S
Cu692  O753    1.964   .     S
Cu692  O746    1.959   .     S
Cu692  N734    2.030   .     S
Cu692  O751    1.957   .     S
Cu692  O749    1.961   .     S
H695   C782    1.110   .     S
H700   C892    1.110   1_455 S
H701   C892    1.110   1_455 S
H703   O739    0.991   .     S
H705   O742    0.991   .     S
H708   C30     1.106   1_565 S
O737   S755    1.502   .     D
O738   S755    1.503   .     D
O739   S755    1.682   .     S
O740   S756    1.503   .     D
O741   S756    1.500   .     D
O742   S756    1.682   .     S
C757   O843    1.295   .     A
C757   C758    1.447   .     S
C757   O857    1.300   .     A
C758   C797    1.401   .     A
C758   C794    1.397   .     A
C759   N842    1.376   .     A
C759   O851    1.388   .     S
C760   O852    1.383   .     S
C760   N841    1.375   .     A
C760   C113    1.433   1_565 S
C761   N842    1.378   .     A
C761   O853    1.386   .     S
C762   N841    1.374   .     A
C762   O855    1.383   .     S
C762   C111    1.436   1_565 S
C763   O858    1.300   .     A
C763   O861    1.294   .     A
C763   C769    1.446   .     S
C764   O860    1.302   .     A
C764   C767    1.457   .     S
C764   O859    1.298   .     A
C765   H801    1.073   .     S
C765   C767    1.395   .     A
C765   C776    1.408   .     A
C766   H812    1.080   .     S
C766   C777    1.406   .     A
C766   C769    1.395   .     A
C767   C770    1.388   .     A
C768   C798    1.448   .     S
C768   O854    1.298   .     A
C768   O856    1.298   .     A
C769   C771    1.385   .     A
C770   H823    1.082   .     S
C770   C772    1.397   .     A
C771   H834    1.085   .     S
C771   C773    1.394   .     A
C772   C778    1.408   .     A
C772   C774    1.414   .     A
C773   C780    1.406   .     A
C773   C775    1.414   .     A
C774   C776    1.421   .     A
C774   C1747   1.402   .     S
C775   C777    1.422   .     A
C775   C1746   1.402   1_554 S
C776   C790    1.424   .     A
C777   C779    1.421   .     A
C778   O862    1.384   .     S
C778   C1751   1.408   .     S
C779   S863    1.782   .     S
C779   C1750   1.408   1_554 S
C780   O844    1.384   .     S
C780   C1762   1.406   1_554 S
C781   H840    1.118   .     S
C781   O862    1.418   .     S
C781   C782    1.523   .     S
C781   H802    1.111   .     S
C782   H805    1.110   .     S
C782   H804    1.109   .     S
C783   H806    1.114   .     S
C783   H807    1.114   .     S
C783   O844    1.415   .     S
C783   C784    1.521   .     S
C784   H810    1.111   .     S
C784   H916    1.110   .     S
C784   H917    1.110   .     S
C785   H815    1.117   .     S
C785   O851    1.421   .     S
C785   C786    1.526   .     S
C785   H814    1.106   .     S
C786   H818    1.107   .     S
C786   H817    1.111   .     S
C787   O852    1.405   .     S
C787   H819    1.101   .     S
C787   C788    1.528   .     S
C787   H820    1.109   .     S
C788   H824    1.109   .     S
C788   H822    1.105   .     S
C788   H821    1.109   .     S
C789   C791    1.523   .     S
C789   H825    1.100   .     S
C789   H826    1.108   .     S
C789   O853    1.409   .     S
C790   S864    1.779   .     S
C790   C1752   1.406   .     S
C791   H827    1.105   .     S
C791   H828    1.106   .     S
C791   H829    1.110   .     S
C792   C793    1.523   .     S
C792   H831    1.108   .     S
C792   H830    1.112   .     S
C792   O855    1.420   .     S
C793   H835    1.109   .     S
C793   H833    1.111   .     S
C793   H832    1.109   .     S
C794   H836    1.083   .     S
C795   C798    1.400   .     A
C795   H837    1.083   .     S
C795   C905    1.385   .     S
C796   C798    1.400   .     A
C796   H838    1.079   .     S
C796   C902    1.381   .     S
C797   H839    1.083   .     S
Cu799  O860    1.964   .     S
Cu799  N841    2.030   .     S
Cu799  O856    1.961   .     S
Cu799  Cu800   2.702   .     S
Cu799  O843    1.959   .     S
Cu799  O858    1.957   .     S
Cu800  O861    1.964   .     S
Cu800  O854    1.959   .     S
Cu800  N842    2.030   .     S
Cu800  O859    1.957   .     S
Cu800  O857    1.961   .     S
H803   C890    1.110   .     S
H811   O847    0.991   .     S
H813   O850    0.991   .     S
H816   C138    1.106   1_565 S
O845   S863    1.502   .     D
O846   S863    1.503   .     D
O847   S863    1.682   .     S
O848   S864    1.503   .     D
O849   S864    1.500   .     D
O850   S864    1.682   .     S
C865   O951    1.295   .     A
C865   C866    1.447   .     S
C865   O965    1.300   .     A
C866   C905    1.401   .     A
C866   C902    1.397   .     A
C867   N950    1.376   .     A
C867   O959    1.388   .     S
C868   O960    1.383   .     S
C868   N949    1.375   .     A
C868   C221    1.433   1_565 S
C869   N950    1.378   .     A
C869   O961    1.386   .     S
C870   N949    1.374   .     A
C870   O963    1.383   .     S
C870   C219    1.436   1_565 S
C871   O966    1.300   .     A
C871   O969    1.294   .     A
C871   C877    1.446   .     S
C872   O968    1.302   .     A
C872   C875    1.457   .     S
C872   O967    1.298   .     A
C873   H909    1.073   .     S
C873   C875    1.395   .     A
C873   C884    1.408   .     A
C874   H920    1.080   .     S
C874   C885    1.406   .     A
C874   C877    1.395   .     A
C875   C878    1.388   .     A
C876   C906    1.448   .     S
C876   O962    1.298   .     A
C876   O964    1.298   .     A
C877   C879    1.385   .     A
C878   H931    1.082   .     S
C878   C880    1.397   .     A
C879   H942    1.085   .     S
C879   C881    1.394   .     A
C880   C886    1.408   .     A
C880   C882    1.414   .     A
C881   C888    1.406   .     A
C881   C883    1.414   .     A
C882   C884    1.421   .     A
C882   C1855   1.402   .     S
C883   C885    1.422   .     A
C883   C1854   1.402   1_554 S
C884   C898    1.424   .     A
C885   C887    1.421   .     A
C886   O970    1.384   .     S
C886   C1859   1.408   .     S
C887   S971    1.782   .     S
C887   C1858   1.408   1_554 S
C888   O952    1.384   .     S
C888   C1870   1.406   1_554 S
C889   H948    1.118   .     S
C889   O970    1.418   .     S
C889   C890    1.523   .     S
C889   H910    1.111   .     S
C890   H913    1.110   .     S
C890   H912    1.109   .     S
C891   H914    1.114   .     S
C891   H915    1.114   .     S
C891   O952    1.415   .     S
C891   C892    1.521   .     S
C892   H918    1.111   .     S
C892   H700    1.110   1_655 S
C892   H701    1.110   1_655 S
C893   H923    1.117   .     S
C893   O959    1.421   .     S
C893   C894    1.526   .     S
C893   H922    1.106   .     S
C894   H926    1.107   .     S
C894   H925    1.111   .     S
C895   O960    1.405   .     S
C895   H927    1.101   .     S
C895   C896    1.528   .     S
C895   H928    1.109   .     S
C896   H932    1.109   .     S
C896   H930    1.105   .     S
C896   H929    1.109   .     S
C897   C899    1.523   .     S
C897   H933    1.100   .     S
C897   H934    1.108   .     S
C897   O961    1.409   .     S
C898   S972    1.779   .     S
C898   C1860   1.406   .     S
C899   H935    1.105   .     S
C899   H936    1.106   .     S
C899   H937    1.110   .     S
C900   C901    1.523   .     S
C900   H939    1.108   .     S
C900   H938    1.112   .     S
C900   O963    1.420   .     S
C901   H943    1.109   .     S
C901   H941    1.111   .     S
C901   H940    1.109   .     S
C902   H944    1.083   .     S
C903   C906    1.400   .     A
C903   H945    1.083   .     S
C903   C689    1.385   1_655 S
C904   C906    1.400   .     A
C904   H946    1.079   .     S
C904   C686    1.381   1_655 S
C905   H947    1.083   .     S
Cu907  O968    1.964   .     S
Cu907  N949    2.030   .     S
Cu907  O964    1.961   .     S
Cu907  Cu908   2.702   .     S
Cu907  O951    1.959   .     S
Cu907  O966    1.957   .     S
Cu908  O969    1.964   .     S
Cu908  O962    1.959   .     S
Cu908  N950    2.030   .     S
Cu908  O967    1.957   .     S
Cu908  O965    1.961   .     S
H911   C674    1.110   1_655 S
H919   O955    0.991   .     S
H921   O958    0.991   .     S
H924   C246    1.106   1_565 S
O953   S971    1.502   .     D
O954   S971    1.503   .     D
O955   S971    1.682   .     S
O956   S972    1.503   .     D
O957   S972    1.500   .     D
O958   S972    1.682   .     S
C973   O1059   1.295   .     A
C973   C974    1.447   .     S
C973   O1073   1.300   .     A
C974   C1013   1.401   .     A
C974   C1010   1.397   .     A
C975   N1058   1.376   .     A
C975   O1067   1.388   .     S
C975   C1626   1.436   1_545 S
C976   O1068   1.383   .     S
C976   N1057   1.375   .     A
C976   C1301   1.433   .     S
C977   N1058   1.378   .     A
C977   O1069   1.386   .     S
C977   C1624   1.433   1_545 S
C978   N1057   1.374   .     A
C978   O1071   1.383   .     S
C978   C1299   1.436   .     S
C979   O1074   1.300   .     A
C979   O1077   1.294   .     A
C979   C985    1.446   .     S
C980   O1076   1.302   .     A
C980   C983    1.457   .     S
C980   O1075   1.298   .     A
C981   H1017   1.073   .     S
C981   C983    1.395   .     A
C981   C992    1.408   .     A
C982   H1028   1.080   .     S
C982   C993    1.406   .     A
C982   C985    1.395   .     A
C983   C986    1.388   .     A
C984   C1014   1.448   .     S
C984   O1070   1.298   .     A
C984   O1072   1.298   .     A
C985   C987    1.385   .     A
C986   H1039   1.082   .     S
C986   C988    1.397   .     A
C987   H1050   1.085   .     S
C987   C989    1.394   .     A
C988   C994    1.408   .     A
C988   C990    1.414   .     A
C989   C996    1.406   .     A
C989   C991    1.414   .     A
C990   C992    1.421   .     A
C990   C19     1.402   1_556 S
C991   C993    1.422   .     A
C992   C1006   1.424   .     A
C993   C995    1.421   .     A
C994   O1078   1.384   .     S
C994   C23     1.408   1_556 S
C995   S1079   1.782   .     S
C996   O1060   1.384   .     S
C997   H1056   1.118   .     S
C997   O1078   1.418   .     S
C997   C998    1.523   .     S
C997   H1018   1.111   .     S
C998   H1021   1.110   .     S
C998   H1020   1.109   .     S
C998   H1235   1.110   1_455 S
C999   H1022   1.114   .     S
C999   H1023   1.114   .     S
C999   O1060   1.415   .     S
C999   C1000   1.521   .     S
C1000  H1026   1.111   .     S
C1000  H1132   1.110   .     S
C1000  H1133   1.110   .     S
C1001  H1031   1.117   .     S
C1001  O1067   1.421   .     S
C1001  C1002   1.526   .     S
C1001  H1030   1.106   .     S
C1002  H1034   1.107   .     S
C1002  H1033   1.111   .     S
C1002  H1680   1.106   1_545 S
C1003  O1068   1.405   .     S
C1003  H1035   1.101   .     S
C1003  C1004   1.528   .     S
C1003  H1036   1.109   .     S
C1004  H1040   1.109   .     S
C1004  H1038   1.105   .     S
C1004  H1037   1.109   .     S
C1005  C1007   1.523   .     S
C1005  H1041   1.100   .     S
C1005  H1042   1.108   .     S
C1005  O1069   1.409   .     S
C1006  S1080   1.779   .     S
C1006  C24     1.406   1_556 S
C1007  H1043   1.105   .     S
C1007  H1044   1.106   .     S
C1007  H1045   1.110   .     S
C1008  C1009   1.523   .     S
C1008  H1047   1.108   .     S
C1008  H1046   1.112   .     S
C1008  O1071   1.420   .     S
C1009  H1051   1.109   .     S
C1009  H1049   1.111   .     S
C1009  H1048   1.109   .     S
C1010  H1052   1.083   .     S
C1010  C1228   1.381   1_455 S
C1011  C1014   1.400   .     A
C1011  H1053   1.083   .     S
C1011  C1121   1.385   .     S
C1012  C1014   1.400   .     A
C1012  H1054   1.079   .     S
C1012  C1118   1.381   .     S
C1013  H1055   1.083   .     S
C1013  C1227   1.385   1_455 S
Cu1015 O1076   1.964   .     S
Cu1015 N1057   2.030   .     S
Cu1015 O1072   1.961   .     S
Cu1015 Cu1016  2.702   .     S
Cu1015 O1059   1.959   .     S
Cu1015 O1074   1.957   .     S
Cu1016 O1077   1.964   .     S
Cu1016 O1070   1.959   .     S
Cu1016 N1058   2.030   .     S
Cu1016 O1075   1.957   .     S
Cu1016 O1073   1.961   .     S
H1019  C1106   1.110   .     S
H1024  C1216   1.110   1_455 S
H1025  C1216   1.110   1_455 S
H1027  O1063   0.991   .     S
H1029  O1066   0.991   .     S
H1032  C1326   1.106   .     S
O1061  S1079   1.502   .     D
O1062  S1079   1.503   .     D
O1063  S1079   1.682   .     S
O1064  S1080   1.503   .     D
O1065  S1080   1.500   .     D
O1066  S1080   1.682   .     S
C1081  O1167   1.295   .     A
C1081  C1082   1.447   .     S
C1081  O1181   1.300   .     A
C1082  C1121   1.401   .     A
C1082  C1118   1.397   .     A
C1083  N1166   1.376   .     A
C1083  O1175   1.388   .     S
C1083  C1734   1.436   1_545 S
C1084  O1176   1.383   .     S
C1084  N1165   1.375   .     A
C1084  C1409   1.433   .     S
C1085  N1166   1.378   .     A
C1085  O1177   1.386   .     S
C1085  C1732   1.433   1_545 S
C1086  N1165   1.374   .     A
C1086  O1179   1.383   .     S
C1086  C1407   1.436   .     S
C1087  O1182   1.300   .     A
C1087  O1185   1.294   .     A
C1087  C1093   1.446   .     S
C1088  O1184   1.302   .     A
C1088  C1091   1.457   .     S
C1088  O1183   1.298   .     A
C1089  H1125   1.073   .     S
C1089  C1091   1.395   .     A
C1089  C1100   1.408   .     A
C1090  H1136   1.080   .     S
C1090  C1101   1.406   .     A
C1090  C1093   1.395   .     A
C1091  C1094   1.388   .     A
C1092  C1122   1.448   .     S
C1092  O1178   1.298   .     A
C1092  O1180   1.298   .     A
C1093  C1095   1.385   .     A
C1094  H1147   1.082   .     S
C1094  C1096   1.397   .     A
C1095  H1158   1.085   .     S
C1095  C1097   1.394   .     A
C1096  C1102   1.408   .     A
C1096  C1098   1.414   .     A
C1097  C1104   1.406   .     A
C1097  C1099   1.414   .     A
C1098  C1100   1.421   .     A
C1098  C127    1.402   1_556 S
C1099  C1101   1.422   .     A
C1100  C1114   1.424   .     A
C1101  C1103   1.421   .     A
C1102  O1186   1.384   .     S
C1102  C131    1.408   1_556 S
C1103  S1187   1.782   .     S
C1104  O1168   1.384   .     S
C1105  H1164   1.118   .     S
C1105  O1186   1.418   .     S
C1105  C1106   1.523   .     S
C1105  H1126   1.111   .     S
C1106  H1129   1.110   .     S
C1106  H1128   1.109   .     S
C1107  H1130   1.114   .     S
C1107  H1131   1.114   .     S
C1107  O1168   1.415   .     S
C1107  C1108   1.521   .     S
C1108  H1134   1.111   .     S
C1108  H1240   1.110   .     S
C1108  H1241   1.110   .     S
C1109  H1139   1.117   .     S
C1109  O1175   1.421   .     S
C1109  C1110   1.526   .     S
C1109  H1138   1.106   .     S
C1110  H1142   1.107   .     S
C1110  H1141   1.111   .     S
C1110  H1788   1.106   1_545 S
C1111  O1176   1.405   .     S
C1111  H1143   1.101   .     S
C1111  C1112   1.528   .     S
C1111  H1144   1.109   .     S
C1112  H1148   1.109   .     S
C1112  H1146   1.105   .     S
C1112  H1145   1.109   .     S
C1113  C1115   1.523   .     S
C1113  H1149   1.100   .     S
C1113  H1150   1.108   .     S
C1113  O1177   1.409   .     S
C1114  S1188   1.779   .     S
C1114  C132    1.406   1_556 S
C1115  H1151   1.105   .     S
C1115  H1152   1.106   .     S
C1115  H1153   1.110   .     S
C1116  C1117   1.523   .     S
C1116  H1155   1.108   .     S
C1116  H1154   1.112   .     S
C1116  O1179   1.420   .     S
C1117  H1159   1.109   .     S
C1117  H1157   1.111   .     S
C1117  H1156   1.109   .     S
C1118  H1160   1.083   .     S
C1119  C1122   1.400   .     A
C1119  H1161   1.083   .     S
C1119  C1229   1.385   .     S
C1120  C1122   1.400   .     A
C1120  H1162   1.079   .     S
C1120  C1226   1.381   .     S
C1121  H1163   1.083   .     S
Cu1123 O1184   1.964   .     S
Cu1123 N1165   2.030   .     S
Cu1123 O1180   1.961   .     S
Cu1123 Cu1124  2.702   .     S
Cu1123 O1167   1.959   .     S
Cu1123 O1182   1.957   .     S
Cu1124 O1185   1.964   .     S
Cu1124 O1178   1.959   .     S
Cu1124 N1166   2.030   .     S
Cu1124 O1183   1.957   .     S
Cu1124 O1181   1.961   .     S
H1127  C1214   1.110   .     S
H1135  O1171   0.991   .     S
H1137  O1174   0.991   .     S
H1140  C1434   1.106   .     S
O1169  S1187   1.502   .     D
O1170  S1187   1.503   .     D
O1171  S1187   1.682   .     S
O1172  S1188   1.503   .     D
O1173  S1188   1.500   .     D
O1174  S1188   1.682   .     S
C1189  O1275   1.295   .     A
C1189  C1190   1.447   .     S
C1189  O1289   1.300   .     A
C1190  C1229   1.401   .     A
C1190  C1226   1.397   .     A
C1191  N1274   1.376   .     A
C1191  O1283   1.388   .     S
C1191  C1842   1.436   1_545 S
C1192  O1284   1.383   .     S
C1192  N1273   1.375   .     A
C1192  C1517   1.433   .     S
C1193  N1274   1.378   .     A
C1193  O1285   1.386   .     S
C1193  C1840   1.433   1_545 S
C1194  N1273   1.374   .     A
C1194  O1287   1.383   .     S
C1194  C1515   1.436   .     S
C1195  O1290   1.300   .     A
C1195  O1293   1.294   .     A
C1195  C1201   1.446   .     S
C1196  O1292   1.302   .     A
C1196  C1199   1.457   .     S
C1196  O1291   1.298   .     A
C1197  H1233   1.073   .     S
C1197  C1199   1.395   .     A
C1197  C1208   1.408   .     A
C1198  H1244   1.080   .     S
C1198  C1209   1.406   .     A
C1198  C1201   1.395   .     A
C1199  C1202   1.388   .     A
C1200  C1230   1.448   .     S
C1200  O1286   1.298   .     A
C1200  O1288   1.298   .     A
C1201  C1203   1.385   .     A
C1202  H1255   1.082   .     S
C1202  C1204   1.397   .     A
C1203  H1266   1.085   .     S
C1203  C1205   1.394   .     A
C1204  C1210   1.408   .     A
C1204  C1206   1.414   .     A
C1205  C1212   1.406   .     A
C1205  C1207   1.414   .     A
C1206  C1208   1.421   .     A
C1206  C235    1.402   1_556 S
C1207  C1209   1.422   .     A
C1208  C1222   1.424   .     A
C1209  C1211   1.421   .     A
C1210  O1294   1.384   .     S
C1210  C239    1.408   1_556 S
C1211  S1295   1.782   .     S
C1212  O1276   1.384   .     S
C1213  H1272   1.118   .     S
C1213  O1294   1.418   .     S
C1213  C1214   1.523   .     S
C1213  H1234   1.111   .     S
C1214  H1237   1.110   .     S
C1214  H1236   1.109   .     S
C1215  H1238   1.114   .     S
C1215  H1239   1.114   .     S
C1215  O1276   1.415   .     S
C1215  C1216   1.521   .     S
C1216  H1242   1.111   .     S
C1216  H1024   1.110   1_655 S
C1216  H1025   1.110   1_655 S
C1217  H1247   1.117   .     S
C1217  O1283   1.421   .     S
C1217  C1218   1.526   .     S
C1217  H1246   1.106   .     S
C1218  H1250   1.107   .     S
C1218  H1249   1.111   .     S
C1218  H1896   1.106   1_545 S
C1219  O1284   1.405   .     S
C1219  H1251   1.101   .     S
C1219  C1220   1.528   .     S
C1219  H1252   1.109   .     S
C1220  H1256   1.109   .     S
C1220  H1254   1.105   .     S
C1220  H1253   1.109   .     S
C1221  C1223   1.523   .     S
C1221  H1257   1.100   .     S
C1221  H1258   1.108   .     S
C1221  O1285   1.409   .     S
C1222  S1296   1.779   .     S
C1222  C240    1.406   1_556 S
C1223  H1259   1.105   .     S
C1223  H1260   1.106   .     S
C1223  H1261   1.110   .     S
C1224  C1225   1.523   .     S
C1224  H1263   1.108   .     S
C1224  H1262   1.112   .     S
C1224  O1287   1.420   .     S
C1225  H1267   1.109   .     S
C1225  H1265   1.111   .     S
C1225  H1264   1.109   .     S
C1226  H1268   1.083   .     S
C1227  C1230   1.400   .     A
C1227  H1269   1.083   .     S
C1227  C1013   1.385   1_655 S
C1228  C1230   1.400   .     A
C1228  H1270   1.079   .     S
C1228  C1010   1.381   1_655 S
C1229  H1271   1.083   .     S
Cu1231 O1292   1.964   .     S
Cu1231 N1273   2.030   .     S
Cu1231 O1288   1.961   .     S
Cu1231 Cu1232  2.702   .     S
Cu1231 O1275   1.959   .     S
Cu1231 O1290   1.957   .     S
Cu1232 O1293   1.964   .     S
Cu1232 O1286   1.959   .     S
Cu1232 N1274   2.030   .     S
Cu1232 O1291   1.957   .     S
Cu1232 O1289   1.961   .     S
H1235  C998    1.110   1_655 S
H1243  O1279   0.991   .     S
H1245  O1282   0.991   .     S
H1248  C1542   1.106   .     S
O1277  S1295   1.502   .     D
O1278  S1295   1.503   .     D
O1279  S1295   1.682   .     S
O1280  S1296   1.503   .     D
O1281  S1296   1.500   .     D
O1282  S1296   1.682   .     S
C1297  O1383   1.295   .     A
C1297  C1298   1.447   .     S
C1297  O1397   1.300   .     A
C1298  C1337   1.401   .     A
C1298  C1334   1.397   .     A
C1299  N1382   1.376   .     A
C1299  O1391   1.388   .     S
C1300  O1392   1.383   .     S
C1300  N1381   1.375   .     A
C1300  C1625   1.433   .     S
C1301  N1382   1.378   .     A
C1301  O1393   1.386   .     S
C1302  N1381   1.374   .     A
C1302  O1395   1.383   .     S
C1302  C1623   1.436   .     S
C1303  O1398   1.300   .     A
C1303  O1401   1.294   .     A
C1303  C1309   1.446   .     S
C1304  O1400   1.302   .     A
C1304  C1307   1.457   .     S
C1304  O1399   1.298   .     A
C1305  H1341   1.073   .     S
C1305  C1307   1.395   .     A
C1305  C1316   1.408   .     A
C1306  H1352   1.080   .     S
C1306  C1317   1.406   .     A
C1306  C1309   1.395   .     A
C1307  C1310   1.388   .     A
C1308  C1338   1.448   .     S
C1308  O1394   1.298   .     A
C1308  O1396   1.298   .     A
C1309  C1311   1.385   .     A
C1310  H1363   1.082   .     S
C1310  C1312   1.397   .     A
C1311  H1374   1.085   .     S
C1311  C1313   1.394   .     A
C1312  C1318   1.408   .     A
C1312  C1314   1.414   .     A
C1313  C1320   1.406   .     A
C1313  C1315   1.414   .     A
C1314  C1316   1.421   .     A
C1314  C343    1.402   1_556 S
C1315  C1317   1.422   .     A
C1316  C1330   1.424   .     A
C1317  C1319   1.421   .     A
C1318  O1402   1.384   .     S
C1318  C347    1.408   1_556 S
C1319  S1403   1.782   .     S
C1320  O1384   1.384   .     S
C1321  H1380   1.118   .     S
C1321  O1402   1.418   .     S
C1321  C1322   1.523   .     S
C1321  H1342   1.111   .     S
C1322  H1345   1.110   .     S
C1322  H1344   1.109   .     S
C1322  H1559   1.110   1_455 S
C1323  H1346   1.114   .     S
C1323  H1347   1.114   .     S
C1323  O1384   1.415   .     S
C1323  C1324   1.521   .     S
C1324  H1350   1.111   .     S
C1324  H1456   1.110   .     S
C1324  H1457   1.110   .     S
C1325  H1355   1.117   .     S
C1325  O1391   1.421   .     S
C1325  C1326   1.526   .     S
C1325  H1354   1.106   .     S
C1326  H1358   1.107   .     S
C1326  H1357   1.111   .     S
C1327  O1392   1.405   .     S
C1327  H1359   1.101   .     S
C1327  C1328   1.528   .     S
C1327  H1360   1.109   .     S
C1328  H1364   1.109   .     S
C1328  H1362   1.105   .     S
C1328  H1361   1.109   .     S
C1329  C1331   1.523   .     S
C1329  H1365   1.100   .     S
C1329  H1366   1.108   .     S
C1329  O1393   1.409   .     S
C1330  S1404   1.779   .     S
C1330  C348    1.406   1_556 S
C1331  H1367   1.105   .     S
C1331  H1368   1.106   .     S
C1331  H1369   1.110   .     S
C1332  C1333   1.523   .     S
C1332  H1371   1.108   .     S
C1332  H1370   1.112   .     S
C1332  O1395   1.420   .     S
C1333  H1375   1.109   .     S
C1333  H1373   1.111   .     S
C1333  H1372   1.109   .     S
C1334  H1376   1.083   .     S
C1334  C1552   1.381   1_455 S
C1335  C1338   1.400   .     A
C1335  H1377   1.083   .     S
C1335  C1445   1.385   .     S
C1336  C1338   1.400   .     A
C1336  H1378   1.079   .     S
C1336  C1442   1.381   .     S
C1337  H1379   1.083   .     S
C1337  C1551   1.385   1_455 S
Cu1339 O1400   1.964   .     S
Cu1339 N1381   2.030   .     S
Cu1339 O1396   1.961   .     S
Cu1339 Cu1340  2.702   .     S
Cu1339 O1383   1.959   .     S
Cu1339 O1398   1.957   .     S
Cu1340 O1401   1.964   .     S
Cu1340 O1394   1.959   .     S
Cu1340 N1382   2.030   .     S
Cu1340 O1399   1.957   .     S
Cu1340 O1397   1.961   .     S
H1343  C1430   1.110   .     S
H1348  C1540   1.110   1_455 S
H1349  C1540   1.110   1_455 S
H1351  O1387   0.991   .     S
H1353  O1390   0.991   .     S
H1356  C1650   1.106   .     S
O1385  S1403   1.502   .     D
O1386  S1403   1.503   .     D
O1387  S1403   1.682   .     S
O1388  S1404   1.503   .     D
O1389  S1404   1.500   .     D
O1390  S1404   1.682   .     S
C1405  O1491   1.295   .     A
C1405  C1406   1.447   .     S
C1405  O1505   1.300   .     A
C1406  C1445   1.401   .     A
C1406  C1442   1.397   .     A
C1407  N1490   1.376   .     A
C1407  O1499   1.388   .     S
C1408  O1500   1.383   .     S
C1408  N1489   1.375   .     A
C1408  C1733   1.433   .     S
C1409  N1490   1.378   .     A
C1409  O1501   1.386   .     S
C1410  N1489   1.374   .     A
C1410  O1503   1.383   .     S
C1410  C1731   1.436   .     S
C1411  O1506   1.300   .     A
C1411  O1509   1.294   .     A
C1411  C1417   1.446   .     S
C1412  O1508   1.302   .     A
C1412  C1415   1.457   .     S
C1412  O1507   1.298   .     A
C1413  H1449   1.073   .     S
C1413  C1415   1.395   .     A
C1413  C1424   1.408   .     A
C1414  H1460   1.080   .     S
C1414  C1425   1.406   .     A
C1414  C1417   1.395   .     A
C1415  C1418   1.388   .     A
C1416  C1446   1.448   .     S
C1416  O1502   1.298   .     A
C1416  O1504   1.298   .     A
C1417  C1419   1.385   .     A
C1418  H1471   1.082   .     S
C1418  C1420   1.397   .     A
C1419  H1482   1.085   .     S
C1419  C1421   1.394   .     A
C1420  C1426   1.408   .     A
C1420  C1422   1.414   .     A
C1421  C1428   1.406   .     A
C1421  C1423   1.414   .     A
C1422  C1424   1.421   .     A
C1422  C451    1.402   1_556 S
C1423  C1425   1.422   .     A
C1424  C1438   1.424   .     A
C1425  C1427   1.421   .     A
C1426  O1510   1.384   .     S
C1426  C455    1.408   1_556 S
C1427  S1511   1.782   .     S
C1428  O1492   1.384   .     S
C1429  H1488   1.118   .     S
C1429  O1510   1.418   .     S
C1429  C1430   1.523   .     S
C1429  H1450   1.111   .     S
C1430  H1453   1.110   .     S
C1430  H1452   1.109   .     S
C1431  H1454   1.114   .     S
C1431  H1455   1.114   .     S
C1431  O1492   1.415   .     S
C1431  C1432   1.521   .     S
C1432  H1458   1.111   .     S
C1432  H1564   1.110   .     S
C1432  H1565   1.110   .     S
C1433  H1463   1.117   .     S
C1433  O1499   1.421   .     S
C1433  C1434   1.526   .     S
C1433  H1462   1.106   .     S
C1434  H1466   1.107   .     S
C1434  H1465   1.111   .     S
C1435  O1500   1.405   .     S
C1435  H1467   1.101   .     S
C1435  C1436   1.528   .     S
C1435  H1468   1.109   .     S
C1436  H1472   1.109   .     S
C1436  H1470   1.105   .     S
C1436  H1469   1.109   .     S
C1437  C1439   1.523   .     S
C1437  H1473   1.100   .     S
C1437  H1474   1.108   .     S
C1437  O1501   1.409   .     S
C1438  S1512   1.779   .     S
C1438  C456    1.406   1_556 S
C1439  H1475   1.105   .     S
C1439  H1476   1.106   .     S
C1439  H1477   1.110   .     S
C1440  C1441   1.523   .     S
C1440  H1479   1.108   .     S
C1440  H1478   1.112   .     S
C1440  O1503   1.420   .     S
C1441  H1483   1.109   .     S
C1441  H1481   1.111   .     S
C1441  H1480   1.109   .     S
C1442  H1484   1.083   .     S
C1443  C1446   1.400   .     A
C1443  H1485   1.083   .     S
C1443  C1553   1.385   .     S
C1444  C1446   1.400   .     A
C1444  H1486   1.079   .     S
C1444  C1550   1.381   .     S
C1445  H1487   1.083   .     S
Cu1447 O1508   1.964   .     S
Cu1447 N1489   2.030   .     S
Cu1447 O1504   1.961   .     S
Cu1447 Cu1448  2.702   .     S
Cu1447 O1491   1.959   .     S
Cu1447 O1506   1.957   .     S
Cu1448 O1509   1.964   .     S
Cu1448 O1502   1.959   .     S
Cu1448 N1490   2.030   .     S
Cu1448 O1507   1.957   .     S
Cu1448 O1505   1.961   .     S
H1451  C1538   1.110   .     S
H1459  O1495   0.991   .     S
H1461  O1498   0.991   .     S
H1464  C1758   1.106   .     S
O1493  S1511   1.502   .     D
O1494  S1511   1.503   .     D
O1495  S1511   1.682   .     S
O1496  S1512   1.503   .     D
O1497  S1512   1.500   .     D
O1498  S1512   1.682   .     S
C1513  O1599   1.295   .     A
C1513  C1514   1.447   .     S
C1513  O1613   1.300   .     A
C1514  C1553   1.401   .     A
C1514  C1550   1.397   .     A
C1515  N1598   1.376   .     A
C1515  O1607   1.388   .     S
C1516  O1608   1.383   .     S
C1516  N1597   1.375   .     A
C1516  C1841   1.433   .     S
C1517  N1598   1.378   .     A
C1517  O1609   1.386   .     S
C1518  N1597   1.374   .     A
C1518  O1611   1.383   .     S
C1518  C1839   1.436   .     S
C1519  O1614   1.300   .     A
C1519  O1617   1.294   .     A
C1519  C1525   1.446   .     S
C1520  O1616   1.302   .     A
C1520  C1523   1.457   .     S
C1520  O1615   1.298   .     A
C1521  H1557   1.073   .     S
C1521  C1523   1.395   .     A
C1521  C1532   1.408   .     A
C1522  H1568   1.080   .     S
C1522  C1533   1.406   .     A
C1522  C1525   1.395   .     A
C1523  C1526   1.388   .     A
C1524  C1554   1.448   .     S
C1524  O1610   1.298   .     A
C1524  O1612   1.298   .     A
C1525  C1527   1.385   .     A
C1526  H1579   1.082   .     S
C1526  C1528   1.397   .     A
C1527  H1590   1.085   .     S
C1527  C1529   1.394   .     A
C1528  C1534   1.408   .     A
C1528  C1530   1.414   .     A
C1529  C1536   1.406   .     A
C1529  C1531   1.414   .     A
C1530  C1532   1.421   .     A
C1530  C559    1.402   1_556 S
C1531  C1533   1.422   .     A
C1532  C1546   1.424   .     A
C1533  C1535   1.421   .     A
C1534  O1618   1.384   .     S
C1534  C563    1.408   1_556 S
C1535  S1619   1.782   .     S
C1536  O1600   1.384   .     S
C1537  H1596   1.118   .     S
C1537  O1618   1.418   .     S
C1537  C1538   1.523   .     S
C1537  H1558   1.111   .     S
C1538  H1561   1.110   .     S
C1538  H1560   1.109   .     S
C1539  H1562   1.114   .     S
C1539  H1563   1.114   .     S
C1539  O1600   1.415   .     S
C1539  C1540   1.521   .     S
C1540  H1566   1.111   .     S
C1540  H1348   1.110   1_655 S
C1540  H1349   1.110   1_655 S
C1541  H1571   1.117   .     S
C1541  O1607   1.421   .     S
C1541  C1542   1.526   .     S
C1541  H1570   1.106   .     S
C1542  H1574   1.107   .     S
C1542  H1573   1.111   .     S
C1543  O1608   1.405   .     S
C1543  H1575   1.101   .     S
C1543  C1544   1.528   .     S
C1543  H1576   1.109   .     S
C1544  H1580   1.109   .     S
C1544  H1578   1.105   .     S
C1544  H1577   1.109   .     S
C1545  C1547   1.523   .     S
C1545  H1581   1.100   .     S
C1545  H1582   1.108   .     S
C1545  O1609   1.409   .     S
C1546  S1620   1.779   .     S
C1546  C564    1.406   1_556 S
C1547  H1583   1.105   .     S
C1547  H1584   1.106   .     S
C1547  H1585   1.110   .     S
C1548  C1549   1.523   .     S
C1548  H1587   1.108   .     S
C1548  H1586   1.112   .     S
C1548  O1611   1.420   .     S
C1549  H1591   1.109   .     S
C1549  H1589   1.111   .     S
C1549  H1588   1.109   .     S
C1550  H1592   1.083   .     S
C1551  C1554   1.400   .     A
C1551  H1593   1.083   .     S
C1551  C1337   1.385   1_655 S
C1552  C1554   1.400   .     A
C1552  H1594   1.079   .     S
C1552  C1334   1.381   1_655 S
C1553  H1595   1.083   .     S
Cu1555 O1616   1.964   .     S
Cu1555 N1597   2.030   .     S
Cu1555 O1612   1.961   .     S
Cu1555 Cu1556  2.702   .     S
Cu1555 O1599   1.959   .     S
Cu1555 O1614   1.957   .     S
Cu1556 O1617   1.964   .     S
Cu1556 O1610   1.959   .     S
Cu1556 N1598   2.030   .     S
Cu1556 O1615   1.957   .     S
Cu1556 O1613   1.961   .     S
H1559  C1322   1.110   1_655 S
H1567  O1603   0.991   .     S
H1569  O1606   0.991   .     S
H1572  C1866   1.106   .     S
O1601  S1619   1.502   .     D
O1602  S1619   1.503   .     D
O1603  S1619   1.682   .     S
O1604  S1620   1.503   .     D
O1605  S1620   1.500   .     D
O1606  S1620   1.682   .     S
C1621  O1707   1.295   .     A
C1621  C1622   1.447   .     S
C1621  O1721   1.300   .     A
C1622  C1661   1.401   .     A
C1622  C1658   1.397   .     A
C1623  N1706   1.376   .     A
C1623  O1715   1.388   .     S
C1624  O1716   1.383   .     S
C1624  N1705   1.375   .     A
C1624  C977    1.433   1_565 S
C1625  N1706   1.378   .     A
C1625  O1717   1.386   .     S
C1626  N1705   1.374   .     A
C1626  O1719   1.383   .     S
C1626  C975    1.436   1_565 S
C1627  O1722   1.300   .     A
C1627  O1725   1.294   .     A
C1627  C1633   1.446   .     S
C1628  O1724   1.302   .     A
C1628  C1631   1.457   .     S
C1628  O1723   1.298   .     A
C1629  H1665   1.073   .     S
C1629  C1631   1.395   .     A
C1629  C1640   1.408   .     A
C1630  H1676   1.080   .     S
C1630  C1641   1.406   .     A
C1630  C1633   1.395   .     A
C1631  C1634   1.388   .     A
C1632  C1662   1.448   .     S
C1632  O1718   1.298   .     A
C1632  O1720   1.298   .     A
C1633  C1635   1.385   .     A
C1634  H1687   1.082   .     S
C1634  C1636   1.397   .     A
C1635  H1698   1.085   .     S
C1635  C1637   1.394   .     A
C1636  C1642   1.408   .     A
C1636  C1638   1.414   .     A
C1637  C1644   1.406   .     A
C1637  C1639   1.414   .     A
C1638  C1640   1.421   .     A
C1638  C667    1.402   1_556 S
C1639  C1641   1.422   .     A
C1640  C1654   1.424   .     A
C1641  C1643   1.421   .     A
C1642  O1726   1.384   .     S
C1642  C671    1.408   1_556 S
C1643  S1727   1.782   .     S
C1644  O1708   1.384   .     S
C1645  H1704   1.118   .     S
C1645  O1726   1.418   .     S
C1645  C1646   1.523   .     S
C1645  H1666   1.111   .     S
C1646  H1669   1.110   .     S
C1646  H1668   1.109   .     S
C1646  H1883   1.110   1_455 S
C1647  H1670   1.114   .     S
C1647  H1671   1.114   .     S
C1647  O1708   1.415   .     S
C1647  C1648   1.521   .     S
C1648  H1674   1.111   .     S
C1648  H1780   1.110   .     S
C1648  H1781   1.110   .     S
C1649  H1679   1.117   .     S
C1649  O1715   1.421   .     S
C1649  C1650   1.526   .     S
C1649  H1678   1.106   .     S
C1650  H1682   1.107   .     S
C1650  H1681   1.111   .     S
C1651  O1716   1.405   .     S
C1651  H1683   1.101   .     S
C1651  C1652   1.528   .     S
C1651  H1684   1.109   .     S
C1652  H1688   1.109   .     S
C1652  H1686   1.105   .     S
C1652  H1685   1.109   .     S
C1653  C1655   1.523   .     S
C1653  H1689   1.100   .     S
C1653  H1690   1.108   .     S
C1653  O1717   1.409   .     S
C1654  S1728   1.779   .     S
C1654  C672    1.406   1_556 S
C1655  H1691   1.105   .     S
C1655  H1692   1.106   .     S
C1655  H1693   1.110   .     S
C1656  C1657   1.523   .     S
C1656  H1695   1.108   .     S
C1656  H1694   1.112   .     S
C1656  O1719   1.420   .     S
C1657  H1699   1.109   .     S
C1657  H1697   1.111   .     S
C1657  H1696   1.109   .     S
C1658  H1700   1.083   .     S
C1658  C1876   1.381   1_455 S
C1659  C1662   1.400   .     A
C1659  H1701   1.083   .     S
C1659  C1769   1.385   .     S
C1660  C1662   1.400   .     A
C1660  H1702   1.079   .     S
C1660  C1766   1.381   .     S
C1661  H1703   1.083   .     S
C1661  C1875   1.385   1_455 S
Cu1663 O1724   1.964   .     S
Cu1663 N1705   2.030   .     S
Cu1663 O1720   1.961   .     S
Cu1663 Cu1664  2.702   .     S
Cu1663 O1707   1.959   .     S
Cu1663 O1722   1.957   .     S
Cu1664 O1725   1.964   .     S
Cu1664 O1718   1.959   .     S
Cu1664 N1706   2.030   .     S
Cu1664 O1723   1.957   .     S
Cu1664 O1721   1.961   .     S
H1667  C1754   1.110   .     S
H1672  C1864   1.110   1_455 S
H1673  C1864   1.110   1_455 S
H1675  O1711   0.991   .     S
H1677  O1714   0.991   .     S
H1680  C1002   1.106   1_565 S
O1709  S1727   1.502   .     D
O1710  S1727   1.503   .     D
O1711  S1727   1.682   .     S
O1712  S1728   1.503   .     D
O1713  S1728   1.500   .     D
O1714  S1728   1.682   .     S
C1729  O1815   1.295   .     A
C1729  C1730   1.447   .     S
C1729  O1829   1.300   .     A
C1730  C1769   1.401   .     A
C1730  C1766   1.397   .     A
C1731  N1814   1.376   .     A
C1731  O1823   1.388   .     S
C1732  O1824   1.383   .     S
C1732  N1813   1.375   .     A
C1732  C1085   1.433   1_565 S
C1733  N1814   1.378   .     A
C1733  O1825   1.386   .     S
C1734  N1813   1.374   .     A
C1734  O1827   1.383   .     S
C1734  C1083   1.436   1_565 S
C1735  O1830   1.300   .     A
C1735  O1833   1.294   .     A
C1735  C1741   1.446   .     S
C1736  O1832   1.302   .     A
C1736  C1739   1.457   .     S
C1736  O1831   1.298   .     A
C1737  H1773   1.073   .     S
C1737  C1739   1.395   .     A
C1737  C1748   1.408   .     A
C1738  H1784   1.080   .     S
C1738  C1749   1.406   .     A
C1738  C1741   1.395   .     A
C1739  C1742   1.388   .     A
C1740  C1770   1.448   .     S
C1740  O1826   1.298   .     A
C1740  O1828   1.298   .     A
C1741  C1743   1.385   .     A
C1742  H1795   1.082   .     S
C1742  C1744   1.397   .     A
C1743  H1806   1.085   .     S
C1743  C1745   1.394   .     A
C1744  C1750   1.408   .     A
C1744  C1746   1.414   .     A
C1745  C1752   1.406   .     A
C1745  C1747   1.414   .     A
C1746  C1748   1.421   .     A
C1746  C775    1.402   1_556 S
C1747  C1749   1.422   .     A
C1748  C1762   1.424   .     A
C1749  C1751   1.421   .     A
C1750  O1834   1.384   .     S
C1750  C779    1.408   1_556 S
C1751  S1835   1.782   .     S
C1752  O1816   1.384   .     S
C1753  H1812   1.118   .     S
C1753  O1834   1.418   .     S
C1753  C1754   1.523   .     S
C1753  H1774   1.111   .     S
C1754  H1777   1.110   .     S
C1754  H1776   1.109   .     S
C1755  H1778   1.114   .     S
C1755  H1779   1.114   .     S
C1755  O1816   1.415   .     S
C1755  C1756   1.521   .     S
C1756  H1782   1.111   .     S
C1756  H1888   1.110   .     S
C1756  H1889   1.110   .     S
C1757  H1787   1.117   .     S
C1757  O1823   1.421   .     S
C1757  C1758   1.526   .     S
C1757  H1786   1.106   .     S
C1758  H1790   1.107   .     S
C1758  H1789   1.111   .     S
C1759  O1824   1.405   .     S
C1759  H1791   1.101   .     S
C1759  C1760   1.528   .     S
C1759  H1792   1.109   .     S
C1760  H1796   1.109   .     S
C1760  H1794   1.105   .     S
C1760  H1793   1.109   .     S
C1761  C1763   1.523   .     S
C1761  H1797   1.100   .     S
C1761  H1798   1.108   .     S
C1761  O1825   1.409   .     S
C1762  S1836   1.779   .     S
C1762  C780    1.406   1_556 S
C1763  H1799   1.105   .     S
C1763  H1800   1.106   .     S
C1763  H1801   1.110   .     S
C1764  C1765   1.523   .     S
C1764  H1803   1.108   .     S
C1764  H1802   1.112   .     S
C1764  O1827   1.420   .     S
C1765  H1807   1.109   .     S
C1765  H1805   1.111   .     S
C1765  H1804   1.109   .     S
C1766  H1808   1.083   .     S
C1767  C1770   1.400   .     A
C1767  H1809   1.083   .     S
C1767  C1877   1.385   .     S
C1768  C1770   1.400   .     A
C1768  H1810   1.079   .     S
C1768  C1874   1.381   .     S
C1769  H1811   1.083   .     S
Cu1771 O1832   1.964   .     S
Cu1771 N1813   2.030   .     S
Cu1771 O1828   1.961   .     S
Cu1771 Cu1772  2.702   .     S
Cu1771 O1815   1.959   .     S
Cu1771 O1830   1.957   .     S
Cu1772 O1833   1.964   .     S
Cu1772 O1826   1.959   .     S
Cu1772 N1814   2.030   .     S
Cu1772 O1831   1.957   .     S
Cu1772 O1829   1.961   .     S
H1775  C1862   1.110   .     S
H1783  O1819   0.991   .     S
H1785  O1822   0.991   .     S
H1788  C1110   1.106   1_565 S
O1817  S1835   1.502   .     D
O1818  S1835   1.503   .     D
O1819  S1835   1.682   .     S
O1820  S1836   1.503   .     D
O1821  S1836   1.500   .     D
O1822  S1836   1.682   .     S
C1837  O1923   1.295   .     A
C1837  C1838   1.447   .     S
C1837  O1937   1.300   .     A
C1838  C1877   1.401   .     A
C1838  C1874   1.397   .     A
C1839  N1922   1.376   .     A
C1839  O1931   1.388   .     S
C1840  O1932   1.383   .     S
C1840  N1921   1.375   .     A
C1840  C1193   1.433   1_565 S
C1841  N1922   1.378   .     A
C1841  O1933   1.386   .     S
C1842  N1921   1.374   .     A
C1842  O1935   1.383   .     S
C1842  C1191   1.436   1_565 S
C1843  O1938   1.300   .     A
C1843  O1941   1.294   .     A
C1843  C1849   1.446   .     S
C1844  O1940   1.302   .     A
C1844  C1847   1.457   .     S
C1844  O1939   1.298   .     A
C1845  H1881   1.073   .     S
C1845  C1847   1.395   .     A
C1845  C1856   1.408   .     A
C1846  H1892   1.080   .     S
C1846  C1857   1.406   .     A
C1846  C1849   1.395   .     A
C1847  C1850   1.388   .     A
C1848  C1878   1.448   .     S
C1848  O1934   1.298   .     A
C1848  O1936   1.298   .     A
C1849  C1851   1.385   .     A
C1850  H1903   1.082   .     S
C1850  C1852   1.397   .     A
C1851  H1914   1.085   .     S
C1851  C1853   1.394   .     A
C1852  C1858   1.408   .     A
C1852  C1854   1.414   .     A
C1853  C1860   1.406   .     A
C1853  C1855   1.414   .     A
C1854  C1856   1.421   .     A
C1854  C883    1.402   1_556 S
C1855  C1857   1.422   .     A
C1856  C1870   1.424   .     A
C1857  C1859   1.421   .     A
C1858  O1942   1.384   .     S
C1858  C887    1.408   1_556 S
C1859  S1943   1.782   .     S
C1860  O1924   1.384   .     S
C1861  H1920   1.118   .     S
C1861  O1942   1.418   .     S
C1861  C1862   1.523   .     S
C1861  H1882   1.111   .     S
C1862  H1885   1.110   .     S
C1862  H1884   1.109   .     S
C1863  H1886   1.114   .     S
C1863  H1887   1.114   .     S
C1863  O1924   1.415   .     S
C1863  C1864   1.521   .     S
C1864  H1890   1.111   .     S
C1864  H1672   1.110   1_655 S
C1864  H1673   1.110   1_655 S
C1865  H1895   1.117   .     S
C1865  O1931   1.421   .     S
C1865  C1866   1.526   .     S
C1865  H1894   1.106   .     S
C1866  H1898   1.107   .     S
C1866  H1897   1.111   .     S
C1867  O1932   1.405   .     S
C1867  H1899   1.101   .     S
C1867  C1868   1.528   .     S
C1867  H1900   1.109   .     S
C1868  H1904   1.109   .     S
C1868  H1902   1.105   .     S
C1868  H1901   1.109   .     S
C1869  C1871   1.523   .     S
C1869  H1905   1.100   .     S
C1869  H1906   1.108   .     S
C1869  O1933   1.409   .     S
C1870  S1944   1.779   .     S
C1870  C888    1.406   1_556 S
C1871  H1907   1.105   .     S
C1871  H1908   1.106   .     S
C1871  H1909   1.110   .     S
C1872  C1873   1.523   .     S
C1872  H1911   1.108   .     S
C1872  H1910   1.112   .     S
C1872  O1935   1.420   .     S
C1873  H1915   1.109   .     S
C1873  H1913   1.111   .     S
C1873  H1912   1.109   .     S
C1874  H1916   1.083   .     S
C1875  C1878   1.400   .     A
C1875  H1917   1.083   .     S
C1875  C1661   1.385   1_655 S
C1876  C1878   1.400   .     A
C1876  H1918   1.079   .     S
C1876  C1658   1.381   1_655 S
C1877  H1919   1.083   .     S
Cu1879 O1940   1.964   .     S
Cu1879 N1921   2.030   .     S
Cu1879 O1936   1.961   .     S
Cu1879 Cu1880  2.702   .     S
Cu1879 O1923   1.959   .     S
Cu1879 O1938   1.957   .     S
Cu1880 O1941   1.964   .     S
Cu1880 O1934   1.959   .     S
Cu1880 N1922   2.030   .     S
Cu1880 O1939   1.957   .     S
Cu1880 O1937   1.961   .     S
H1883  C1646   1.110   1_655 S
H1891  O1927   0.991   .     S
H1893  O1930   0.991   .     S
H1896  C1218   1.106   1_565 S
O1925  S1943   1.502   .     D
O1926  S1943   1.503   .     D
O1927  S1943   1.682   .     S
O1928  S1944   1.503   .     D
O1929  S1944   1.500   .     D
O1930  S1944   1.682   .     S
