data_str_m3_o1_o16_pcu_sym.235
_audit_creation_date              2020-01-03
_audit_creation_method            'Materials Studio'
_symmetry_space_group_name_H-M    'P1'
_symmetry_Int_Tables_number       1
_symmetry_cell_setting            triclinic
loop_
_symmetry_equiv_pos_as_xyz
  x,y,z
_cell_length_a                    30.0565
_cell_length_b                    31.8672
_cell_length_c                    25.9076
_cell_angle_alpha                 91.4932
_cell_angle_beta                  74.8093
_cell_angle_gamma                 90.2937
loop_
_atom_site_label
_atom_site_type_symbol
_atom_site_fract_x
_atom_site_fract_y
_atom_site_fract_z
_atom_site_U_iso_or_equiv
_atom_site_adp_type
_atom_site_occupancy
C1     C     0.16703   0.24641   0.24857   0.00000  Uiso   1.00
C2     C     0.16002   0.12099   0.47728   0.00000  Uiso   1.00
C3     C     0.17245   0.12655   0.42220   0.00000  Uiso   1.00
C4     C     0.19040   0.13565   0.00703   0.00000  Uiso   1.00
C5     C     0.23799   0.14125   0.48047   0.00000  Uiso   1.00
C6     C     0.25250   0.13529   0.42388   0.00000  Uiso   1.00
C7     C     0.21964   0.12709   0.39589   0.00000  Uiso   1.00
C8     C     0.17354   0.14919   0.06078   0.00000  Uiso   1.00
C9     C     0.25154   0.16526   0.06465   0.00000  Uiso   1.00
C10    C     0.13675   0.12985   0.39590   0.00000  Uiso   1.00
C11    C     0.18376   0.31244   0.28505   0.00000  Uiso   1.00
C12    C     0.14382   0.15418   0.34641   0.00000  Uiso   1.00
C13    C     0.18402   0.02212   0.28590   0.00000  Uiso   1.00
C14    C     0.16633   0.04283   0.24911   0.00000  Uiso   1.00
C15    C     0.14869   0.02163   0.21121   0.00000  Uiso   1.00
C16    C     0.14996   0.31161   0.20835   0.00000  Uiso   1.00
C17    C     0.16754   0.29070   0.24625   0.00000  Uiso   1.00
C18    C     0.31491   0.13457   0.22587   0.00000  Uiso   1.00
C19    C     0.02929   0.13502   0.22479   0.00000  Uiso   1.00
C20    C     0.01859   0.19892   0.27384   0.00000  Uiso   1.00
C21    C     0.30452   0.19899   0.27364   0.00000  Uiso   1.00
C22    C     0.16658   0.08692   0.24976   0.00000  Uiso   1.00
C23    C     0.19118   0.16671   0.14828   0.00000  Uiso   1.00
C24    C     0.26858   0.15287   0.01173   0.00000  Uiso   1.00
C25    C     0.20481   0.16247   0.08997   0.00000  Uiso   1.00
C26    C     0.09615   0.10753   0.41703   0.00000  Uiso   1.00
C27    C     0.08961   0.08876   0.46695   0.00000  Uiso   1.00
C28    C     0.11897   0.09899   0.49917   0.00000  Uiso   1.00
H29    H     0.27582   0.17409   0.08749   0.00000  Uiso   1.00
H30    H     0.19685   0.03922   0.31576   0.00000  Uiso   1.00
H31    H     0.13585   0.03908   0.18268   0.00000  Uiso   1.00
H32    H     0.07061   0.10384   0.39457   0.00000  Uiso   1.00
H33    H     0.11103   0.08740   0.03946   0.00000  Uiso   1.00
H34    H     0.06060   0.06836   0.48228   0.00000  Uiso   1.00
H35    H     0.23159   0.12097   0.35322   0.00000  Uiso   1.00
H36    H     0.19508   0.29602   0.31537   0.00000  Uiso   1.00
N37    N     0.04760   0.16668   0.25001   0.00000  Uiso   1.00
N38    N     0.28573   0.16665   0.25000   0.00000  Uiso   1.00
O39    O     0.12846   0.22775   0.25000   0.00000  Uiso   1.00
O40    O     0.20490   0.22774   0.25000   0.00000  Uiso   1.00
O41    O     0.10947   0.16666   0.32681   0.00000  Uiso   1.00
O42    O     0.18591   0.16665   0.32681   0.00000  Uiso   1.00
O43    O     0.12843   0.10559   0.24999   0.00000  Uiso   1.00
O44    O     0.20488   0.10558   0.24999   0.00000  Uiso   1.00
O45    O     0.14742   0.16668   0.17319   0.00000  Uiso   1.00
O46    O     0.22387   0.16667   0.17319   0.00000  Uiso   1.00
Zn47   Zn    0.11562   0.16667   0.25000   0.00000  Uiso   1.00
Zn48   Zn    0.21771   0.16666   0.25000   0.00000  Uiso   1.00
C49    C     0.13441   0.28993   0.16464   0.00000  Uiso   1.00
O50    O     0.15206   0.25678   0.14497   0.00000  Uiso   1.00
O51    O     0.10049   0.30839   0.14455   0.00000  Uiso   1.00
H52    H     0.09308   0.29095   0.11458   0.00000  Uiso   1.00
C53    C     0.29789   0.09900   0.19914   0.00000  Uiso   1.00
O54    O     0.29603   0.06407   0.21801   0.00000  Uiso   1.00
O55    O     0.28630   0.10474   0.15105   0.00000  Uiso   1.00
H56    H     0.27540   0.07789   0.13645   0.00000  Uiso   1.00
O57    O     0.05675   0.10334   0.19642   0.00000  Uiso   1.00
H58    H     0.08826   0.11446   0.18413   0.00000  Uiso   1.00
O59    O     0.03416   0.23181   0.29981   0.00000  Uiso   1.00
H60    H     0.05954   0.22133   0.31335   0.00000  Uiso   1.00
C61    C     0.27605   0.23424   0.30197   0.00000  Uiso   1.00
O62    O     0.24188   0.22764   0.33837   0.00000  Uiso   1.00
O63    O     0.29080   0.27538   0.28985   0.00000  Uiso   1.00
H64    H     0.27175   0.29702   0.31552   0.00000  Uiso   1.00
C65    C     0.29971   0.14369   0.39106   0.00000  Uiso   1.00
O66    O     0.31932   0.11807   0.35678   0.00000  Uiso   1.00
O67    O     0.32156   0.18115   0.39905   0.00000  Uiso   1.00
H68    H     0.02239   0.18021   0.38106   0.00000  Uiso   1.00
C69    C     0.31814   0.14476   0.49524   0.00000  Uiso   1.00
O70    O     0.33168   0.11113   0.47364   0.00000  Uiso   1.00
O71    O     0.01557   0.17445   0.00668   0.00000  Uiso   1.00
H72    H     0.04893   0.16546   0.49364   0.00000  Uiso   1.00
O73    O     0.12659   0.15256   0.08239   0.00000  Uiso   1.00
H74    H     0.12039   0.18141   0.09782   0.00000  Uiso   1.00
C75    C     0.50037   0.24641   0.24857   0.00000  Uiso   1.00
C76    C     0.49336   0.12099   0.47728   0.00000  Uiso   1.00
C77    C     0.50578   0.12655   0.42220   0.00000  Uiso   1.00
C78    C     0.52373   0.13565   0.00703   0.00000  Uiso   1.00
C79    C     0.57132   0.14125   0.48047   0.00000  Uiso   1.00
C80    C     0.58583   0.13529   0.42388   0.00000  Uiso   1.00
C81    C     0.55297   0.12709   0.39589   0.00000  Uiso   1.00
C82    C     0.50687   0.14919   0.06078   0.00000  Uiso   1.00
C83    C     0.58487   0.16526   0.06465   0.00000  Uiso   1.00
C84    C     0.47008   0.12985   0.39590   0.00000  Uiso   1.00
C85    C     0.51709   0.31244   0.28505   0.00000  Uiso   1.00
C86    C     0.47715   0.15418   0.34641   0.00000  Uiso   1.00
C87    C     0.51735   0.02212   0.28590   0.00000  Uiso   1.00
C88    C     0.49967   0.04283   0.24911   0.00000  Uiso   1.00
C89    C     0.48203   0.02163   0.21121   0.00000  Uiso   1.00
C90    C     0.48329   0.31161   0.20835   0.00000  Uiso   1.00
C91    C     0.50087   0.29070   0.24625   0.00000  Uiso   1.00
C92    C     0.64824   0.13457   0.22587   0.00000  Uiso   1.00
C93    C     0.36262   0.13502   0.22479   0.00000  Uiso   1.00
C94    C     0.35192   0.19892   0.27384   0.00000  Uiso   1.00
C95    C     0.63786   0.19899   0.27364   0.00000  Uiso   1.00
C96    C     0.49992   0.08692   0.24976   0.00000  Uiso   1.00
C97    C     0.52451   0.16671   0.14828   0.00000  Uiso   1.00
C98    C     0.60191   0.15287   0.01173   0.00000  Uiso   1.00
C99    C     0.53814   0.16247   0.08997   0.00000  Uiso   1.00
C100   C     0.42948   0.10753   0.41703   0.00000  Uiso   1.00
C101   C     0.42295   0.08876   0.46695   0.00000  Uiso   1.00
C102   C     0.45231   0.09899   0.49917   0.00000  Uiso   1.00
H103   H     0.60915   0.17409   0.08749   0.00000  Uiso   1.00
H104   H     0.53018   0.03922   0.31576   0.00000  Uiso   1.00
H105   H     0.46918   0.03908   0.18268   0.00000  Uiso   1.00
H106   H     0.40394   0.10384   0.39457   0.00000  Uiso   1.00
H107   H     0.44436   0.08740   0.03946   0.00000  Uiso   1.00
H108   H     0.39393   0.06836   0.48228   0.00000  Uiso   1.00
H109   H     0.56493   0.12097   0.35322   0.00000  Uiso   1.00
H110   H     0.52841   0.29602   0.31537   0.00000  Uiso   1.00
N111   N     0.38093   0.16668   0.25001   0.00000  Uiso   1.00
N112   N     0.61906   0.16665   0.25000   0.00000  Uiso   1.00
O113   O     0.46179   0.22775   0.25000   0.00000  Uiso   1.00
O114   O     0.53823   0.22774   0.25000   0.00000  Uiso   1.00
O115   O     0.44280   0.16666   0.32681   0.00000  Uiso   1.00
O116   O     0.51924   0.16665   0.32681   0.00000  Uiso   1.00
O117   O     0.46177   0.10559   0.24999   0.00000  Uiso   1.00
O118   O     0.53821   0.10558   0.24999   0.00000  Uiso   1.00
O119   O     0.48076   0.16668   0.17319   0.00000  Uiso   1.00
O120   O     0.55720   0.16667   0.17319   0.00000  Uiso   1.00
Zn121  Zn    0.44896   0.16667   0.25000   0.00000  Uiso   1.00
Zn122  Zn    0.55104   0.16666   0.25000   0.00000  Uiso   1.00
C123   C     0.46774   0.28993   0.16464   0.00000  Uiso   1.00
O124   O     0.48540   0.25678   0.14497   0.00000  Uiso   1.00
O125   O     0.43383   0.30839   0.14455   0.00000  Uiso   1.00
H126   H     0.42641   0.29095   0.11458   0.00000  Uiso   1.00
C127   C     0.63122   0.09900   0.19914   0.00000  Uiso   1.00
O128   O     0.62936   0.06407   0.21801   0.00000  Uiso   1.00
O129   O     0.61964   0.10474   0.15105   0.00000  Uiso   1.00
H130   H     0.60873   0.07789   0.13645   0.00000  Uiso   1.00
O131   O     0.39008   0.10334   0.19642   0.00000  Uiso   1.00
H132   H     0.42160   0.11446   0.18413   0.00000  Uiso   1.00
O133   O     0.36750   0.23181   0.29981   0.00000  Uiso   1.00
H134   H     0.39288   0.22133   0.31335   0.00000  Uiso   1.00
C135   C     0.60939   0.23424   0.30197   0.00000  Uiso   1.00
O136   O     0.57522   0.22764   0.33837   0.00000  Uiso   1.00
O137   O     0.62413   0.27538   0.28985   0.00000  Uiso   1.00
H138   H     0.60509   0.29702   0.31552   0.00000  Uiso   1.00
C139   C     0.63305   0.14369   0.39106   0.00000  Uiso   1.00
O140   O     0.65265   0.11807   0.35678   0.00000  Uiso   1.00
O141   O     0.65489   0.18115   0.39905   0.00000  Uiso   1.00
H142   H     0.35572   0.18021   0.38106   0.00000  Uiso   1.00
C143   C     0.65148   0.14476   0.49524   0.00000  Uiso   1.00
O144   O     0.66502   0.11113   0.47364   0.00000  Uiso   1.00
O145   O     0.34891   0.17445   0.00668   0.00000  Uiso   1.00
H146   H     0.38226   0.16546   0.49364   0.00000  Uiso   1.00
O147   O     0.45992   0.15256   0.08239   0.00000  Uiso   1.00
H148   H     0.45373   0.18141   0.09782   0.00000  Uiso   1.00
C149   C     0.83370   0.24641   0.24857   0.00000  Uiso   1.00
C150   C     0.82669   0.12099   0.47728   0.00000  Uiso   1.00
C151   C     0.83912   0.12655   0.42220   0.00000  Uiso   1.00
C152   C     0.85707   0.13565   0.00703   0.00000  Uiso   1.00
C153   C     0.90465   0.14125   0.48047   0.00000  Uiso   1.00
C154   C     0.91917   0.13529   0.42388   0.00000  Uiso   1.00
C155   C     0.88630   0.12709   0.39589   0.00000  Uiso   1.00
C156   C     0.84021   0.14919   0.06078   0.00000  Uiso   1.00
C157   C     0.91821   0.16526   0.06465   0.00000  Uiso   1.00
C158   C     0.80341   0.12985   0.39590   0.00000  Uiso   1.00
C159   C     0.85043   0.31244   0.28505   0.00000  Uiso   1.00
C160   C     0.81049   0.15418   0.34641   0.00000  Uiso   1.00
C161   C     0.85068   0.02212   0.28590   0.00000  Uiso   1.00
C162   C     0.83300   0.04283   0.24911   0.00000  Uiso   1.00
C163   C     0.81536   0.02163   0.21121   0.00000  Uiso   1.00
C164   C     0.81662   0.31161   0.20835   0.00000  Uiso   1.00
C165   C     0.83420   0.29070   0.24625   0.00000  Uiso   1.00
C166   C     0.98157   0.13457   0.22587   0.00000  Uiso   1.00
C167   C     0.69596   0.13502   0.22479   0.00000  Uiso   1.00
C168   C     0.68526   0.19892   0.27384   0.00000  Uiso   1.00
C169   C     0.97119   0.19899   0.27364   0.00000  Uiso   1.00
C170   C     0.83325   0.08692   0.24976   0.00000  Uiso   1.00
C171   C     0.85784   0.16671   0.14828   0.00000  Uiso   1.00
C172   C     0.93524   0.15287   0.01173   0.00000  Uiso   1.00
C173   C     0.87148   0.16247   0.08997   0.00000  Uiso   1.00
C174   C     0.76282   0.10753   0.41703   0.00000  Uiso   1.00
C175   C     0.75628   0.08876   0.46695   0.00000  Uiso   1.00
C176   C     0.78564   0.09899   0.49917   0.00000  Uiso   1.00
H177   H     0.94249   0.17409   0.08749   0.00000  Uiso   1.00
H178   H     0.86351   0.03922   0.31576   0.00000  Uiso   1.00
H179   H     0.80251   0.03908   0.18268   0.00000  Uiso   1.00
H180   H     0.73727   0.10384   0.39457   0.00000  Uiso   1.00
H181   H     0.77770   0.08740   0.03946   0.00000  Uiso   1.00
H182   H     0.72726   0.06836   0.48228   0.00000  Uiso   1.00
H183   H     0.89826   0.12097   0.35322   0.00000  Uiso   1.00
H184   H     0.86174   0.29602   0.31537   0.00000  Uiso   1.00
N185   N     0.71426   0.16668   0.25001   0.00000  Uiso   1.00
N186   N     0.95239   0.16665   0.25000   0.00000  Uiso   1.00
O187   O     0.79512   0.22775   0.25000   0.00000  Uiso   1.00
O188   O     0.87157   0.22774   0.25000   0.00000  Uiso   1.00
O189   O     0.77613   0.16666   0.32681   0.00000  Uiso   1.00
O190   O     0.85258   0.16665   0.32681   0.00000  Uiso   1.00
O191   O     0.79510   0.10559   0.24999   0.00000  Uiso   1.00
O192   O     0.87154   0.10558   0.24999   0.00000  Uiso   1.00
O193   O     0.81409   0.16668   0.17319   0.00000  Uiso   1.00
O194   O     0.89053   0.16667   0.17319   0.00000  Uiso   1.00
Zn195  Zn    0.78229   0.16667   0.25000   0.00000  Uiso   1.00
Zn196  Zn    0.88438   0.16666   0.25000   0.00000  Uiso   1.00
C197   C     0.80107   0.28993   0.16464   0.00000  Uiso   1.00
O198   O     0.81873   0.25678   0.14497   0.00000  Uiso   1.00
O199   O     0.76716   0.30839   0.14455   0.00000  Uiso   1.00
H200   H     0.75974   0.29095   0.11458   0.00000  Uiso   1.00
C201   C     0.96456   0.09900   0.19914   0.00000  Uiso   1.00
O202   O     0.96269   0.06407   0.21801   0.00000  Uiso   1.00
O203   O     0.95297   0.10474   0.15105   0.00000  Uiso   1.00
H204   H     0.94206   0.07789   0.13645   0.00000  Uiso   1.00
O205   O     0.72341   0.10334   0.19642   0.00000  Uiso   1.00
H206   H     0.75493   0.11446   0.18413   0.00000  Uiso   1.00
O207   O     0.70083   0.23181   0.29981   0.00000  Uiso   1.00
H208   H     0.72621   0.22133   0.31335   0.00000  Uiso   1.00
C209   C     0.94272   0.23424   0.30197   0.00000  Uiso   1.00
O210   O     0.90855   0.22764   0.33837   0.00000  Uiso   1.00
O211   O     0.95746   0.27538   0.28985   0.00000  Uiso   1.00
H212   H     0.93842   0.29702   0.31552   0.00000  Uiso   1.00
C213   C     0.96638   0.14369   0.39106   0.00000  Uiso   1.00
O214   O     0.98598   0.11807   0.35678   0.00000  Uiso   1.00
O215   O     0.98823   0.18115   0.39905   0.00000  Uiso   1.00
H216   H     0.68906   0.18021   0.38106   0.00000  Uiso   1.00
C217   C     0.98481   0.14476   0.49524   0.00000  Uiso   1.00
O218   O     0.99835   0.11113   0.47364   0.00000  Uiso   1.00
O219   O     0.68224   0.17445   0.00668   0.00000  Uiso   1.00
H220   H     0.71560   0.16546   0.49364   0.00000  Uiso   1.00
O221   O     0.79325   0.15256   0.08239   0.00000  Uiso   1.00
H222   H     0.78706   0.18141   0.09782   0.00000  Uiso   1.00
C223   C     0.16703   0.57974   0.24857   0.00000  Uiso   1.00
C224   C     0.16002   0.45433   0.47728   0.00000  Uiso   1.00
C225   C     0.17245   0.45988   0.42220   0.00000  Uiso   1.00
C226   C     0.19040   0.46899   0.00703   0.00000  Uiso   1.00
C227   C     0.23799   0.47459   0.48047   0.00000  Uiso   1.00
C228   C     0.25250   0.46863   0.42388   0.00000  Uiso   1.00
C229   C     0.21964   0.46043   0.39589   0.00000  Uiso   1.00
C230   C     0.17354   0.48252   0.06078   0.00000  Uiso   1.00
C231   C     0.25154   0.49859   0.06465   0.00000  Uiso   1.00
C232   C     0.13675   0.46318   0.39590   0.00000  Uiso   1.00
C233   C     0.18376   0.64577   0.28505   0.00000  Uiso   1.00
C234   C     0.14382   0.48751   0.34641   0.00000  Uiso   1.00
C235   C     0.18402   0.35545   0.28590   0.00000  Uiso   1.00
C236   C     0.16633   0.37617   0.24911   0.00000  Uiso   1.00
C237   C     0.14869   0.35496   0.21121   0.00000  Uiso   1.00
C238   C     0.14996   0.64495   0.20835   0.00000  Uiso   1.00
C239   C     0.16754   0.62403   0.24625   0.00000  Uiso   1.00
C240   C     0.31491   0.46790   0.22587   0.00000  Uiso   1.00
C241   C     0.02929   0.46836   0.22479   0.00000  Uiso   1.00
C242   C     0.01859   0.53226   0.27384   0.00000  Uiso   1.00
C243   C     0.30452   0.53233   0.27364   0.00000  Uiso   1.00
C244   C     0.16658   0.42026   0.24976   0.00000  Uiso   1.00
C245   C     0.19118   0.50004   0.14828   0.00000  Uiso   1.00
C246   C     0.26858   0.48621   0.01173   0.00000  Uiso   1.00
C247   C     0.20481   0.49580   0.08997   0.00000  Uiso   1.00
C248   C     0.09615   0.44086   0.41703   0.00000  Uiso   1.00
C249   C     0.08961   0.42210   0.46695   0.00000  Uiso   1.00
C250   C     0.11897   0.43232   0.49917   0.00000  Uiso   1.00
H251   H     0.27582   0.50743   0.08749   0.00000  Uiso   1.00
H252   H     0.19685   0.37255   0.31576   0.00000  Uiso   1.00
H253   H     0.13585   0.37242   0.18268   0.00000  Uiso   1.00
H254   H     0.07061   0.43717   0.39457   0.00000  Uiso   1.00
H255   H     0.11103   0.42073   0.03946   0.00000  Uiso   1.00
H256   H     0.06060   0.40169   0.48228   0.00000  Uiso   1.00
H257   H     0.23159   0.45431   0.35322   0.00000  Uiso   1.00
H258   H     0.19508   0.62936   0.31537   0.00000  Uiso   1.00
N259   N     0.04760   0.50001   0.25001   0.00000  Uiso   1.00
N260   N     0.28573   0.49998   0.25000   0.00000  Uiso   1.00
O261   O     0.12846   0.56108   0.25000   0.00000  Uiso   1.00
O262   O     0.20490   0.56107   0.25000   0.00000  Uiso   1.00
O263   O     0.10947   0.50000   0.32681   0.00000  Uiso   1.00
O264   O     0.18591   0.49999   0.32681   0.00000  Uiso   1.00
O265   O     0.12843   0.43893   0.24999   0.00000  Uiso   1.00
O266   O     0.20488   0.43892   0.24999   0.00000  Uiso   1.00
O267   O     0.14742   0.50001   0.17319   0.00000  Uiso   1.00
O268   O     0.22387   0.50000   0.17319   0.00000  Uiso   1.00
Zn269  Zn    0.11562   0.50001   0.25000   0.00000  Uiso   1.00
Zn270  Zn    0.21771   0.49999   0.25000   0.00000  Uiso   1.00
C271   C     0.13441   0.62326   0.16464   0.00000  Uiso   1.00
O272   O     0.15206   0.59012   0.14497   0.00000  Uiso   1.00
O273   O     0.10049   0.64172   0.14455   0.00000  Uiso   1.00
H274   H     0.09308   0.62429   0.11458   0.00000  Uiso   1.00
C275   C     0.29789   0.43234   0.19914   0.00000  Uiso   1.00
O276   O     0.29603   0.39740   0.21801   0.00000  Uiso   1.00
O277   O     0.28630   0.43807   0.15105   0.00000  Uiso   1.00
H278   H     0.27540   0.41122   0.13645   0.00000  Uiso   1.00
O279   O     0.05675   0.43667   0.19642   0.00000  Uiso   1.00
H280   H     0.08826   0.44779   0.18413   0.00000  Uiso   1.00
O281   O     0.03416   0.56515   0.29981   0.00000  Uiso   1.00
H282   H     0.05954   0.55466   0.31335   0.00000  Uiso   1.00
C283   C     0.27605   0.56757   0.30197   0.00000  Uiso   1.00
O284   O     0.24188   0.56098   0.33837   0.00000  Uiso   1.00
O285   O     0.29080   0.60872   0.28985   0.00000  Uiso   1.00
H286   H     0.27175   0.63035   0.31552   0.00000  Uiso   1.00
C287   C     0.29971   0.47703   0.39106   0.00000  Uiso   1.00
O288   O     0.31932   0.45140   0.35678   0.00000  Uiso   1.00
O289   O     0.32156   0.51448   0.39905   0.00000  Uiso   1.00
H290   H     0.02239   0.51354   0.38106   0.00000  Uiso   1.00
C291   C     0.31814   0.47809   0.49524   0.00000  Uiso   1.00
O292   O     0.33168   0.44447   0.47364   0.00000  Uiso   1.00
O293   O     0.01557   0.50779   0.00668   0.00000  Uiso   1.00
H294   H     0.04893   0.49879   0.49364   0.00000  Uiso   1.00
O295   O     0.12659   0.48590   0.08239   0.00000  Uiso   1.00
H296   H     0.12039   0.51475   0.09782   0.00000  Uiso   1.00
C297   C     0.50037   0.57974   0.24857   0.00000  Uiso   1.00
C298   C     0.49336   0.45433   0.47728   0.00000  Uiso   1.00
C299   C     0.50578   0.45988   0.42220   0.00000  Uiso   1.00
C300   C     0.52373   0.46899   0.00703   0.00000  Uiso   1.00
C301   C     0.57132   0.47459   0.48047   0.00000  Uiso   1.00
C302   C     0.58583   0.46863   0.42388   0.00000  Uiso   1.00
C303   C     0.55297   0.46043   0.39589   0.00000  Uiso   1.00
C304   C     0.50687   0.48252   0.06078   0.00000  Uiso   1.00
C305   C     0.58487   0.49859   0.06465   0.00000  Uiso   1.00
C306   C     0.47008   0.46318   0.39590   0.00000  Uiso   1.00
C307   C     0.51709   0.64577   0.28505   0.00000  Uiso   1.00
C308   C     0.47715   0.48751   0.34641   0.00000  Uiso   1.00
C309   C     0.51735   0.35545   0.28590   0.00000  Uiso   1.00
C310   C     0.49967   0.37617   0.24911   0.00000  Uiso   1.00
C311   C     0.48203   0.35496   0.21121   0.00000  Uiso   1.00
C312   C     0.48329   0.64495   0.20835   0.00000  Uiso   1.00
C313   C     0.50087   0.62403   0.24625   0.00000  Uiso   1.00
C314   C     0.64824   0.46790   0.22587   0.00000  Uiso   1.00
C315   C     0.36262   0.46836   0.22479   0.00000  Uiso   1.00
C316   C     0.35192   0.53226   0.27384   0.00000  Uiso   1.00
C317   C     0.63786   0.53233   0.27364   0.00000  Uiso   1.00
C318   C     0.49992   0.42026   0.24976   0.00000  Uiso   1.00
C319   C     0.52451   0.50004   0.14828   0.00000  Uiso   1.00
C320   C     0.60191   0.48621   0.01173   0.00000  Uiso   1.00
C321   C     0.53814   0.49580   0.08997   0.00000  Uiso   1.00
C322   C     0.42948   0.44086   0.41703   0.00000  Uiso   1.00
C323   C     0.42295   0.42210   0.46695   0.00000  Uiso   1.00
C324   C     0.45231   0.43232   0.49917   0.00000  Uiso   1.00
H325   H     0.60915   0.50743   0.08749   0.00000  Uiso   1.00
H326   H     0.53018   0.37255   0.31576   0.00000  Uiso   1.00
H327   H     0.46918   0.37242   0.18268   0.00000  Uiso   1.00
H328   H     0.40394   0.43717   0.39457   0.00000  Uiso   1.00
H329   H     0.44436   0.42073   0.03946   0.00000  Uiso   1.00
H330   H     0.39393   0.40169   0.48228   0.00000  Uiso   1.00
H331   H     0.56493   0.45431   0.35322   0.00000  Uiso   1.00
H332   H     0.52841   0.62936   0.31537   0.00000  Uiso   1.00
N333   N     0.38093   0.50001   0.25001   0.00000  Uiso   1.00
N334   N     0.61906   0.49998   0.25000   0.00000  Uiso   1.00
O335   O     0.46179   0.56108   0.25000   0.00000  Uiso   1.00
O336   O     0.53823   0.56107   0.25000   0.00000  Uiso   1.00
O337   O     0.44280   0.50000   0.32681   0.00000  Uiso   1.00
O338   O     0.51924   0.49999   0.32681   0.00000  Uiso   1.00
O339   O     0.46177   0.43893   0.24999   0.00000  Uiso   1.00
O340   O     0.53821   0.43892   0.24999   0.00000  Uiso   1.00
O341   O     0.48076   0.50001   0.17319   0.00000  Uiso   1.00
O342   O     0.55720   0.50000   0.17319   0.00000  Uiso   1.00
Zn343  Zn    0.44896   0.50001   0.25000   0.00000  Uiso   1.00
Zn344  Zn    0.55104   0.49999   0.25000   0.00000  Uiso   1.00
C345   C     0.46774   0.62326   0.16464   0.00000  Uiso   1.00
O346   O     0.48540   0.59012   0.14497   0.00000  Uiso   1.00
O347   O     0.43383   0.64172   0.14455   0.00000  Uiso   1.00
H348   H     0.42641   0.62429   0.11458   0.00000  Uiso   1.00
C349   C     0.63122   0.43234   0.19914   0.00000  Uiso   1.00
O350   O     0.62936   0.39740   0.21801   0.00000  Uiso   1.00
O351   O     0.61964   0.43807   0.15105   0.00000  Uiso   1.00
H352   H     0.60873   0.41122   0.13645   0.00000  Uiso   1.00
O353   O     0.39008   0.43667   0.19642   0.00000  Uiso   1.00
H354   H     0.42160   0.44779   0.18413   0.00000  Uiso   1.00
O355   O     0.36750   0.56515   0.29981   0.00000  Uiso   1.00
H356   H     0.39288   0.55466   0.31335   0.00000  Uiso   1.00
C357   C     0.60939   0.56757   0.30197   0.00000  Uiso   1.00
O358   O     0.57522   0.56098   0.33837   0.00000  Uiso   1.00
O359   O     0.62413   0.60872   0.28985   0.00000  Uiso   1.00
H360   H     0.60509   0.63035   0.31552   0.00000  Uiso   1.00
C361   C     0.63305   0.47703   0.39106   0.00000  Uiso   1.00
O362   O     0.65265   0.45140   0.35678   0.00000  Uiso   1.00
O363   O     0.65489   0.51448   0.39905   0.00000  Uiso   1.00
H364   H     0.35572   0.51354   0.38106   0.00000  Uiso   1.00
C365   C     0.65148   0.47809   0.49524   0.00000  Uiso   1.00
O366   O     0.66502   0.44447   0.47364   0.00000  Uiso   1.00
O367   O     0.34891   0.50779   0.00668   0.00000  Uiso   1.00
H368   H     0.38226   0.49879   0.49364   0.00000  Uiso   1.00
O369   O     0.45992   0.48590   0.08239   0.00000  Uiso   1.00
H370   H     0.45373   0.51475   0.09782   0.00000  Uiso   1.00
C371   C     0.83370   0.57974   0.24857   0.00000  Uiso   1.00
C372   C     0.82669   0.45433   0.47728   0.00000  Uiso   1.00
C373   C     0.83912   0.45988   0.42220   0.00000  Uiso   1.00
C374   C     0.85707   0.46899   0.00703   0.00000  Uiso   1.00
C375   C     0.90465   0.47459   0.48047   0.00000  Uiso   1.00
C376   C     0.91917   0.46863   0.42388   0.00000  Uiso   1.00
C377   C     0.88630   0.46043   0.39589   0.00000  Uiso   1.00
C378   C     0.84021   0.48252   0.06078   0.00000  Uiso   1.00
C379   C     0.91821   0.49859   0.06465   0.00000  Uiso   1.00
C380   C     0.80341   0.46318   0.39590   0.00000  Uiso   1.00
C381   C     0.85043   0.64577   0.28505   0.00000  Uiso   1.00
C382   C     0.81049   0.48751   0.34641   0.00000  Uiso   1.00
C383   C     0.85068   0.35545   0.28590   0.00000  Uiso   1.00
C384   C     0.83300   0.37617   0.24911   0.00000  Uiso   1.00
C385   C     0.81536   0.35496   0.21121   0.00000  Uiso   1.00
C386   C     0.81662   0.64495   0.20835   0.00000  Uiso   1.00
C387   C     0.83420   0.62403   0.24625   0.00000  Uiso   1.00
C388   C     0.98157   0.46790   0.22587   0.00000  Uiso   1.00
C389   C     0.69596   0.46836   0.22479   0.00000  Uiso   1.00
C390   C     0.68526   0.53226   0.27384   0.00000  Uiso   1.00
C391   C     0.97119   0.53233   0.27364   0.00000  Uiso   1.00
C392   C     0.83325   0.42026   0.24976   0.00000  Uiso   1.00
C393   C     0.85784   0.50004   0.14828   0.00000  Uiso   1.00
C394   C     0.93524   0.48621   0.01173   0.00000  Uiso   1.00
C395   C     0.87148   0.49580   0.08997   0.00000  Uiso   1.00
C396   C     0.76282   0.44086   0.41703   0.00000  Uiso   1.00
C397   C     0.75628   0.42210   0.46695   0.00000  Uiso   1.00
C398   C     0.78564   0.43232   0.49917   0.00000  Uiso   1.00
H399   H     0.94249   0.50743   0.08749   0.00000  Uiso   1.00
H400   H     0.86351   0.37255   0.31576   0.00000  Uiso   1.00
H401   H     0.80251   0.37242   0.18268   0.00000  Uiso   1.00
H402   H     0.73727   0.43717   0.39457   0.00000  Uiso   1.00
H403   H     0.77770   0.42073   0.03946   0.00000  Uiso   1.00
H404   H     0.72726   0.40169   0.48228   0.00000  Uiso   1.00
H405   H     0.89826   0.45431   0.35322   0.00000  Uiso   1.00
H406   H     0.86174   0.62936   0.31537   0.00000  Uiso   1.00
N407   N     0.71426   0.50001   0.25001   0.00000  Uiso   1.00
N408   N     0.95239   0.49998   0.25000   0.00000  Uiso   1.00
O409   O     0.79512   0.56108   0.25000   0.00000  Uiso   1.00
O410   O     0.87157   0.56107   0.25000   0.00000  Uiso   1.00
O411   O     0.77613   0.50000   0.32681   0.00000  Uiso   1.00
O412   O     0.85258   0.49999   0.32681   0.00000  Uiso   1.00
O413   O     0.79510   0.43893   0.24999   0.00000  Uiso   1.00
O414   O     0.87154   0.43892   0.24999   0.00000  Uiso   1.00
O415   O     0.81409   0.50001   0.17319   0.00000  Uiso   1.00
O416   O     0.89053   0.50000   0.17319   0.00000  Uiso   1.00
Zn417  Zn    0.78229   0.50001   0.25000   0.00000  Uiso   1.00
Zn418  Zn    0.88438   0.49999   0.25000   0.00000  Uiso   1.00
C419   C     0.80107   0.62326   0.16464   0.00000  Uiso   1.00
O420   O     0.81873   0.59012   0.14497   0.00000  Uiso   1.00
O421   O     0.76716   0.64172   0.14455   0.00000  Uiso   1.00
H422   H     0.75974   0.62429   0.11458   0.00000  Uiso   1.00
C423   C     0.96456   0.43234   0.19914   0.00000  Uiso   1.00
O424   O     0.96269   0.39740   0.21801   0.00000  Uiso   1.00
O425   O     0.95297   0.43807   0.15105   0.00000  Uiso   1.00
H426   H     0.94206   0.41122   0.13645   0.00000  Uiso   1.00
O427   O     0.72341   0.43667   0.19642   0.00000  Uiso   1.00
H428   H     0.75493   0.44779   0.18413   0.00000  Uiso   1.00
O429   O     0.70083   0.56515   0.29981   0.00000  Uiso   1.00
H430   H     0.72621   0.55466   0.31335   0.00000  Uiso   1.00
C431   C     0.94272   0.56757   0.30197   0.00000  Uiso   1.00
O432   O     0.90855   0.56098   0.33837   0.00000  Uiso   1.00
O433   O     0.95746   0.60872   0.28985   0.00000  Uiso   1.00
H434   H     0.93842   0.63035   0.31552   0.00000  Uiso   1.00
C435   C     0.96638   0.47703   0.39106   0.00000  Uiso   1.00
O436   O     0.98598   0.45140   0.35678   0.00000  Uiso   1.00
O437   O     0.98823   0.51448   0.39905   0.00000  Uiso   1.00
H438   H     0.68906   0.51354   0.38106   0.00000  Uiso   1.00
C439   C     0.98481   0.47809   0.49524   0.00000  Uiso   1.00
O440   O     0.99835   0.44447   0.47364   0.00000  Uiso   1.00
O441   O     0.68224   0.50779   0.00668   0.00000  Uiso   1.00
H442   H     0.71560   0.49879   0.49364   0.00000  Uiso   1.00
O443   O     0.79325   0.48590   0.08239   0.00000  Uiso   1.00
H444   H     0.78706   0.51475   0.09782   0.00000  Uiso   1.00
C445   C     0.16703   0.91308   0.24857   0.00000  Uiso   1.00
C446   C     0.16002   0.78766   0.47728   0.00000  Uiso   1.00
C447   C     0.17245   0.79321   0.42220   0.00000  Uiso   1.00
C448   C     0.19040   0.80232   0.00703   0.00000  Uiso   1.00
C449   C     0.23799   0.80792   0.48047   0.00000  Uiso   1.00
C450   C     0.25250   0.80196   0.42388   0.00000  Uiso   1.00
C451   C     0.21964   0.79376   0.39589   0.00000  Uiso   1.00
C452   C     0.17354   0.81586   0.06078   0.00000  Uiso   1.00
C453   C     0.25154   0.83193   0.06465   0.00000  Uiso   1.00
C454   C     0.13675   0.79651   0.39590   0.00000  Uiso   1.00
C455   C     0.18376   0.97910   0.28505   0.00000  Uiso   1.00
C456   C     0.14382   0.82085   0.34641   0.00000  Uiso   1.00
C457   C     0.18402   0.68878   0.28590   0.00000  Uiso   1.00
C458   C     0.16633   0.70950   0.24911   0.00000  Uiso   1.00
C459   C     0.14869   0.68830   0.21121   0.00000  Uiso   1.00
C460   C     0.14996   0.97828   0.20835   0.00000  Uiso   1.00
C461   C     0.16754   0.95736   0.24625   0.00000  Uiso   1.00
C462   C     0.31491   0.80123   0.22587   0.00000  Uiso   1.00
C463   C     0.02929   0.80169   0.22479   0.00000  Uiso   1.00
C464   C     0.01859   0.86559   0.27384   0.00000  Uiso   1.00
C465   C     0.30452   0.86566   0.27364   0.00000  Uiso   1.00
C466   C     0.16658   0.75359   0.24976   0.00000  Uiso   1.00
C467   C     0.19118   0.83337   0.14828   0.00000  Uiso   1.00
C468   C     0.26858   0.81954   0.01173   0.00000  Uiso   1.00
C469   C     0.20481   0.82914   0.08997   0.00000  Uiso   1.00
C470   C     0.09615   0.77420   0.41703   0.00000  Uiso   1.00
C471   C     0.08961   0.75543   0.46695   0.00000  Uiso   1.00
C472   C     0.11897   0.76565   0.49917   0.00000  Uiso   1.00
H473   H     0.27582   0.84076   0.08749   0.00000  Uiso   1.00
H474   H     0.19685   0.70588   0.31576   0.00000  Uiso   1.00
H475   H     0.13585   0.70575   0.18268   0.00000  Uiso   1.00
H476   H     0.07061   0.77051   0.39457   0.00000  Uiso   1.00
H477   H     0.11103   0.75406   0.03946   0.00000  Uiso   1.00
H478   H     0.06060   0.73502   0.48228   0.00000  Uiso   1.00
H479   H     0.23159   0.78764   0.35322   0.00000  Uiso   1.00
H480   H     0.19508   0.96269   0.31537   0.00000  Uiso   1.00
N481   N     0.04760   0.83334   0.25001   0.00000  Uiso   1.00
N482   N     0.28573   0.83331   0.25000   0.00000  Uiso   1.00
O483   O     0.12846   0.89442   0.25000   0.00000  Uiso   1.00
O484   O     0.20490   0.89441   0.25000   0.00000  Uiso   1.00
O485   O     0.10947   0.83333   0.32681   0.00000  Uiso   1.00
O486   O     0.18591   0.83332   0.32681   0.00000  Uiso   1.00
O487   O     0.12843   0.77226   0.24999   0.00000  Uiso   1.00
O488   O     0.20488   0.77225   0.24999   0.00000  Uiso   1.00
O489   O     0.14742   0.83335   0.17319   0.00000  Uiso   1.00
O490   O     0.22387   0.83334   0.17319   0.00000  Uiso   1.00
Zn491  Zn    0.11562   0.83334   0.25000   0.00000  Uiso   1.00
Zn492  Zn    0.21771   0.83333   0.25000   0.00000  Uiso   1.00
C493   C     0.13441   0.95659   0.16464   0.00000  Uiso   1.00
O494   O     0.15206   0.92345   0.14497   0.00000  Uiso   1.00
O495   O     0.10049   0.97506   0.14455   0.00000  Uiso   1.00
H496   H     0.09308   0.95762   0.11458   0.00000  Uiso   1.00
C497   C     0.29789   0.76567   0.19914   0.00000  Uiso   1.00
O498   O     0.29603   0.73073   0.21801   0.00000  Uiso   1.00
O499   O     0.28630   0.77141   0.15105   0.00000  Uiso   1.00
H500   H     0.27540   0.74455   0.13645   0.00000  Uiso   1.00
O501   O     0.05675   0.77000   0.19642   0.00000  Uiso   1.00
H502   H     0.08826   0.78113   0.18413   0.00000  Uiso   1.00
O503   O     0.03416   0.89848   0.29981   0.00000  Uiso   1.00
H504   H     0.05954   0.88800   0.31335   0.00000  Uiso   1.00
C505   C     0.27605   0.90090   0.30197   0.00000  Uiso   1.00
O506   O     0.24188   0.89431   0.33837   0.00000  Uiso   1.00
O507   O     0.29080   0.94205   0.28985   0.00000  Uiso   1.00
H508   H     0.27175   0.96369   0.31552   0.00000  Uiso   1.00
C509   C     0.29971   0.81036   0.39106   0.00000  Uiso   1.00
O510   O     0.31932   0.78473   0.35678   0.00000  Uiso   1.00
O511   O     0.32156   0.84781   0.39905   0.00000  Uiso   1.00
H512   H     0.02239   0.84688   0.38106   0.00000  Uiso   1.00
C513   C     0.31814   0.81142   0.49524   0.00000  Uiso   1.00
O514   O     0.33168   0.77780   0.47364   0.00000  Uiso   1.00
O515   O     0.01557   0.84112   0.00668   0.00000  Uiso   1.00
H516   H     0.04893   0.83212   0.49364   0.00000  Uiso   1.00
O517   O     0.12659   0.81923   0.08239   0.00000  Uiso   1.00
H518   H     0.12039   0.84808   0.09782   0.00000  Uiso   1.00
C519   C     0.50037   0.91308   0.24857   0.00000  Uiso   1.00
C520   C     0.49336   0.78766   0.47728   0.00000  Uiso   1.00
C521   C     0.50578   0.79321   0.42220   0.00000  Uiso   1.00
C522   C     0.52373   0.80232   0.00703   0.00000  Uiso   1.00
C523   C     0.57132   0.80792   0.48047   0.00000  Uiso   1.00
C524   C     0.58583   0.80196   0.42388   0.00000  Uiso   1.00
C525   C     0.55297   0.79376   0.39589   0.00000  Uiso   1.00
C526   C     0.50687   0.81586   0.06078   0.00000  Uiso   1.00
C527   C     0.58487   0.83193   0.06465   0.00000  Uiso   1.00
C528   C     0.47008   0.79651   0.39590   0.00000  Uiso   1.00
C529   C     0.51709   0.97910   0.28505   0.00000  Uiso   1.00
C530   C     0.47715   0.82085   0.34641   0.00000  Uiso   1.00
C531   C     0.51735   0.68878   0.28590   0.00000  Uiso   1.00
C532   C     0.49967   0.70950   0.24911   0.00000  Uiso   1.00
C533   C     0.48203   0.68830   0.21121   0.00000  Uiso   1.00
C534   C     0.48329   0.97828   0.20835   0.00000  Uiso   1.00
C535   C     0.50087   0.95736   0.24625   0.00000  Uiso   1.00
C536   C     0.64824   0.80123   0.22587   0.00000  Uiso   1.00
C537   C     0.36262   0.80169   0.22479   0.00000  Uiso   1.00
C538   C     0.35192   0.86559   0.27384   0.00000  Uiso   1.00
C539   C     0.63786   0.86566   0.27364   0.00000  Uiso   1.00
C540   C     0.49992   0.75359   0.24976   0.00000  Uiso   1.00
C541   C     0.52451   0.83337   0.14828   0.00000  Uiso   1.00
C542   C     0.60191   0.81954   0.01173   0.00000  Uiso   1.00
C543   C     0.53814   0.82914   0.08997   0.00000  Uiso   1.00
C544   C     0.42948   0.77420   0.41703   0.00000  Uiso   1.00
C545   C     0.42295   0.75543   0.46695   0.00000  Uiso   1.00
C546   C     0.45231   0.76565   0.49917   0.00000  Uiso   1.00
H547   H     0.60915   0.84076   0.08749   0.00000  Uiso   1.00
H548   H     0.53018   0.70588   0.31576   0.00000  Uiso   1.00
H549   H     0.46918   0.70575   0.18268   0.00000  Uiso   1.00
H550   H     0.40394   0.77051   0.39457   0.00000  Uiso   1.00
H551   H     0.44436   0.75406   0.03946   0.00000  Uiso   1.00
H552   H     0.39393   0.73502   0.48228   0.00000  Uiso   1.00
H553   H     0.56493   0.78764   0.35322   0.00000  Uiso   1.00
H554   H     0.52841   0.96269   0.31537   0.00000  Uiso   1.00
N555   N     0.38093   0.83334   0.25001   0.00000  Uiso   1.00
N556   N     0.61906   0.83331   0.25000   0.00000  Uiso   1.00
O557   O     0.46179   0.89442   0.25000   0.00000  Uiso   1.00
O558   O     0.53823   0.89441   0.25000   0.00000  Uiso   1.00
O559   O     0.44280   0.83333   0.32681   0.00000  Uiso   1.00
O560   O     0.51924   0.83332   0.32681   0.00000  Uiso   1.00
O561   O     0.46177   0.77226   0.24999   0.00000  Uiso   1.00
O562   O     0.53821   0.77225   0.24999   0.00000  Uiso   1.00
O563   O     0.48076   0.83335   0.17319   0.00000  Uiso   1.00
O564   O     0.55720   0.83334   0.17319   0.00000  Uiso   1.00
Zn565  Zn    0.44896   0.83334   0.25000   0.00000  Uiso   1.00
Zn566  Zn    0.55104   0.83333   0.25000   0.00000  Uiso   1.00
C567   C     0.46774   0.95659   0.16464   0.00000  Uiso   1.00
O568   O     0.48540   0.92345   0.14497   0.00000  Uiso   1.00
O569   O     0.43383   0.97506   0.14455   0.00000  Uiso   1.00
H570   H     0.42641   0.95762   0.11458   0.00000  Uiso   1.00
C571   C     0.63122   0.76567   0.19914   0.00000  Uiso   1.00
O572   O     0.62936   0.73073   0.21801   0.00000  Uiso   1.00
O573   O     0.61964   0.77141   0.15105   0.00000  Uiso   1.00
H574   H     0.60873   0.74455   0.13645   0.00000  Uiso   1.00
O575   O     0.39008   0.77000   0.19642   0.00000  Uiso   1.00
H576   H     0.42160   0.78113   0.18413   0.00000  Uiso   1.00
O577   O     0.36750   0.89848   0.29981   0.00000  Uiso   1.00
H578   H     0.39288   0.88800   0.31335   0.00000  Uiso   1.00
C579   C     0.60939   0.90090   0.30197   0.00000  Uiso   1.00
O580   O     0.57522   0.89431   0.33837   0.00000  Uiso   1.00
O581   O     0.62413   0.94205   0.28985   0.00000  Uiso   1.00
H582   H     0.60509   0.96369   0.31552   0.00000  Uiso   1.00
C583   C     0.63305   0.81036   0.39106   0.00000  Uiso   1.00
O584   O     0.65265   0.78473   0.35678   0.00000  Uiso   1.00
O585   O     0.65489   0.84781   0.39905   0.00000  Uiso   1.00
H586   H     0.35572   0.84688   0.38106   0.00000  Uiso   1.00
C587   C     0.65148   0.81142   0.49524   0.00000  Uiso   1.00
O588   O     0.66502   0.77780   0.47364   0.00000  Uiso   1.00
O589   O     0.34891   0.84112   0.00668   0.00000  Uiso   1.00
H590   H     0.38226   0.83212   0.49364   0.00000  Uiso   1.00
O591   O     0.45992   0.81923   0.08239   0.00000  Uiso   1.00
H592   H     0.45373   0.84808   0.09782   0.00000  Uiso   1.00
C593   C     0.83370   0.91308   0.24857   0.00000  Uiso   1.00
C594   C     0.82669   0.78766   0.47728   0.00000  Uiso   1.00
C595   C     0.83912   0.79321   0.42220   0.00000  Uiso   1.00
C596   C     0.85707   0.80232   0.00703   0.00000  Uiso   1.00
C597   C     0.90465   0.80792   0.48047   0.00000  Uiso   1.00
C598   C     0.91917   0.80196   0.42388   0.00000  Uiso   1.00
C599   C     0.88630   0.79376   0.39589   0.00000  Uiso   1.00
C600   C     0.84021   0.81586   0.06078   0.00000  Uiso   1.00
C601   C     0.91821   0.83193   0.06465   0.00000  Uiso   1.00
C602   C     0.80341   0.79651   0.39590   0.00000  Uiso   1.00
C603   C     0.85043   0.97910   0.28505   0.00000  Uiso   1.00
C604   C     0.81049   0.82085   0.34641   0.00000  Uiso   1.00
C605   C     0.85068   0.68878   0.28590   0.00000  Uiso   1.00
C606   C     0.83300   0.70950   0.24911   0.00000  Uiso   1.00
C607   C     0.81536   0.68830   0.21121   0.00000  Uiso   1.00
C608   C     0.81662   0.97828   0.20835   0.00000  Uiso   1.00
C609   C     0.83420   0.95736   0.24625   0.00000  Uiso   1.00
C610   C     0.98157   0.80123   0.22587   0.00000  Uiso   1.00
C611   C     0.69596   0.80169   0.22479   0.00000  Uiso   1.00
C612   C     0.68526   0.86559   0.27384   0.00000  Uiso   1.00
C613   C     0.97119   0.86566   0.27364   0.00000  Uiso   1.00
C614   C     0.83325   0.75359   0.24976   0.00000  Uiso   1.00
C615   C     0.85784   0.83337   0.14828   0.00000  Uiso   1.00
C616   C     0.93524   0.81954   0.01173   0.00000  Uiso   1.00
C617   C     0.87148   0.82914   0.08997   0.00000  Uiso   1.00
C618   C     0.76282   0.77420   0.41703   0.00000  Uiso   1.00
C619   C     0.75628   0.75543   0.46695   0.00000  Uiso   1.00
C620   C     0.78564   0.76565   0.49917   0.00000  Uiso   1.00
H621   H     0.94249   0.84076   0.08749   0.00000  Uiso   1.00
H622   H     0.86351   0.70588   0.31576   0.00000  Uiso   1.00
H623   H     0.80251   0.70575   0.18268   0.00000  Uiso   1.00
H624   H     0.73727   0.77051   0.39457   0.00000  Uiso   1.00
H625   H     0.77770   0.75406   0.03946   0.00000  Uiso   1.00
H626   H     0.72726   0.73502   0.48228   0.00000  Uiso   1.00
H627   H     0.89826   0.78764   0.35322   0.00000  Uiso   1.00
H628   H     0.86174   0.96269   0.31537   0.00000  Uiso   1.00
N629   N     0.71426   0.83334   0.25001   0.00000  Uiso   1.00
N630   N     0.95239   0.83331   0.25000   0.00000  Uiso   1.00
O631   O     0.79512   0.89442   0.25000   0.00000  Uiso   1.00
O632   O     0.87157   0.89441   0.25000   0.00000  Uiso   1.00
O633   O     0.77613   0.83333   0.32681   0.00000  Uiso   1.00
O634   O     0.85258   0.83332   0.32681   0.00000  Uiso   1.00
O635   O     0.79510   0.77226   0.24999   0.00000  Uiso   1.00
O636   O     0.87154   0.77225   0.24999   0.00000  Uiso   1.00
O637   O     0.81409   0.83335   0.17319   0.00000  Uiso   1.00
O638   O     0.89053   0.83334   0.17319   0.00000  Uiso   1.00
Zn639  Zn    0.78229   0.83334   0.25000   0.00000  Uiso   1.00
Zn640  Zn    0.88438   0.83333   0.25000   0.00000  Uiso   1.00
C641   C     0.80107   0.95659   0.16464   0.00000  Uiso   1.00
O642   O     0.81873   0.92345   0.14497   0.00000  Uiso   1.00
O643   O     0.76716   0.97506   0.14455   0.00000  Uiso   1.00
H644   H     0.75974   0.95762   0.11458   0.00000  Uiso   1.00
C645   C     0.96456   0.76567   0.19914   0.00000  Uiso   1.00
O646   O     0.96269   0.73073   0.21801   0.00000  Uiso   1.00
O647   O     0.95297   0.77141   0.15105   0.00000  Uiso   1.00
H648   H     0.94206   0.74455   0.13645   0.00000  Uiso   1.00
O649   O     0.72341   0.77000   0.19642   0.00000  Uiso   1.00
H650   H     0.75493   0.78113   0.18413   0.00000  Uiso   1.00
O651   O     0.70083   0.89848   0.29981   0.00000  Uiso   1.00
H652   H     0.72621   0.88800   0.31335   0.00000  Uiso   1.00
C653   C     0.94272   0.90090   0.30197   0.00000  Uiso   1.00
O654   O     0.90855   0.89431   0.33837   0.00000  Uiso   1.00
O655   O     0.95746   0.94205   0.28985   0.00000  Uiso   1.00
H656   H     0.93842   0.96369   0.31552   0.00000  Uiso   1.00
C657   C     0.96638   0.81036   0.39106   0.00000  Uiso   1.00
O658   O     0.98598   0.78473   0.35678   0.00000  Uiso   1.00
O659   O     0.98823   0.84781   0.39905   0.00000  Uiso   1.00
H660   H     0.68906   0.84688   0.38106   0.00000  Uiso   1.00
C661   C     0.98481   0.81142   0.49524   0.00000  Uiso   1.00
O662   O     0.99835   0.77780   0.47364   0.00000  Uiso   1.00
O663   O     0.68224   0.84112   0.00668   0.00000  Uiso   1.00
H664   H     0.71560   0.83212   0.49364   0.00000  Uiso   1.00
O665   O     0.79325   0.81923   0.08239   0.00000  Uiso   1.00
H666   H     0.78706   0.84808   0.09782   0.00000  Uiso   1.00
C667   C     0.16703   0.24641   0.74857   0.00000  Uiso   1.00
C668   C     0.16002   0.12099   0.97728   0.00000  Uiso   1.00
C669   C     0.17245   0.12655   0.92220   0.00000  Uiso   1.00
C670   C     0.19040   0.13565   0.50703   0.00000  Uiso   1.00
C671   C     0.23799   0.14125   0.98047   0.00000  Uiso   1.00
C672   C     0.25250   0.13529   0.92388   0.00000  Uiso   1.00
C673   C     0.21964   0.12709   0.89589   0.00000  Uiso   1.00
C674   C     0.17354   0.14919   0.56078   0.00000  Uiso   1.00
C675   C     0.25154   0.16526   0.56465   0.00000  Uiso   1.00
C676   C     0.13675   0.12985   0.89590   0.00000  Uiso   1.00
C677   C     0.18376   0.31244   0.78505   0.00000  Uiso   1.00
C678   C     0.14382   0.15418   0.84641   0.00000  Uiso   1.00
C679   C     0.18402   0.02212   0.78590   0.00000  Uiso   1.00
C680   C     0.16633   0.04283   0.74911   0.00000  Uiso   1.00
C681   C     0.14869   0.02163   0.71121   0.00000  Uiso   1.00
C682   C     0.14996   0.31161   0.70835   0.00000  Uiso   1.00
C683   C     0.16754   0.29070   0.74625   0.00000  Uiso   1.00
C684   C     0.31491   0.13457   0.72587   0.00000  Uiso   1.00
C685   C     0.02929   0.13502   0.72479   0.00000  Uiso   1.00
C686   C     0.01859   0.19892   0.77384   0.00000  Uiso   1.00
C687   C     0.30452   0.19899   0.77364   0.00000  Uiso   1.00
C688   C     0.16658   0.08692   0.74976   0.00000  Uiso   1.00
C689   C     0.19118   0.16671   0.64828   0.00000  Uiso   1.00
C690   C     0.26858   0.15287   0.51173   0.00000  Uiso   1.00
C691   C     0.20481   0.16247   0.58997   0.00000  Uiso   1.00
C692   C     0.09615   0.10753   0.91703   0.00000  Uiso   1.00
C693   C     0.08961   0.08876   0.96695   0.00000  Uiso   1.00
C694   C     0.11897   0.09899   0.99917   0.00000  Uiso   1.00
H695   H     0.27582   0.17409   0.58749   0.00000  Uiso   1.00
H696   H     0.19685   0.03922   0.81576   0.00000  Uiso   1.00
H697   H     0.13585   0.03908   0.68268   0.00000  Uiso   1.00
H698   H     0.07061   0.10384   0.89457   0.00000  Uiso   1.00
H699   H     0.11103   0.08740   0.53946   0.00000  Uiso   1.00
H700   H     0.06060   0.06836   0.98228   0.00000  Uiso   1.00
H701   H     0.23159   0.12097   0.85322   0.00000  Uiso   1.00
H702   H     0.19508   0.29602   0.81537   0.00000  Uiso   1.00
N703   N     0.04760   0.16668   0.75001   0.00000  Uiso   1.00
N704   N     0.28573   0.16665   0.75000   0.00000  Uiso   1.00
O705   O     0.12846   0.22775   0.75000   0.00000  Uiso   1.00
O706   O     0.20490   0.22774   0.75000   0.00000  Uiso   1.00
O707   O     0.10947   0.16666   0.82681   0.00000  Uiso   1.00
O708   O     0.18591   0.16665   0.82681   0.00000  Uiso   1.00
O709   O     0.12843   0.10559   0.74999   0.00000  Uiso   1.00
O710   O     0.20488   0.10558   0.74999   0.00000  Uiso   1.00
O711   O     0.14742   0.16668   0.67319   0.00000  Uiso   1.00
O712   O     0.22387   0.16667   0.67319   0.00000  Uiso   1.00
Zn713  Zn    0.11562   0.16667   0.75000   0.00000  Uiso   1.00
Zn714  Zn    0.21771   0.16666   0.75000   0.00000  Uiso   1.00
C715   C     0.13441   0.28993   0.66464   0.00000  Uiso   1.00
O716   O     0.15206   0.25678   0.64497   0.00000  Uiso   1.00
O717   O     0.10049   0.30839   0.64455   0.00000  Uiso   1.00
H718   H     0.09308   0.29095   0.61458   0.00000  Uiso   1.00
C719   C     0.29789   0.09900   0.69914   0.00000  Uiso   1.00
O720   O     0.29603   0.06407   0.71801   0.00000  Uiso   1.00
O721   O     0.28630   0.10474   0.65105   0.00000  Uiso   1.00
H722   H     0.27540   0.07789   0.63645   0.00000  Uiso   1.00
O723   O     0.05675   0.10334   0.69642   0.00000  Uiso   1.00
H724   H     0.08826   0.11446   0.68413   0.00000  Uiso   1.00
O725   O     0.03416   0.23181   0.79981   0.00000  Uiso   1.00
H726   H     0.05954   0.22133   0.81335   0.00000  Uiso   1.00
C727   C     0.27605   0.23424   0.80197   0.00000  Uiso   1.00
O728   O     0.24188   0.22764   0.83837   0.00000  Uiso   1.00
O729   O     0.29080   0.27538   0.78985   0.00000  Uiso   1.00
H730   H     0.27175   0.29702   0.81552   0.00000  Uiso   1.00
C731   C     0.29971   0.14369   0.89106   0.00000  Uiso   1.00
O732   O     0.31932   0.11807   0.85678   0.00000  Uiso   1.00
O733   O     0.32156   0.18115   0.89905   0.00000  Uiso   1.00
H734   H     0.02239   0.18021   0.88106   0.00000  Uiso   1.00
C735   C     0.31814   0.14476   0.99524   0.00000  Uiso   1.00
O736   O     0.33168   0.11113   0.97364   0.00000  Uiso   1.00
O737   O     0.01557   0.17445   0.50668   0.00000  Uiso   1.00
H738   H     0.04893   0.16546   0.99364   0.00000  Uiso   1.00
O739   O     0.12659   0.15256   0.58239   0.00000  Uiso   1.00
H740   H     0.12039   0.18141   0.59782   0.00000  Uiso   1.00
C741   C     0.50037   0.24641   0.74857   0.00000  Uiso   1.00
C742   C     0.49336   0.12099   0.97728   0.00000  Uiso   1.00
C743   C     0.50578   0.12655   0.92220   0.00000  Uiso   1.00
C744   C     0.52373   0.13565   0.50703   0.00000  Uiso   1.00
C745   C     0.57132   0.14125   0.98047   0.00000  Uiso   1.00
C746   C     0.58583   0.13529   0.92388   0.00000  Uiso   1.00
C747   C     0.55297   0.12709   0.89589   0.00000  Uiso   1.00
C748   C     0.50687   0.14919   0.56078   0.00000  Uiso   1.00
C749   C     0.58487   0.16526   0.56465   0.00000  Uiso   1.00
C750   C     0.47008   0.12985   0.89590   0.00000  Uiso   1.00
C751   C     0.51709   0.31244   0.78505   0.00000  Uiso   1.00
C752   C     0.47715   0.15418   0.84641   0.00000  Uiso   1.00
C753   C     0.51735   0.02212   0.78590   0.00000  Uiso   1.00
C754   C     0.49967   0.04283   0.74911   0.00000  Uiso   1.00
C755   C     0.48203   0.02163   0.71121   0.00000  Uiso   1.00
C756   C     0.48329   0.31161   0.70835   0.00000  Uiso   1.00
C757   C     0.50087   0.29070   0.74625   0.00000  Uiso   1.00
C758   C     0.64824   0.13457   0.72587   0.00000  Uiso   1.00
C759   C     0.36262   0.13502   0.72479   0.00000  Uiso   1.00
C760   C     0.35192   0.19892   0.77384   0.00000  Uiso   1.00
C761   C     0.63786   0.19899   0.77364   0.00000  Uiso   1.00
C762   C     0.49992   0.08692   0.74976   0.00000  Uiso   1.00
C763   C     0.52451   0.16671   0.64828   0.00000  Uiso   1.00
C764   C     0.60191   0.15287   0.51173   0.00000  Uiso   1.00
C765   C     0.53814   0.16247   0.58997   0.00000  Uiso   1.00
C766   C     0.42948   0.10753   0.91703   0.00000  Uiso   1.00
C767   C     0.42295   0.08876   0.96695   0.00000  Uiso   1.00
C768   C     0.45231   0.09899   0.99917   0.00000  Uiso   1.00
H769   H     0.60915   0.17409   0.58749   0.00000  Uiso   1.00
H770   H     0.53018   0.03922   0.81576   0.00000  Uiso   1.00
H771   H     0.46918   0.03908   0.68268   0.00000  Uiso   1.00
H772   H     0.40394   0.10384   0.89457   0.00000  Uiso   1.00
H773   H     0.44436   0.08740   0.53946   0.00000  Uiso   1.00
H774   H     0.39393   0.06836   0.98228   0.00000  Uiso   1.00
H775   H     0.56493   0.12097   0.85322   0.00000  Uiso   1.00
H776   H     0.52841   0.29602   0.81537   0.00000  Uiso   1.00
N777   N     0.38093   0.16668   0.75001   0.00000  Uiso   1.00
N778   N     0.61906   0.16665   0.75000   0.00000  Uiso   1.00
O779   O     0.46179   0.22775   0.75000   0.00000  Uiso   1.00
O780   O     0.53823   0.22774   0.75000   0.00000  Uiso   1.00
O781   O     0.44280   0.16666   0.82681   0.00000  Uiso   1.00
O782   O     0.51924   0.16665   0.82681   0.00000  Uiso   1.00
O783   O     0.46177   0.10559   0.74999   0.00000  Uiso   1.00
O784   O     0.53821   0.10558   0.74999   0.00000  Uiso   1.00
O785   O     0.48076   0.16668   0.67319   0.00000  Uiso   1.00
O786   O     0.55720   0.16667   0.67319   0.00000  Uiso   1.00
Zn787  Zn    0.44896   0.16667   0.75000   0.00000  Uiso   1.00
Zn788  Zn    0.55104   0.16666   0.75000   0.00000  Uiso   1.00
C789   C     0.46774   0.28993   0.66464   0.00000  Uiso   1.00
O790   O     0.48540   0.25678   0.64497   0.00000  Uiso   1.00
O791   O     0.43383   0.30839   0.64455   0.00000  Uiso   1.00
H792   H     0.42641   0.29095   0.61458   0.00000  Uiso   1.00
C793   C     0.63122   0.09900   0.69914   0.00000  Uiso   1.00
O794   O     0.62936   0.06407   0.71801   0.00000  Uiso   1.00
O795   O     0.61964   0.10474   0.65105   0.00000  Uiso   1.00
H796   H     0.60873   0.07789   0.63645   0.00000  Uiso   1.00
O797   O     0.39008   0.10334   0.69642   0.00000  Uiso   1.00
H798   H     0.42160   0.11446   0.68413   0.00000  Uiso   1.00
O799   O     0.36750   0.23181   0.79981   0.00000  Uiso   1.00
H800   H     0.39288   0.22133   0.81335   0.00000  Uiso   1.00
C801   C     0.60939   0.23424   0.80197   0.00000  Uiso   1.00
O802   O     0.57522   0.22764   0.83837   0.00000  Uiso   1.00
O803   O     0.62413   0.27538   0.78985   0.00000  Uiso   1.00
H804   H     0.60509   0.29702   0.81552   0.00000  Uiso   1.00
C805   C     0.63305   0.14369   0.89106   0.00000  Uiso   1.00
O806   O     0.65265   0.11807   0.85678   0.00000  Uiso   1.00
O807   O     0.65489   0.18115   0.89905   0.00000  Uiso   1.00
H808   H     0.35572   0.18021   0.88106   0.00000  Uiso   1.00
C809   C     0.65148   0.14476   0.99524   0.00000  Uiso   1.00
O810   O     0.66502   0.11113   0.97364   0.00000  Uiso   1.00
O811   O     0.34891   0.17445   0.50668   0.00000  Uiso   1.00
H812   H     0.38226   0.16546   0.99364   0.00000  Uiso   1.00
O813   O     0.45992   0.15256   0.58239   0.00000  Uiso   1.00
H814   H     0.45373   0.18141   0.59782   0.00000  Uiso   1.00
C815   C     0.83370   0.24641   0.74857   0.00000  Uiso   1.00
C816   C     0.82669   0.12099   0.97728   0.00000  Uiso   1.00
C817   C     0.83912   0.12655   0.92220   0.00000  Uiso   1.00
C818   C     0.85707   0.13565   0.50703   0.00000  Uiso   1.00
C819   C     0.90465   0.14125   0.98047   0.00000  Uiso   1.00
C820   C     0.91917   0.13529   0.92388   0.00000  Uiso   1.00
C821   C     0.88630   0.12709   0.89589   0.00000  Uiso   1.00
C822   C     0.84021   0.14919   0.56078   0.00000  Uiso   1.00
C823   C     0.91821   0.16526   0.56465   0.00000  Uiso   1.00
C824   C     0.80341   0.12985   0.89590   0.00000  Uiso   1.00
C825   C     0.85043   0.31244   0.78505   0.00000  Uiso   1.00
C826   C     0.81049   0.15418   0.84641   0.00000  Uiso   1.00
C827   C     0.85068   0.02212   0.78590   0.00000  Uiso   1.00
C828   C     0.83300   0.04283   0.74911   0.00000  Uiso   1.00
C829   C     0.81536   0.02163   0.71121   0.00000  Uiso   1.00
C830   C     0.81662   0.31161   0.70835   0.00000  Uiso   1.00
C831   C     0.83420   0.29070   0.74625   0.00000  Uiso   1.00
C832   C     0.98157   0.13457   0.72587   0.00000  Uiso   1.00
C833   C     0.69596   0.13502   0.72479   0.00000  Uiso   1.00
C834   C     0.68526   0.19892   0.77384   0.00000  Uiso   1.00
C835   C     0.97119   0.19899   0.77364   0.00000  Uiso   1.00
C836   C     0.83325   0.08692   0.74976   0.00000  Uiso   1.00
C837   C     0.85784   0.16671   0.64828   0.00000  Uiso   1.00
C838   C     0.93524   0.15287   0.51173   0.00000  Uiso   1.00
C839   C     0.87148   0.16247   0.58997   0.00000  Uiso   1.00
C840   C     0.76282   0.10753   0.91703   0.00000  Uiso   1.00
C841   C     0.75628   0.08876   0.96695   0.00000  Uiso   1.00
C842   C     0.78564   0.09899   0.99917   0.00000  Uiso   1.00
H843   H     0.94249   0.17409   0.58749   0.00000  Uiso   1.00
H844   H     0.86351   0.03922   0.81576   0.00000  Uiso   1.00
H845   H     0.80251   0.03908   0.68268   0.00000  Uiso   1.00
H846   H     0.73727   0.10384   0.89457   0.00000  Uiso   1.00
H847   H     0.77770   0.08740   0.53946   0.00000  Uiso   1.00
H848   H     0.72726   0.06836   0.98228   0.00000  Uiso   1.00
H849   H     0.89826   0.12097   0.85322   0.00000  Uiso   1.00
H850   H     0.86174   0.29602   0.81537   0.00000  Uiso   1.00
N851   N     0.71426   0.16668   0.75001   0.00000  Uiso   1.00
N852   N     0.95239   0.16665   0.75000   0.00000  Uiso   1.00
O853   O     0.79512   0.22775   0.75000   0.00000  Uiso   1.00
O854   O     0.87157   0.22774   0.75000   0.00000  Uiso   1.00
O855   O     0.77613   0.16666   0.82681   0.00000  Uiso   1.00
O856   O     0.85258   0.16665   0.82681   0.00000  Uiso   1.00
O857   O     0.79510   0.10559   0.74999   0.00000  Uiso   1.00
O858   O     0.87154   0.10558   0.74999   0.00000  Uiso   1.00
O859   O     0.81409   0.16668   0.67319   0.00000  Uiso   1.00
O860   O     0.89053   0.16667   0.67319   0.00000  Uiso   1.00
Zn861  Zn    0.78229   0.16667   0.75000   0.00000  Uiso   1.00
Zn862  Zn    0.88438   0.16666   0.75000   0.00000  Uiso   1.00
C863   C     0.80107   0.28993   0.66464   0.00000  Uiso   1.00
O864   O     0.81873   0.25678   0.64497   0.00000  Uiso   1.00
O865   O     0.76716   0.30839   0.64455   0.00000  Uiso   1.00
H866   H     0.75974   0.29095   0.61458   0.00000  Uiso   1.00
C867   C     0.96456   0.09900   0.69914   0.00000  Uiso   1.00
O868   O     0.96269   0.06407   0.71801   0.00000  Uiso   1.00
O869   O     0.95297   0.10474   0.65105   0.00000  Uiso   1.00
H870   H     0.94206   0.07789   0.63645   0.00000  Uiso   1.00
O871   O     0.72341   0.10334   0.69642   0.00000  Uiso   1.00
H872   H     0.75493   0.11446   0.68413   0.00000  Uiso   1.00
O873   O     0.70083   0.23181   0.79981   0.00000  Uiso   1.00
H874   H     0.72621   0.22133   0.81335   0.00000  Uiso   1.00
C875   C     0.94272   0.23424   0.80197   0.00000  Uiso   1.00
O876   O     0.90855   0.22764   0.83837   0.00000  Uiso   1.00
O877   O     0.95746   0.27538   0.78985   0.00000  Uiso   1.00
H878   H     0.93842   0.29702   0.81552   0.00000  Uiso   1.00
C879   C     0.96638   0.14369   0.89106   0.00000  Uiso   1.00
O880   O     0.98598   0.11807   0.85678   0.00000  Uiso   1.00
O881   O     0.98823   0.18115   0.89905   0.00000  Uiso   1.00
H882   H     0.68906   0.18021   0.88106   0.00000  Uiso   1.00
C883   C     0.98481   0.14476   0.99524   0.00000  Uiso   1.00
O884   O     0.99835   0.11113   0.97364   0.00000  Uiso   1.00
O885   O     0.68224   0.17445   0.50668   0.00000  Uiso   1.00
H886   H     0.71560   0.16546   0.99364   0.00000  Uiso   1.00
O887   O     0.79325   0.15256   0.58239   0.00000  Uiso   1.00
H888   H     0.78706   0.18141   0.59782   0.00000  Uiso   1.00
C889   C     0.16703   0.57974   0.74857   0.00000  Uiso   1.00
C890   C     0.16002   0.45433   0.97728   0.00000  Uiso   1.00
C891   C     0.17245   0.45988   0.92220   0.00000  Uiso   1.00
C892   C     0.19040   0.46899   0.50703   0.00000  Uiso   1.00
C893   C     0.23799   0.47459   0.98047   0.00000  Uiso   1.00
C894   C     0.25250   0.46863   0.92388   0.00000  Uiso   1.00
C895   C     0.21964   0.46043   0.89589   0.00000  Uiso   1.00
C896   C     0.17354   0.48252   0.56078   0.00000  Uiso   1.00
C897   C     0.25154   0.49859   0.56465   0.00000  Uiso   1.00
C898   C     0.13675   0.46318   0.89590   0.00000  Uiso   1.00
C899   C     0.18376   0.64577   0.78505   0.00000  Uiso   1.00
C900   C     0.14382   0.48751   0.84641   0.00000  Uiso   1.00
C901   C     0.18402   0.35545   0.78590   0.00000  Uiso   1.00
C902   C     0.16633   0.37617   0.74911   0.00000  Uiso   1.00
C903   C     0.14869   0.35496   0.71121   0.00000  Uiso   1.00
C904   C     0.14996   0.64495   0.70835   0.00000  Uiso   1.00
C905   C     0.16754   0.62403   0.74625   0.00000  Uiso   1.00
C906   C     0.31491   0.46790   0.72587   0.00000  Uiso   1.00
C907   C     0.02929   0.46836   0.72479   0.00000  Uiso   1.00
C908   C     0.01859   0.53226   0.77384   0.00000  Uiso   1.00
C909   C     0.30452   0.53233   0.77364   0.00000  Uiso   1.00
C910   C     0.16658   0.42026   0.74976   0.00000  Uiso   1.00
C911   C     0.19118   0.50004   0.64828   0.00000  Uiso   1.00
C912   C     0.26858   0.48621   0.51173   0.00000  Uiso   1.00
C913   C     0.20481   0.49580   0.58997   0.00000  Uiso   1.00
C914   C     0.09615   0.44086   0.91703   0.00000  Uiso   1.00
C915   C     0.08961   0.42210   0.96695   0.00000  Uiso   1.00
C916   C     0.11897   0.43232   0.99917   0.00000  Uiso   1.00
H917   H     0.27582   0.50743   0.58749   0.00000  Uiso   1.00
H918   H     0.19685   0.37255   0.81576   0.00000  Uiso   1.00
H919   H     0.13585   0.37242   0.68268   0.00000  Uiso   1.00
H920   H     0.07061   0.43717   0.89457   0.00000  Uiso   1.00
H921   H     0.11103   0.42073   0.53946   0.00000  Uiso   1.00
H922   H     0.06060   0.40169   0.98228   0.00000  Uiso   1.00
H923   H     0.23159   0.45431   0.85322   0.00000  Uiso   1.00
H924   H     0.19508   0.62936   0.81537   0.00000  Uiso   1.00
N925   N     0.04760   0.50001   0.75001   0.00000  Uiso   1.00
N926   N     0.28573   0.49998   0.75000   0.00000  Uiso   1.00
O927   O     0.12846   0.56108   0.75000   0.00000  Uiso   1.00
O928   O     0.20490   0.56107   0.75000   0.00000  Uiso   1.00
O929   O     0.10947   0.50000   0.82681   0.00000  Uiso   1.00
O930   O     0.18591   0.49999   0.82681   0.00000  Uiso   1.00
O931   O     0.12843   0.43893   0.74999   0.00000  Uiso   1.00
O932   O     0.20488   0.43892   0.74999   0.00000  Uiso   1.00
O933   O     0.14742   0.50001   0.67319   0.00000  Uiso   1.00
O934   O     0.22387   0.50000   0.67319   0.00000  Uiso   1.00
Zn935  Zn    0.11562   0.50001   0.75000   0.00000  Uiso   1.00
Zn936  Zn    0.21771   0.49999   0.75000   0.00000  Uiso   1.00
C937   C     0.13441   0.62326   0.66464   0.00000  Uiso   1.00
O938   O     0.15206   0.59012   0.64497   0.00000  Uiso   1.00
O939   O     0.10049   0.64172   0.64455   0.00000  Uiso   1.00
H940   H     0.09308   0.62429   0.61458   0.00000  Uiso   1.00
C941   C     0.29789   0.43234   0.69914   0.00000  Uiso   1.00
O942   O     0.29603   0.39740   0.71801   0.00000  Uiso   1.00
O943   O     0.28630   0.43807   0.65105   0.00000  Uiso   1.00
H944   H     0.27540   0.41122   0.63645   0.00000  Uiso   1.00
O945   O     0.05675   0.43667   0.69642   0.00000  Uiso   1.00
H946   H     0.08826   0.44779   0.68413   0.00000  Uiso   1.00
O947   O     0.03416   0.56515   0.79981   0.00000  Uiso   1.00
H948   H     0.05954   0.55466   0.81335   0.00000  Uiso   1.00
C949   C     0.27605   0.56757   0.80197   0.00000  Uiso   1.00
O950   O     0.24188   0.56098   0.83837   0.00000  Uiso   1.00
O951   O     0.29080   0.60872   0.78985   0.00000  Uiso   1.00
H952   H     0.27175   0.63035   0.81552   0.00000  Uiso   1.00
C953   C     0.29971   0.47703   0.89106   0.00000  Uiso   1.00
O954   O     0.31932   0.45140   0.85678   0.00000  Uiso   1.00
O955   O     0.32156   0.51448   0.89905   0.00000  Uiso   1.00
H956   H     0.02239   0.51354   0.88106   0.00000  Uiso   1.00
C957   C     0.31814   0.47809   0.99524   0.00000  Uiso   1.00
O958   O     0.33168   0.44447   0.97364   0.00000  Uiso   1.00
O959   O     0.01557   0.50779   0.50668   0.00000  Uiso   1.00
H960   H     0.04893   0.49879   0.99364   0.00000  Uiso   1.00
O961   O     0.12659   0.48590   0.58239   0.00000  Uiso   1.00
H962   H     0.12039   0.51475   0.59782   0.00000  Uiso   1.00
C963   C     0.50037   0.57974   0.74857   0.00000  Uiso   1.00
C964   C     0.49336   0.45433   0.97728   0.00000  Uiso   1.00
C965   C     0.50578   0.45988   0.92220   0.00000  Uiso   1.00
C966   C     0.52373   0.46899   0.50703   0.00000  Uiso   1.00
C967   C     0.57132   0.47459   0.98047   0.00000  Uiso   1.00
C968   C     0.58583   0.46863   0.92388   0.00000  Uiso   1.00
C969   C     0.55297   0.46043   0.89589   0.00000  Uiso   1.00
C970   C     0.50687   0.48252   0.56078   0.00000  Uiso   1.00
C971   C     0.58487   0.49859   0.56465   0.00000  Uiso   1.00
C972   C     0.47008   0.46318   0.89590   0.00000  Uiso   1.00
C973   C     0.51709   0.64577   0.78505   0.00000  Uiso   1.00
C974   C     0.47715   0.48751   0.84641   0.00000  Uiso   1.00
C975   C     0.51735   0.35545   0.78590   0.00000  Uiso   1.00
C976   C     0.49967   0.37617   0.74911   0.00000  Uiso   1.00
C977   C     0.48203   0.35496   0.71121   0.00000  Uiso   1.00
C978   C     0.48329   0.64495   0.70835   0.00000  Uiso   1.00
C979   C     0.50087   0.62403   0.74625   0.00000  Uiso   1.00
C980   C     0.64824   0.46790   0.72587   0.00000  Uiso   1.00
C981   C     0.36262   0.46836   0.72479   0.00000  Uiso   1.00
C982   C     0.35192   0.53226   0.77384   0.00000  Uiso   1.00
C983   C     0.63786   0.53233   0.77364   0.00000  Uiso   1.00
C984   C     0.49992   0.42026   0.74976   0.00000  Uiso   1.00
C985   C     0.52451   0.50004   0.64828   0.00000  Uiso   1.00
C986   C     0.60191   0.48621   0.51173   0.00000  Uiso   1.00
C987   C     0.53814   0.49580   0.58997   0.00000  Uiso   1.00
C988   C     0.42948   0.44086   0.91703   0.00000  Uiso   1.00
C989   C     0.42295   0.42210   0.96695   0.00000  Uiso   1.00
C990   C     0.45231   0.43232   0.99917   0.00000  Uiso   1.00
H991   H     0.60915   0.50743   0.58749   0.00000  Uiso   1.00
H992   H     0.53018   0.37255   0.81576   0.00000  Uiso   1.00
H993   H     0.46918   0.37242   0.68268   0.00000  Uiso   1.00
H994   H     0.40394   0.43717   0.89457   0.00000  Uiso   1.00
H995   H     0.44436   0.42073   0.53946   0.00000  Uiso   1.00
H996   H     0.39393   0.40169   0.98228   0.00000  Uiso   1.00
H997   H     0.56493   0.45431   0.85322   0.00000  Uiso   1.00
H998   H     0.52841   0.62936   0.81537   0.00000  Uiso   1.00
N999   N     0.38093   0.50001   0.75001   0.00000  Uiso   1.00
N1000  N     0.61906   0.49998   0.75000   0.00000  Uiso   1.00
O1001  O     0.46179   0.56108   0.75000   0.00000  Uiso   1.00
O1002  O     0.53823   0.56107   0.75000   0.00000  Uiso   1.00
O1003  O     0.44280   0.50000   0.82681   0.00000  Uiso   1.00
O1004  O     0.51924   0.49999   0.82681   0.00000  Uiso   1.00
O1005  O     0.46177   0.43893   0.74999   0.00000  Uiso   1.00
O1006  O     0.53821   0.43892   0.74999   0.00000  Uiso   1.00
O1007  O     0.48076   0.50001   0.67319   0.00000  Uiso   1.00
O1008  O     0.55720   0.50000   0.67319   0.00000  Uiso   1.00
Zn1009 Zn    0.44896   0.50001   0.75000   0.00000  Uiso   1.00
Zn1010 Zn    0.55104   0.49999   0.75000   0.00000  Uiso   1.00
C1011  C     0.46774   0.62326   0.66464   0.00000  Uiso   1.00
O1012  O     0.48540   0.59012   0.64497   0.00000  Uiso   1.00
O1013  O     0.43383   0.64172   0.64455   0.00000  Uiso   1.00
H1014  H     0.42641   0.62429   0.61458   0.00000  Uiso   1.00
C1015  C     0.63122   0.43234   0.69914   0.00000  Uiso   1.00
O1016  O     0.62936   0.39740   0.71801   0.00000  Uiso   1.00
O1017  O     0.61964   0.43807   0.65105   0.00000  Uiso   1.00
H1018  H     0.60873   0.41122   0.63645   0.00000  Uiso   1.00
O1019  O     0.39008   0.43667   0.69642   0.00000  Uiso   1.00
H1020  H     0.42160   0.44779   0.68413   0.00000  Uiso   1.00
O1021  O     0.36750   0.56515   0.79981   0.00000  Uiso   1.00
H1022  H     0.39288   0.55466   0.81335   0.00000  Uiso   1.00
C1023  C     0.60939   0.56757   0.80197   0.00000  Uiso   1.00
O1024  O     0.57522   0.56098   0.83837   0.00000  Uiso   1.00
O1025  O     0.62413   0.60872   0.78985   0.00000  Uiso   1.00
H1026  H     0.60509   0.63035   0.81552   0.00000  Uiso   1.00
C1027  C     0.63305   0.47703   0.89106   0.00000  Uiso   1.00
O1028  O     0.65265   0.45140   0.85678   0.00000  Uiso   1.00
O1029  O     0.65489   0.51448   0.89905   0.00000  Uiso   1.00
H1030  H     0.35572   0.51354   0.88106   0.00000  Uiso   1.00
C1031  C     0.65148   0.47809   0.99524   0.00000  Uiso   1.00
O1032  O     0.66502   0.44447   0.97364   0.00000  Uiso   1.00
O1033  O     0.34891   0.50779   0.50668   0.00000  Uiso   1.00
H1034  H     0.38226   0.49879   0.99364   0.00000  Uiso   1.00
O1035  O     0.45992   0.48590   0.58239   0.00000  Uiso   1.00
H1036  H     0.45373   0.51475   0.59782   0.00000  Uiso   1.00
C1037  C     0.83370   0.57974   0.74857   0.00000  Uiso   1.00
C1038  C     0.82669   0.45433   0.97728   0.00000  Uiso   1.00
C1039  C     0.83912   0.45988   0.92220   0.00000  Uiso   1.00
C1040  C     0.85707   0.46899   0.50703   0.00000  Uiso   1.00
C1041  C     0.90465   0.47459   0.98047   0.00000  Uiso   1.00
C1042  C     0.91917   0.46863   0.92388   0.00000  Uiso   1.00
C1043  C     0.88630   0.46043   0.89589   0.00000  Uiso   1.00
C1044  C     0.84021   0.48252   0.56078   0.00000  Uiso   1.00
C1045  C     0.91821   0.49859   0.56465   0.00000  Uiso   1.00
C1046  C     0.80341   0.46318   0.89590   0.00000  Uiso   1.00
C1047  C     0.85043   0.64577   0.78505   0.00000  Uiso   1.00
C1048  C     0.81049   0.48751   0.84641   0.00000  Uiso   1.00
C1049  C     0.85068   0.35545   0.78590   0.00000  Uiso   1.00
C1050  C     0.83300   0.37617   0.74911   0.00000  Uiso   1.00
C1051  C     0.81536   0.35496   0.71121   0.00000  Uiso   1.00
C1052  C     0.81662   0.64495   0.70835   0.00000  Uiso   1.00
C1053  C     0.83420   0.62403   0.74625   0.00000  Uiso   1.00
C1054  C     0.98157   0.46790   0.72587   0.00000  Uiso   1.00
C1055  C     0.69596   0.46836   0.72479   0.00000  Uiso   1.00
C1056  C     0.68526   0.53226   0.77384   0.00000  Uiso   1.00
C1057  C     0.97119   0.53233   0.77364   0.00000  Uiso   1.00
C1058  C     0.83325   0.42026   0.74976   0.00000  Uiso   1.00
C1059  C     0.85784   0.50004   0.64828   0.00000  Uiso   1.00
C1060  C     0.93524   0.48621   0.51173   0.00000  Uiso   1.00
C1061  C     0.87148   0.49580   0.58997   0.00000  Uiso   1.00
C1062  C     0.76282   0.44086   0.91703   0.00000  Uiso   1.00
C1063  C     0.75628   0.42210   0.96695   0.00000  Uiso   1.00
C1064  C     0.78564   0.43232   0.99917   0.00000  Uiso   1.00
H1065  H     0.94249   0.50743   0.58749   0.00000  Uiso   1.00
H1066  H     0.86351   0.37255   0.81576   0.00000  Uiso   1.00
H1067  H     0.80251   0.37242   0.68268   0.00000  Uiso   1.00
H1068  H     0.73727   0.43717   0.89457   0.00000  Uiso   1.00
H1069  H     0.77770   0.42073   0.53946   0.00000  Uiso   1.00
H1070  H     0.72726   0.40169   0.98228   0.00000  Uiso   1.00
H1071  H     0.89826   0.45431   0.85322   0.00000  Uiso   1.00
H1072  H     0.86174   0.62936   0.81537   0.00000  Uiso   1.00
N1073  N     0.71426   0.50001   0.75001   0.00000  Uiso   1.00
N1074  N     0.95239   0.49998   0.75000   0.00000  Uiso   1.00
O1075  O     0.79512   0.56108   0.75000   0.00000  Uiso   1.00
O1076  O     0.87157   0.56107   0.75000   0.00000  Uiso   1.00
O1077  O     0.77613   0.50000   0.82681   0.00000  Uiso   1.00
O1078  O     0.85258   0.49999   0.82681   0.00000  Uiso   1.00
O1079  O     0.79510   0.43893   0.74999   0.00000  Uiso   1.00
O1080  O     0.87154   0.43892   0.74999   0.00000  Uiso   1.00
O1081  O     0.81409   0.50001   0.67319   0.00000  Uiso   1.00
O1082  O     0.89053   0.50000   0.67319   0.00000  Uiso   1.00
Zn1083 Zn    0.78229   0.50001   0.75000   0.00000  Uiso   1.00
Zn1084 Zn    0.88438   0.49999   0.75000   0.00000  Uiso   1.00
C1085  C     0.80107   0.62326   0.66464   0.00000  Uiso   1.00
O1086  O     0.81873   0.59012   0.64497   0.00000  Uiso   1.00
O1087  O     0.76716   0.64172   0.64455   0.00000  Uiso   1.00
H1088  H     0.75974   0.62429   0.61458   0.00000  Uiso   1.00
C1089  C     0.96456   0.43234   0.69914   0.00000  Uiso   1.00
O1090  O     0.96269   0.39740   0.71801   0.00000  Uiso   1.00
O1091  O     0.95297   0.43807   0.65105   0.00000  Uiso   1.00
H1092  H     0.94206   0.41122   0.63645   0.00000  Uiso   1.00
O1093  O     0.72341   0.43667   0.69642   0.00000  Uiso   1.00
H1094  H     0.75493   0.44779   0.68413   0.00000  Uiso   1.00
O1095  O     0.70083   0.56515   0.79981   0.00000  Uiso   1.00
H1096  H     0.72621   0.55466   0.81335   0.00000  Uiso   1.00
C1097  C     0.94272   0.56757   0.80197   0.00000  Uiso   1.00
O1098  O     0.90855   0.56098   0.83837   0.00000  Uiso   1.00
O1099  O     0.95746   0.60872   0.78985   0.00000  Uiso   1.00
H1100  H     0.93842   0.63035   0.81552   0.00000  Uiso   1.00
C1101  C     0.96638   0.47703   0.89106   0.00000  Uiso   1.00
O1102  O     0.98598   0.45140   0.85678   0.00000  Uiso   1.00
O1103  O     0.98823   0.51448   0.89905   0.00000  Uiso   1.00
H1104  H     0.68906   0.51354   0.88106   0.00000  Uiso   1.00
C1105  C     0.98481   0.47809   0.99524   0.00000  Uiso   1.00
O1106  O     0.99835   0.44447   0.97364   0.00000  Uiso   1.00
O1107  O     0.68224   0.50779   0.50668   0.00000  Uiso   1.00
H1108  H     0.71560   0.49879   0.99364   0.00000  Uiso   1.00
O1109  O     0.79325   0.48590   0.58239   0.00000  Uiso   1.00
H1110  H     0.78706   0.51475   0.59782   0.00000  Uiso   1.00
C1111  C     0.16703   0.91308   0.74857   0.00000  Uiso   1.00
C1112  C     0.16002   0.78766   0.97728   0.00000  Uiso   1.00
C1113  C     0.17245   0.79321   0.92220   0.00000  Uiso   1.00
C1114  C     0.19040   0.80232   0.50703   0.00000  Uiso   1.00
C1115  C     0.23799   0.80792   0.98047   0.00000  Uiso   1.00
C1116  C     0.25250   0.80196   0.92388   0.00000  Uiso   1.00
C1117  C     0.21964   0.79376   0.89589   0.00000  Uiso   1.00
C1118  C     0.17354   0.81586   0.56078   0.00000  Uiso   1.00
C1119  C     0.25154   0.83193   0.56465   0.00000  Uiso   1.00
C1120  C     0.13675   0.79651   0.89590   0.00000  Uiso   1.00
C1121  C     0.18376   0.97910   0.78505   0.00000  Uiso   1.00
C1122  C     0.14382   0.82085   0.84641   0.00000  Uiso   1.00
C1123  C     0.18402   0.68878   0.78590   0.00000  Uiso   1.00
C1124  C     0.16633   0.70950   0.74911   0.00000  Uiso   1.00
C1125  C     0.14869   0.68830   0.71121   0.00000  Uiso   1.00
C1126  C     0.14996   0.97828   0.70835   0.00000  Uiso   1.00
C1127  C     0.16754   0.95736   0.74625   0.00000  Uiso   1.00
C1128  C     0.31491   0.80123   0.72587   0.00000  Uiso   1.00
C1129  C     0.02929   0.80169   0.72479   0.00000  Uiso   1.00
C1130  C     0.01859   0.86559   0.77384   0.00000  Uiso   1.00
C1131  C     0.30452   0.86566   0.77364   0.00000  Uiso   1.00
C1132  C     0.16658   0.75359   0.74976   0.00000  Uiso   1.00
C1133  C     0.19118   0.83337   0.64828   0.00000  Uiso   1.00
C1134  C     0.26858   0.81954   0.51173   0.00000  Uiso   1.00
C1135  C     0.20481   0.82914   0.58997   0.00000  Uiso   1.00
C1136  C     0.09615   0.77420   0.91703   0.00000  Uiso   1.00
C1137  C     0.08961   0.75543   0.96695   0.00000  Uiso   1.00
C1138  C     0.11897   0.76565   0.99917   0.00000  Uiso   1.00
H1139  H     0.27582   0.84076   0.58749   0.00000  Uiso   1.00
H1140  H     0.19685   0.70588   0.81576   0.00000  Uiso   1.00
H1141  H     0.13585   0.70575   0.68268   0.00000  Uiso   1.00
H1142  H     0.07061   0.77051   0.89457   0.00000  Uiso   1.00
H1143  H     0.11103   0.75406   0.53946   0.00000  Uiso   1.00
H1144  H     0.06060   0.73502   0.98228   0.00000  Uiso   1.00
H1145  H     0.23159   0.78764   0.85322   0.00000  Uiso   1.00
H1146  H     0.19508   0.96269   0.81537   0.00000  Uiso   1.00
N1147  N     0.04760   0.83334   0.75001   0.00000  Uiso   1.00
N1148  N     0.28573   0.83331   0.75000   0.00000  Uiso   1.00
O1149  O     0.12846   0.89442   0.75000   0.00000  Uiso   1.00
O1150  O     0.20490   0.89441   0.75000   0.00000  Uiso   1.00
O1151  O     0.10947   0.83333   0.82681   0.00000  Uiso   1.00
O1152  O     0.18591   0.83332   0.82681   0.00000  Uiso   1.00
O1153  O     0.12843   0.77226   0.74999   0.00000  Uiso   1.00
O1154  O     0.20488   0.77225   0.74999   0.00000  Uiso   1.00
O1155  O     0.14742   0.83335   0.67319   0.00000  Uiso   1.00
O1156  O     0.22387   0.83334   0.67319   0.00000  Uiso   1.00
Zn1157 Zn    0.11562   0.83334   0.75000   0.00000  Uiso   1.00
Zn1158 Zn    0.21771   0.83333   0.75000   0.00000  Uiso   1.00
C1159  C     0.13441   0.95659   0.66464   0.00000  Uiso   1.00
O1160  O     0.15206   0.92345   0.64497   0.00000  Uiso   1.00
O1161  O     0.10049   0.97506   0.64455   0.00000  Uiso   1.00
H1162  H     0.09308   0.95762   0.61458   0.00000  Uiso   1.00
C1163  C     0.29789   0.76567   0.69914   0.00000  Uiso   1.00
O1164  O     0.29603   0.73073   0.71801   0.00000  Uiso   1.00
O1165  O     0.28630   0.77141   0.65105   0.00000  Uiso   1.00
H1166  H     0.27540   0.74455   0.63645   0.00000  Uiso   1.00
O1167  O     0.05675   0.77000   0.69642   0.00000  Uiso   1.00
H1168  H     0.08826   0.78113   0.68413   0.00000  Uiso   1.00
O1169  O     0.03416   0.89848   0.79981   0.00000  Uiso   1.00
H1170  H     0.05954   0.88800   0.81335   0.00000  Uiso   1.00
C1171  C     0.27605   0.90090   0.80197   0.00000  Uiso   1.00
O1172  O     0.24188   0.89431   0.83837   0.00000  Uiso   1.00
O1173  O     0.29080   0.94205   0.78985   0.00000  Uiso   1.00
H1174  H     0.27175   0.96369   0.81552   0.00000  Uiso   1.00
C1175  C     0.29971   0.81036   0.89106   0.00000  Uiso   1.00
O1176  O     0.31932   0.78473   0.85678   0.00000  Uiso   1.00
O1177  O     0.32156   0.84781   0.89905   0.00000  Uiso   1.00
H1178  H     0.02239   0.84688   0.88106   0.00000  Uiso   1.00
C1179  C     0.31814   0.81142   0.99524   0.00000  Uiso   1.00
O1180  O     0.33168   0.77780   0.97364   0.00000  Uiso   1.00
O1181  O     0.01557   0.84112   0.50668   0.00000  Uiso   1.00
H1182  H     0.04893   0.83212   0.99364   0.00000  Uiso   1.00
O1183  O     0.12659   0.81923   0.58239   0.00000  Uiso   1.00
H1184  H     0.12039   0.84808   0.59782   0.00000  Uiso   1.00
C1185  C     0.50037   0.91308   0.74857   0.00000  Uiso   1.00
C1186  C     0.49336   0.78766   0.97728   0.00000  Uiso   1.00
C1187  C     0.50578   0.79321   0.92220   0.00000  Uiso   1.00
C1188  C     0.52373   0.80232   0.50703   0.00000  Uiso   1.00
C1189  C     0.57132   0.80792   0.98047   0.00000  Uiso   1.00
C1190  C     0.58583   0.80196   0.92388   0.00000  Uiso   1.00
C1191  C     0.55297   0.79376   0.89589   0.00000  Uiso   1.00
C1192  C     0.50687   0.81586   0.56078   0.00000  Uiso   1.00
C1193  C     0.58487   0.83193   0.56465   0.00000  Uiso   1.00
C1194  C     0.47008   0.79651   0.89590   0.00000  Uiso   1.00
C1195  C     0.51709   0.97910   0.78505   0.00000  Uiso   1.00
C1196  C     0.47715   0.82085   0.84641   0.00000  Uiso   1.00
C1197  C     0.51735   0.68878   0.78590   0.00000  Uiso   1.00
C1198  C     0.49967   0.70950   0.74911   0.00000  Uiso   1.00
C1199  C     0.48203   0.68830   0.71121   0.00000  Uiso   1.00
C1200  C     0.48329   0.97828   0.70835   0.00000  Uiso   1.00
C1201  C     0.50087   0.95736   0.74625   0.00000  Uiso   1.00
C1202  C     0.64824   0.80123   0.72587   0.00000  Uiso   1.00
C1203  C     0.36262   0.80169   0.72479   0.00000  Uiso   1.00
C1204  C     0.35192   0.86559   0.77384   0.00000  Uiso   1.00
C1205  C     0.63786   0.86566   0.77364   0.00000  Uiso   1.00
C1206  C     0.49992   0.75359   0.74976   0.00000  Uiso   1.00
C1207  C     0.52451   0.83337   0.64828   0.00000  Uiso   1.00
C1208  C     0.60191   0.81954   0.51173   0.00000  Uiso   1.00
C1209  C     0.53814   0.82914   0.58997   0.00000  Uiso   1.00
C1210  C     0.42948   0.77420   0.91703   0.00000  Uiso   1.00
C1211  C     0.42295   0.75543   0.96695   0.00000  Uiso   1.00
C1212  C     0.45231   0.76565   0.99917   0.00000  Uiso   1.00
H1213  H     0.60915   0.84076   0.58749   0.00000  Uiso   1.00
H1214  H     0.53018   0.70588   0.81576   0.00000  Uiso   1.00
H1215  H     0.46918   0.70575   0.68268   0.00000  Uiso   1.00
H1216  H     0.40394   0.77051   0.89457   0.00000  Uiso   1.00
H1217  H     0.44436   0.75406   0.53946   0.00000  Uiso   1.00
H1218  H     0.39393   0.73502   0.98228   0.00000  Uiso   1.00
H1219  H     0.56493   0.78764   0.85322   0.00000  Uiso   1.00
H1220  H     0.52841   0.96269   0.81537   0.00000  Uiso   1.00
N1221  N     0.38093   0.83334   0.75001   0.00000  Uiso   1.00
N1222  N     0.61906   0.83331   0.75000   0.00000  Uiso   1.00
O1223  O     0.46179   0.89442   0.75000   0.00000  Uiso   1.00
O1224  O     0.53823   0.89441   0.75000   0.00000  Uiso   1.00
O1225  O     0.44280   0.83333   0.82681   0.00000  Uiso   1.00
O1226  O     0.51924   0.83332   0.82681   0.00000  Uiso   1.00
O1227  O     0.46177   0.77226   0.74999   0.00000  Uiso   1.00
O1228  O     0.53821   0.77225   0.74999   0.00000  Uiso   1.00
O1229  O     0.48076   0.83335   0.67319   0.00000  Uiso   1.00
O1230  O     0.55720   0.83334   0.67319   0.00000  Uiso   1.00
Zn1231 Zn    0.44896   0.83334   0.75000   0.00000  Uiso   1.00
Zn1232 Zn    0.55104   0.83333   0.75000   0.00000  Uiso   1.00
C1233  C     0.46774   0.95659   0.66464   0.00000  Uiso   1.00
O1234  O     0.48540   0.92345   0.64497   0.00000  Uiso   1.00
O1235  O     0.43383   0.97506   0.64455   0.00000  Uiso   1.00
H1236  H     0.42641   0.95762   0.61458   0.00000  Uiso   1.00
C1237  C     0.63122   0.76567   0.69914   0.00000  Uiso   1.00
O1238  O     0.62936   0.73073   0.71801   0.00000  Uiso   1.00
O1239  O     0.61964   0.77141   0.65105   0.00000  Uiso   1.00
H1240  H     0.60873   0.74455   0.63645   0.00000  Uiso   1.00
O1241  O     0.39008   0.77000   0.69642   0.00000  Uiso   1.00
H1242  H     0.42160   0.78113   0.68413   0.00000  Uiso   1.00
O1243  O     0.36750   0.89848   0.79981   0.00000  Uiso   1.00
H1244  H     0.39288   0.88800   0.81335   0.00000  Uiso   1.00
C1245  C     0.60939   0.90090   0.80197   0.00000  Uiso   1.00
O1246  O     0.57522   0.89431   0.83837   0.00000  Uiso   1.00
O1247  O     0.62413   0.94205   0.78985   0.00000  Uiso   1.00
H1248  H     0.60509   0.96369   0.81552   0.00000  Uiso   1.00
C1249  C     0.63305   0.81036   0.89106   0.00000  Uiso   1.00
O1250  O     0.65265   0.78473   0.85678   0.00000  Uiso   1.00
O1251  O     0.65489   0.84781   0.89905   0.00000  Uiso   1.00
H1252  H     0.35572   0.84688   0.88106   0.00000  Uiso   1.00
C1253  C     0.65148   0.81142   0.99524   0.00000  Uiso   1.00
O1254  O     0.66502   0.77780   0.97364   0.00000  Uiso   1.00
O1255  O     0.34891   0.84112   0.50668   0.00000  Uiso   1.00
H1256  H     0.38226   0.83212   0.99364   0.00000  Uiso   1.00
O1257  O     0.45992   0.81923   0.58239   0.00000  Uiso   1.00
H1258  H     0.45373   0.84808   0.59782   0.00000  Uiso   1.00
C1259  C     0.83370   0.91308   0.74857   0.00000  Uiso   1.00
C1260  C     0.82669   0.78766   0.97728   0.00000  Uiso   1.00
C1261  C     0.83912   0.79321   0.92220   0.00000  Uiso   1.00
C1262  C     0.85707   0.80232   0.50703   0.00000  Uiso   1.00
C1263  C     0.90465   0.80792   0.98047   0.00000  Uiso   1.00
C1264  C     0.91917   0.80196   0.92388   0.00000  Uiso   1.00
C1265  C     0.88630   0.79376   0.89589   0.00000  Uiso   1.00
C1266  C     0.84021   0.81586   0.56078   0.00000  Uiso   1.00
C1267  C     0.91821   0.83193   0.56465   0.00000  Uiso   1.00
C1268  C     0.80341   0.79651   0.89590   0.00000  Uiso   1.00
C1269  C     0.85043   0.97910   0.78505   0.00000  Uiso   1.00
C1270  C     0.81049   0.82085   0.84641   0.00000  Uiso   1.00
C1271  C     0.85068   0.68878   0.78590   0.00000  Uiso   1.00
C1272  C     0.83300   0.70950   0.74911   0.00000  Uiso   1.00
C1273  C     0.81536   0.68830   0.71121   0.00000  Uiso   1.00
C1274  C     0.81662   0.97828   0.70835   0.00000  Uiso   1.00
C1275  C     0.83420   0.95736   0.74625   0.00000  Uiso   1.00
C1276  C     0.98157   0.80123   0.72587   0.00000  Uiso   1.00
C1277  C     0.69596   0.80169   0.72479   0.00000  Uiso   1.00
C1278  C     0.68526   0.86559   0.77384   0.00000  Uiso   1.00
C1279  C     0.97119   0.86566   0.77364   0.00000  Uiso   1.00
C1280  C     0.83325   0.75359   0.74976   0.00000  Uiso   1.00
C1281  C     0.85784   0.83337   0.64828   0.00000  Uiso   1.00
C1282  C     0.93524   0.81954   0.51173   0.00000  Uiso   1.00
C1283  C     0.87148   0.82914   0.58997   0.00000  Uiso   1.00
C1284  C     0.76282   0.77420   0.91703   0.00000  Uiso   1.00
C1285  C     0.75628   0.75543   0.96695   0.00000  Uiso   1.00
C1286  C     0.78564   0.76565   0.99917   0.00000  Uiso   1.00
H1287  H     0.94249   0.84076   0.58749   0.00000  Uiso   1.00
H1288  H     0.86351   0.70588   0.81576   0.00000  Uiso   1.00
H1289  H     0.80251   0.70575   0.68268   0.00000  Uiso   1.00
H1290  H     0.73727   0.77051   0.89457   0.00000  Uiso   1.00
H1291  H     0.77770   0.75406   0.53946   0.00000  Uiso   1.00
H1292  H     0.72726   0.73502   0.98228   0.00000  Uiso   1.00
H1293  H     0.89826   0.78764   0.85322   0.00000  Uiso   1.00
H1294  H     0.86174   0.96269   0.81537   0.00000  Uiso   1.00
N1295  N     0.71426   0.83334   0.75001   0.00000  Uiso   1.00
N1296  N     0.95239   0.83331   0.75000   0.00000  Uiso   1.00
O1297  O     0.79512   0.89442   0.75000   0.00000  Uiso   1.00
O1298  O     0.87157   0.89441   0.75000   0.00000  Uiso   1.00
O1299  O     0.77613   0.83333   0.82681   0.00000  Uiso   1.00
O1300  O     0.85258   0.83332   0.82681   0.00000  Uiso   1.00
O1301  O     0.79510   0.77226   0.74999   0.00000  Uiso   1.00
O1302  O     0.87154   0.77225   0.74999   0.00000  Uiso   1.00
O1303  O     0.81409   0.83335   0.67319   0.00000  Uiso   1.00
O1304  O     0.89053   0.83334   0.67319   0.00000  Uiso   1.00
Zn1305 Zn    0.78229   0.83334   0.75000   0.00000  Uiso   1.00
Zn1306 Zn    0.88438   0.83333   0.75000   0.00000  Uiso   1.00
C1307  C     0.80107   0.95659   0.66464   0.00000  Uiso   1.00
O1308  O     0.81873   0.92345   0.64497   0.00000  Uiso   1.00
O1309  O     0.76716   0.97506   0.64455   0.00000  Uiso   1.00
H1310  H     0.75974   0.95762   0.61458   0.00000  Uiso   1.00
C1311  C     0.96456   0.76567   0.69914   0.00000  Uiso   1.00
O1312  O     0.96269   0.73073   0.71801   0.00000  Uiso   1.00
O1313  O     0.95297   0.77141   0.65105   0.00000  Uiso   1.00
H1314  H     0.94206   0.74455   0.63645   0.00000  Uiso   1.00
O1315  O     0.72341   0.77000   0.69642   0.00000  Uiso   1.00
H1316  H     0.75493   0.78113   0.68413   0.00000  Uiso   1.00
O1317  O     0.70083   0.89848   0.79981   0.00000  Uiso   1.00
H1318  H     0.72621   0.88800   0.81335   0.00000  Uiso   1.00
C1319  C     0.94272   0.90090   0.80197   0.00000  Uiso   1.00
O1320  O     0.90855   0.89431   0.83837   0.00000  Uiso   1.00
O1321  O     0.95746   0.94205   0.78985   0.00000  Uiso   1.00
H1322  H     0.93842   0.96369   0.81552   0.00000  Uiso   1.00
C1323  C     0.96638   0.81036   0.89106   0.00000  Uiso   1.00
O1324  O     0.98598   0.78473   0.85678   0.00000  Uiso   1.00
O1325  O     0.98823   0.84781   0.89905   0.00000  Uiso   1.00
H1326  H     0.68906   0.84688   0.88106   0.00000  Uiso   1.00
C1327  C     0.98481   0.81142   0.99524   0.00000  Uiso   1.00
O1328  O     0.99835   0.77780   0.97364   0.00000  Uiso   1.00
O1329  O     0.68224   0.84112   0.50668   0.00000  Uiso   1.00
H1330  H     0.71560   0.83212   0.99364   0.00000  Uiso   1.00
O1331  O     0.79325   0.81923   0.58239   0.00000  Uiso   1.00
H1332  H     0.78706   0.84808   0.59782   0.00000  Uiso   1.00
loop_
_geom_bond_atom_site_label_1
_geom_bond_atom_site_label_2
_geom_bond_distance
_geom_bond_site_symmetry_2
_ccdc_geom_bond_type
C1     C17     1.414   .     S
C1     O39     1.293   .     A
C1     O40     1.297   .     A
C2     C3      1.393   .     A
C2     C28     1.407   .     A
C2     C670    1.411   .     S
C3     C10     1.419   .     A
C3     C7      1.404   .     A
C4     C8      1.408   .     A
C4     C668    1.411   1_554 S
C4     C671    1.428   1_554 S
C5     C6      1.424   .     A
C5     C670    1.428   .     S
C5     C690    1.418   .     S
C6     C7      1.390   .     A
C6     C65     1.478   .     S
C7     H35     1.082   .     S
C8     O73     1.379   .     S
C8     C25     1.409   .     A
C9     C24     1.380   .     A
C9     H29     1.085   .     S
C9     C25     1.389   .     A
C10    C26     1.398   .     A
C10    C12     1.483   .     S
C11    C17     1.395   .     A
C11    H36     1.082   .     S
C11    C235    1.370   .     S
C12    O42     1.298   .     A
C12    O41     1.331   .     A
C13    H30     1.085   .     S
C13    C14     1.389   .     A
C13    C455    1.370   1_545 S
C14    C22     1.405   .     S
C14    C15     1.392   .     A
C15    H31     1.085   .     S
C15    C460    1.382   1_545 S
C16    C49     1.487   .     S
C16    C17     1.413   .     A
C16    C237    1.382   .     S
C18    C53     1.471   .     S
C18    N38     1.376   .     A
C18    C93     1.427   .     S
C19    O57     1.376   .     S
C19    N37     1.377   .     A
C19    C166    1.427   1_455 S
C20    O59     1.376   .     S
C20    N37     1.375   .     A
C20    C169    1.426   1_455 S
C21    C61     1.473   .     S
C21    N38     1.378   .     A
C21    C94     1.426   .     S
C22    O43     1.293   .     A
C22    O44     1.294   .     A
C23    O45     1.304   .     A
C23    C25     1.461   .     S
C23    O46     1.309   .     A
C24    C671    1.418   1_554 S
C24    C735    1.461   1_554 S
C26    H32     1.082   .     S
C26    C27     1.405   .     A
C27    H34     1.080   .     S
C27    C28     1.397   .     A
C28    H699    1.082   .     S
H33    C694    1.082   1_554 S
N37    Zn47    2.045   .     S
N38    Zn48    2.044   .     S
O39    Zn47    1.982   .     S
O40    Zn48    1.986   .     S
O41    Zn47    1.950   .     S
O42    Zn48    1.969   .     S
O43    Zn47    1.986   .     S
O44    Zn48    1.982   .     S
O45    Zn47    1.969   .     S
O46    Zn48    1.950   .     S
C49    O50     1.222   .     D
C49    O51     1.399   .     S
O51    H52     1.014   .     S
C53    O54     1.223   .     D
C53    O55     1.395   .     S
O55    H56     1.014   .     S
O57    H58     0.984   .     S
O59    H60     0.983   .     S
C61    O62     1.220   .     D
C61    O63     1.399   .     S
O63    H64     1.013   .     S
C65    O66     1.223   .     D
C65    O67     1.396   .     S
O67    H142    1.011   .     S
H68    O215    1.011   1_455 S
C69    O70     1.217   .     D
C69    C690    1.461   .     S
C69    O811    1.399   .     S
O71    C883    1.399   1_454 S
O71    H738    1.011   1_554 S
H72    O737    1.011   .     S
O73    H74     0.992   .     S
C75    C91     1.414   .     S
C75    O113    1.293   .     A
C75    O114    1.297   .     A
C76    C77     1.393   .     A
C76    C102    1.407   .     A
C76    C744    1.411   .     S
C77    C84     1.419   .     A
C77    C81     1.404   .     A
C78    C82     1.408   .     A
C78    C742    1.411   1_554 S
C78    C745    1.428   1_554 S
C79    C80     1.424   .     A
C79    C744    1.428   .     S
C79    C764    1.418   .     S
C80    C81     1.390   .     A
C80    C139    1.478   .     S
C81    H109    1.082   .     S
C82    O147    1.379   .     S
C82    C99     1.409   .     A
C83    C98     1.380   .     A
C83    H103    1.085   .     S
C83    C99     1.389   .     A
C84    C100    1.398   .     A
C84    C86     1.483   .     S
C85    C91     1.395   .     A
C85    H110    1.082   .     S
C85    C309    1.370   .     S
C86    O116    1.298   .     A
C86    O115    1.331   .     A
C87    H104    1.085   .     S
C87    C88     1.389   .     A
C87    C529    1.370   1_545 S
C88    C96     1.405   .     S
C88    C89     1.392   .     A
C89    H105    1.085   .     S
C89    C534    1.382   1_545 S
C90    C123    1.487   .     S
C90    C91     1.413   .     A
C90    C311    1.382   .     S
C92    C127    1.471   .     S
C92    N112    1.376   .     A
C92    C167    1.427   .     S
C93    O131    1.376   .     S
C93    N111    1.377   .     A
C94    O133    1.376   .     S
C94    N111    1.375   .     A
C95    C135    1.473   .     S
C95    N112    1.378   .     A
C95    C168    1.426   .     S
C96    O117    1.293   .     A
C96    O118    1.294   .     A
C97    O119    1.304   .     A
C97    C99     1.461   .     S
C97    O120    1.309   .     A
C98    C745    1.418   1_554 S
C98    C809    1.461   1_554 S
C100   H106    1.082   .     S
C100   C101    1.405   .     A
C101   H108    1.080   .     S
C101   C102    1.397   .     A
C102   H773    1.082   .     S
H107   C768    1.082   1_554 S
N111   Zn121   2.045   .     S
N112   Zn122   2.044   .     S
O113   Zn121   1.982   .     S
O114   Zn122   1.986   .     S
O115   Zn121   1.950   .     S
O116   Zn122   1.969   .     S
O117   Zn121   1.986   .     S
O118   Zn122   1.982   .     S
O119   Zn121   1.969   .     S
O120   Zn122   1.950   .     S
C123   O124    1.222   .     D
C123   O125    1.399   .     S
O125   H126    1.014   .     S
C127   O128    1.223   .     D
C127   O129    1.395   .     S
O129   H130    1.014   .     S
O131   H132    0.984   .     S
O133   H134    0.983   .     S
C135   O136    1.220   .     D
C135   O137    1.399   .     S
O137   H138    1.013   .     S
C139   O140    1.223   .     D
C139   O141    1.396   .     S
O141   H216    1.011   .     S
C143   O144    1.217   .     D
C143   C764    1.461   .     S
C143   O885    1.399   .     S
O145   C735    1.399   1_554 S
O145   H812    1.011   1_554 S
H146   O811    1.011   .     S
O147   H148    0.992   .     S
C149   C165    1.414   .     S
C149   O187    1.293   .     A
C149   O188    1.297   .     A
C150   C151    1.393   .     A
C150   C176    1.407   .     A
C150   C818    1.411   .     S
C151   C158    1.419   .     A
C151   C155    1.404   .     A
C152   C156    1.408   .     A
C152   C816    1.411   1_554 S
C152   C819    1.428   1_554 S
C153   C154    1.424   .     A
C153   C818    1.428   .     S
C153   C838    1.418   .     S
C154   C155    1.390   .     A
C154   C213    1.478   .     S
C155   H183    1.082   .     S
C156   O221    1.379   .     S
C156   C173    1.409   .     A
C157   C172    1.380   .     A
C157   H177    1.085   .     S
C157   C173    1.389   .     A
C158   C174    1.398   .     A
C158   C160    1.483   .     S
C159   C165    1.395   .     A
C159   H184    1.082   .     S
C159   C383    1.370   .     S
C160   O190    1.298   .     A
C160   O189    1.331   .     A
C161   H178    1.085   .     S
C161   C162    1.389   .     A
C161   C603    1.370   1_545 S
C162   C170    1.405   .     S
C162   C163    1.392   .     A
C163   H179    1.085   .     S
C163   C608    1.382   1_545 S
C164   C197    1.487   .     S
C164   C165    1.413   .     A
C164   C385    1.382   .     S
C166   C201    1.471   .     S
C166   N186    1.376   .     A
C166   C19     1.427   1_655 S
C167   O205    1.376   .     S
C167   N185    1.377   .     A
C168   O207    1.376   .     S
C168   N185    1.375   .     A
C169   C209    1.473   .     S
C169   N186    1.378   .     A
C169   C20     1.426   1_655 S
C170   O191    1.293   .     A
C170   O192    1.294   .     A
C171   O193    1.304   .     A
C171   C173    1.461   .     S
C171   O194    1.309   .     A
C172   C819    1.418   1_554 S
C172   C883    1.461   1_554 S
C174   H180    1.082   .     S
C174   C175    1.405   .     A
C175   H182    1.080   .     S
C175   C176    1.397   .     A
C176   H847    1.082   .     S
H181   C842    1.082   1_554 S
N185   Zn195   2.045   .     S
N186   Zn196   2.044   .     S
O187   Zn195   1.982   .     S
O188   Zn196   1.986   .     S
O189   Zn195   1.950   .     S
O190   Zn196   1.969   .     S
O191   Zn195   1.986   .     S
O192   Zn196   1.982   .     S
O193   Zn195   1.969   .     S
O194   Zn196   1.950   .     S
C197   O198    1.222   .     D
C197   O199    1.399   .     S
O199   H200    1.014   .     S
C201   O202    1.223   .     D
C201   O203    1.395   .     S
O203   H204    1.014   .     S
O205   H206    0.984   .     S
O207   H208    0.983   .     S
C209   O210    1.220   .     D
C209   O211    1.399   .     S
O211   H212    1.013   .     S
C213   O214    1.223   .     D
C213   O215    1.396   .     S
O215   H68     1.011   1_655 S
C217   O218    1.217   .     D
C217   C838    1.461   .     S
C217   O737    1.399   1_655 S
O219   C809    1.399   1_554 S
O219   H886    1.011   1_554 S
H220   O885    1.011   .     S
O221   H222    0.992   .     S
C223   C239    1.414   .     S
C223   O261    1.293   .     A
C223   O262    1.297   .     A
C224   C225    1.393   .     A
C224   C250    1.407   .     A
C224   C892    1.411   .     S
C225   C232    1.419   .     A
C225   C229    1.404   .     A
C226   C230    1.408   .     A
C226   C890    1.411   1_554 S
C226   C893    1.428   1_554 S
C227   C228    1.424   .     A
C227   C892    1.428   .     S
C227   C912    1.418   .     S
C228   C229    1.390   .     A
C228   C287    1.478   .     S
C229   H257    1.082   .     S
C230   O295    1.379   .     S
C230   C247    1.409   .     A
C231   C246    1.380   .     A
C231   H251    1.085   .     S
C231   C247    1.389   .     A
C232   C248    1.398   .     A
C232   C234    1.483   .     S
C233   C239    1.395   .     A
C233   H258    1.082   .     S
C233   C457    1.370   .     S
C234   O264    1.298   .     A
C234   O263    1.331   .     A
C235   H252    1.085   .     S
C235   C236    1.389   .     A
C236   C244    1.405   .     S
C236   C237    1.392   .     A
C237   H253    1.085   .     S
C238   C271    1.487   .     S
C238   C239    1.413   .     A
C238   C459    1.382   .     S
C240   C275    1.471   .     S
C240   N260    1.376   .     A
C240   C315    1.427   .     S
C241   O279    1.376   .     S
C241   N259    1.377   .     A
C241   C388    1.427   1_455 S
C242   O281    1.376   .     S
C242   N259    1.375   .     A
C242   C391    1.426   1_455 S
C243   C283    1.473   .     S
C243   N260    1.378   .     A
C243   C316    1.426   .     S
C244   O265    1.293   .     A
C244   O266    1.294   .     A
C245   O267    1.304   .     A
C245   C247    1.461   .     S
C245   O268    1.309   .     A
C246   C893    1.418   1_554 S
C246   C957    1.461   1_554 S
C248   H254    1.082   .     S
C248   C249    1.405   .     A
C249   H256    1.080   .     S
C249   C250    1.397   .     A
C250   H921    1.082   .     S
H255   C916    1.082   1_554 S
N259   Zn269   2.045   .     S
N260   Zn270   2.044   .     S
O261   Zn269   1.982   .     S
O262   Zn270   1.986   .     S
O263   Zn269   1.950   .     S
O264   Zn270   1.969   .     S
O265   Zn269   1.986   .     S
O266   Zn270   1.982   .     S
O267   Zn269   1.969   .     S
O268   Zn270   1.950   .     S
C271   O272    1.222   .     D
C271   O273    1.399   .     S
O273   H274    1.014   .     S
C275   O276    1.223   .     D
C275   O277    1.395   .     S
O277   H278    1.014   .     S
O279   H280    0.984   .     S
O281   H282    0.983   .     S
C283   O284    1.220   .     D
C283   O285    1.399   .     S
O285   H286    1.013   .     S
C287   O288    1.223   .     D
C287   O289    1.396   .     S
O289   H364    1.011   .     S
H290   O437    1.011   1_455 S
C291   O292    1.217   .     D
C291   C912    1.461   .     S
C291   O1033   1.399   .     S
O293   C1105   1.399   1_454 S
O293   H960    1.011   1_554 S
H294   O959    1.011   .     S
O295   H296    0.992   .     S
C297   C313    1.414   .     S
C297   O335    1.293   .     A
C297   O336    1.297   .     A
C298   C299    1.393   .     A
C298   C324    1.407   .     A
C298   C966    1.411   .     S
C299   C306    1.419   .     A
C299   C303    1.404   .     A
C300   C304    1.408   .     A
C300   C964    1.411   1_554 S
C300   C967    1.428   1_554 S
C301   C302    1.424   .     A
C301   C966    1.428   .     S
C301   C986    1.418   .     S
C302   C303    1.390   .     A
C302   C361    1.478   .     S
C303   H331    1.082   .     S
C304   O369    1.379   .     S
C304   C321    1.409   .     A
C305   C320    1.380   .     A
C305   H325    1.085   .     S
C305   C321    1.389   .     A
C306   C322    1.398   .     A
C306   C308    1.483   .     S
C307   C313    1.395   .     A
C307   H332    1.082   .     S
C307   C531    1.370   .     S
C308   O338    1.298   .     A
C308   O337    1.331   .     A
C309   H326    1.085   .     S
C309   C310    1.389   .     A
C310   C318    1.405   .     S
C310   C311    1.392   .     A
C311   H327    1.085   .     S
C312   C345    1.487   .     S
C312   C313    1.413   .     A
C312   C533    1.382   .     S
C314   C349    1.471   .     S
C314   N334    1.376   .     A
C314   C389    1.427   .     S
C315   O353    1.376   .     S
C315   N333    1.377   .     A
C316   O355    1.376   .     S
C316   N333    1.375   .     A
C317   C357    1.473   .     S
C317   N334    1.378   .     A
C317   C390    1.426   .     S
C318   O339    1.293   .     A
C318   O340    1.294   .     A
C319   O341    1.304   .     A
C319   C321    1.461   .     S
C319   O342    1.309   .     A
C320   C967    1.418   1_554 S
C320   C1031   1.461   1_554 S
C322   H328    1.082   .     S
C322   C323    1.405   .     A
C323   H330    1.080   .     S
C323   C324    1.397   .     A
C324   H995    1.082   .     S
H329   C990    1.082   1_554 S
N333   Zn343   2.045   .     S
N334   Zn344   2.044   .     S
O335   Zn343   1.982   .     S
O336   Zn344   1.986   .     S
O337   Zn343   1.950   .     S
O338   Zn344   1.969   .     S
O339   Zn343   1.986   .     S
O340   Zn344   1.982   .     S
O341   Zn343   1.969   .     S
O342   Zn344   1.950   .     S
C345   O346    1.222   .     D
C345   O347    1.399   .     S
O347   H348    1.014   .     S
C349   O350    1.223   .     D
C349   O351    1.395   .     S
O351   H352    1.014   .     S
O353   H354    0.984   .     S
O355   H356    0.983   .     S
C357   O358    1.220   .     D
C357   O359    1.399   .     S
O359   H360    1.013   .     S
C361   O362    1.223   .     D
C361   O363    1.396   .     S
O363   H438    1.011   .     S
C365   O366    1.217   .     D
C365   C986    1.461   .     S
C365   O1107   1.399   .     S
O367   C957    1.399   1_554 S
O367   H1034   1.011   1_554 S
H368   O1033   1.011   .     S
O369   H370    0.992   .     S
C371   C387    1.414   .     S
C371   O409    1.293   .     A
C371   O410    1.297   .     A
C372   C373    1.393   .     A
C372   C398    1.407   .     A
C372   C1040   1.411   .     S
C373   C380    1.419   .     A
C373   C377    1.404   .     A
C374   C378    1.408   .     A
C374   C1038   1.411   1_554 S
C374   C1041   1.428   1_554 S
C375   C376    1.424   .     A
C375   C1040   1.428   .     S
C375   C1060   1.418   .     S
C376   C377    1.390   .     A
C376   C435    1.478   .     S
C377   H405    1.082   .     S
C378   O443    1.379   .     S
C378   C395    1.409   .     A
C379   C394    1.380   .     A
C379   H399    1.085   .     S
C379   C395    1.389   .     A
C380   C396    1.398   .     A
C380   C382    1.483   .     S
C381   C387    1.395   .     A
C381   H406    1.082   .     S
C381   C605    1.370   .     S
C382   O412    1.298   .     A
C382   O411    1.331   .     A
C383   H400    1.085   .     S
C383   C384    1.389   .     A
C384   C392    1.405   .     S
C384   C385    1.392   .     A
C385   H401    1.085   .     S
C386   C419    1.487   .     S
C386   C387    1.413   .     A
C386   C607    1.382   .     S
C388   C423    1.471   .     S
C388   N408    1.376   .     A
C388   C241    1.427   1_655 S
C389   O427    1.376   .     S
C389   N407    1.377   .     A
C390   O429    1.376   .     S
C390   N407    1.375   .     A
C391   C431    1.473   .     S
C391   N408    1.378   .     A
C391   C242    1.426   1_655 S
C392   O413    1.293   .     A
C392   O414    1.294   .     A
C393   O415    1.304   .     A
C393   C395    1.461   .     S
C393   O416    1.309   .     A
C394   C1041   1.418   1_554 S
C394   C1105   1.461   1_554 S
C396   H402    1.082   .     S
C396   C397    1.405   .     A
C397   H404    1.080   .     S
C397   C398    1.397   .     A
C398   H1069   1.082   .     S
H403   C1064   1.082   1_554 S
N407   Zn417   2.045   .     S
N408   Zn418   2.044   .     S
O409   Zn417   1.982   .     S
O410   Zn418   1.986   .     S
O411   Zn417   1.950   .     S
O412   Zn418   1.969   .     S
O413   Zn417   1.986   .     S
O414   Zn418   1.982   .     S
O415   Zn417   1.969   .     S
O416   Zn418   1.950   .     S
C419   O420    1.222   .     D
C419   O421    1.399   .     S
O421   H422    1.014   .     S
C423   O424    1.223   .     D
C423   O425    1.395   .     S
O425   H426    1.014   .     S
O427   H428    0.984   .     S
O429   H430    0.983   .     S
C431   O432    1.220   .     D
C431   O433    1.399   .     S
O433   H434    1.013   .     S
C435   O436    1.223   .     D
C435   O437    1.396   .     S
O437   H290    1.011   1_655 S
C439   O440    1.217   .     D
C439   C1060   1.461   .     S
C439   O959    1.399   1_655 S
O441   C1031   1.399   1_554 S
O441   H1108   1.011   1_554 S
H442   O1107   1.011   .     S
O443   H444    0.992   .     S
C445   C461    1.414   .     S
C445   O483    1.293   .     A
C445   O484    1.297   .     A
C446   C447    1.393   .     A
C446   C472    1.407   .     A
C446   C1114   1.411   .     S
C447   C454    1.419   .     A
C447   C451    1.404   .     A
C448   C452    1.408   .     A
C448   C1112   1.411   1_554 S
C448   C1115   1.428   1_554 S
C449   C450    1.424   .     A
C449   C1114   1.428   .     S
C449   C1134   1.418   .     S
C450   C451    1.390   .     A
C450   C509    1.478   .     S
C451   H479    1.082   .     S
C452   O517    1.379   .     S
C452   C469    1.409   .     A
C453   C468    1.380   .     A
C453   H473    1.085   .     S
C453   C469    1.389   .     A
C454   C470    1.398   .     A
C454   C456    1.483   .     S
C455   C461    1.395   .     A
C455   H480    1.082   .     S
C455   C13     1.370   1_565 S
C456   O486    1.298   .     A
C456   O485    1.331   .     A
C457   H474    1.085   .     S
C457   C458    1.389   .     A
C458   C466    1.405   .     S
C458   C459    1.392   .     A
C459   H475    1.085   .     S
C460   C493    1.487   .     S
C460   C461    1.413   .     A
C460   C15     1.382   1_565 S
C462   C497    1.471   .     S
C462   N482    1.376   .     A
C462   C537    1.427   .     S
C463   O501    1.376   .     S
C463   N481    1.377   .     A
C463   C610    1.427   1_455 S
C464   O503    1.376   .     S
C464   N481    1.375   .     A
C464   C613    1.426   1_455 S
C465   C505    1.473   .     S
C465   N482    1.378   .     A
C465   C538    1.426   .     S
C466   O487    1.293   .     A
C466   O488    1.294   .     A
C467   O489    1.304   .     A
C467   C469    1.461   .     S
C467   O490    1.309   .     A
C468   C1115   1.418   1_554 S
C468   C1179   1.461   1_554 S
C470   H476    1.082   .     S
C470   C471    1.405   .     A
C471   H478    1.080   .     S
C471   C472    1.397   .     A
C472   H1143   1.082   .     S
H477   C1138   1.082   1_554 S
N481   Zn491   2.045   .     S
N482   Zn492   2.044   .     S
O483   Zn491   1.982   .     S
O484   Zn492   1.986   .     S
O485   Zn491   1.950   .     S
O486   Zn492   1.969   .     S
O487   Zn491   1.986   .     S
O488   Zn492   1.982   .     S
O489   Zn491   1.969   .     S
O490   Zn492   1.950   .     S
C493   O494    1.222   .     D
C493   O495    1.399   .     S
O495   H496    1.014   .     S
C497   O498    1.223   .     D
C497   O499    1.395   .     S
O499   H500    1.014   .     S
O501   H502    0.984   .     S
O503   H504    0.983   .     S
C505   O506    1.220   .     D
C505   O507    1.399   .     S
O507   H508    1.013   .     S
C509   O510    1.223   .     D
C509   O511    1.396   .     S
O511   H586    1.011   .     S
H512   O659    1.011   1_455 S
C513   O514    1.217   .     D
C513   C1134   1.461   .     S
C513   O1255   1.399   .     S
O515   C1327   1.399   1_454 S
O515   H1182   1.011   1_554 S
H516   O1181   1.011   .     S
O517   H518    0.992   .     S
C519   C535    1.414   .     S
C519   O557    1.293   .     A
C519   O558    1.297   .     A
C520   C521    1.393   .     A
C520   C546    1.407   .     A
C520   C1188   1.411   .     S
C521   C528    1.419   .     A
C521   C525    1.404   .     A
C522   C526    1.408   .     A
C522   C1186   1.411   1_554 S
C522   C1189   1.428   1_554 S
C523   C524    1.424   .     A
C523   C1188   1.428   .     S
C523   C1208   1.418   .     S
C524   C525    1.390   .     A
C524   C583    1.478   .     S
C525   H553    1.082   .     S
C526   O591    1.379   .     S
C526   C543    1.409   .     A
C527   C542    1.380   .     A
C527   H547    1.085   .     S
C527   C543    1.389   .     A
C528   C544    1.398   .     A
C528   C530    1.483   .     S
C529   C535    1.395   .     A
C529   H554    1.082   .     S
C529   C87     1.370   1_565 S
C530   O560    1.298   .     A
C530   O559    1.331   .     A
C531   H548    1.085   .     S
C531   C532    1.389   .     A
C532   C540    1.405   .     S
C532   C533    1.392   .     A
C533   H549    1.085   .     S
C534   C567    1.487   .     S
C534   C535    1.413   .     A
C534   C89     1.382   1_565 S
C536   C571    1.471   .     S
C536   N556    1.376   .     A
C536   C611    1.427   .     S
C537   O575    1.376   .     S
C537   N555    1.377   .     A
C538   O577    1.376   .     S
C538   N555    1.375   .     A
C539   C579    1.473   .     S
C539   N556    1.378   .     A
C539   C612    1.426   .     S
C540   O561    1.293   .     A
C540   O562    1.294   .     A
C541   O563    1.304   .     A
C541   C543    1.461   .     S
C541   O564    1.309   .     A
C542   C1189   1.418   1_554 S
C542   C1253   1.461   1_554 S
C544   H550    1.082   .     S
C544   C545    1.405   .     A
C545   H552    1.080   .     S
C545   C546    1.397   .     A
C546   H1217   1.082   .     S
H551   C1212   1.082   1_554 S
N555   Zn565   2.045   .     S
N556   Zn566   2.044   .     S
O557   Zn565   1.982   .     S
O558   Zn566   1.986   .     S
O559   Zn565   1.950   .     S
O560   Zn566   1.969   .     S
O561   Zn565   1.986   .     S
O562   Zn566   1.982   .     S
O563   Zn565   1.969   .     S
O564   Zn566   1.950   .     S
C567   O568    1.222   .     D
C567   O569    1.399   .     S
O569   H570    1.014   .     S
C571   O572    1.223   .     D
C571   O573    1.395   .     S
O573   H574    1.014   .     S
O575   H576    0.984   .     S
O577   H578    0.983   .     S
C579   O580    1.220   .     D
C579   O581    1.399   .     S
O581   H582    1.013   .     S
C583   O584    1.223   .     D
C583   O585    1.396   .     S
O585   H660    1.011   .     S
C587   O588    1.217   .     D
C587   C1208   1.461   .     S
C587   O1329   1.399   .     S
O589   C1179   1.399   1_554 S
O589   H1256   1.011   1_554 S
H590   O1255   1.011   .     S
O591   H592    0.992   .     S
C593   C609    1.414   .     S
C593   O631    1.293   .     A
C593   O632    1.297   .     A
C594   C595    1.393   .     A
C594   C620    1.407   .     A
C594   C1262   1.411   .     S
C595   C602    1.419   .     A
C595   C599    1.404   .     A
C596   C600    1.408   .     A
C596   C1260   1.411   1_554 S
C596   C1263   1.428   1_554 S
C597   C598    1.424   .     A
C597   C1262   1.428   .     S
C597   C1282   1.418   .     S
C598   C599    1.390   .     A
C598   C657    1.478   .     S
C599   H627    1.082   .     S
C600   O665    1.379   .     S
C600   C617    1.409   .     A
C601   C616    1.380   .     A
C601   H621    1.085   .     S
C601   C617    1.389   .     A
C602   C618    1.398   .     A
C602   C604    1.483   .     S
C603   C609    1.395   .     A
C603   H628    1.082   .     S
C603   C161    1.370   1_565 S
C604   O634    1.298   .     A
C604   O633    1.331   .     A
C605   H622    1.085   .     S
C605   C606    1.389   .     A
C606   C614    1.405   .     S
C606   C607    1.392   .     A
C607   H623    1.085   .     S
C608   C641    1.487   .     S
C608   C609    1.413   .     A
C608   C163    1.382   1_565 S
C610   C645    1.471   .     S
C610   N630    1.376   .     A
C610   C463    1.427   1_655 S
C611   O649    1.376   .     S
C611   N629    1.377   .     A
C612   O651    1.376   .     S
C612   N629    1.375   .     A
C613   C653    1.473   .     S
C613   N630    1.378   .     A
C613   C464    1.426   1_655 S
C614   O635    1.293   .     A
C614   O636    1.294   .     A
C615   O637    1.304   .     A
C615   C617    1.461   .     S
C615   O638    1.309   .     A
C616   C1263   1.418   1_554 S
C616   C1327   1.461   1_554 S
C618   H624    1.082   .     S
C618   C619    1.405   .     A
C619   H626    1.080   .     S
C619   C620    1.397   .     A
C620   H1291   1.082   .     S
H625   C1286   1.082   1_554 S
N629   Zn639   2.045   .     S
N630   Zn640   2.044   .     S
O631   Zn639   1.982   .     S
O632   Zn640   1.986   .     S
O633   Zn639   1.950   .     S
O634   Zn640   1.969   .     S
O635   Zn639   1.986   .     S
O636   Zn640   1.982   .     S
O637   Zn639   1.969   .     S
O638   Zn640   1.950   .     S
C641   O642    1.222   .     D
C641   O643    1.399   .     S
O643   H644    1.014   .     S
C645   O646    1.223   .     D
C645   O647    1.395   .     S
O647   H648    1.014   .     S
O649   H650    0.984   .     S
O651   H652    0.983   .     S
C653   O654    1.220   .     D
C653   O655    1.399   .     S
O655   H656    1.013   .     S
C657   O658    1.223   .     D
C657   O659    1.396   .     S
O659   H512    1.011   1_655 S
C661   O662    1.217   .     D
C661   C1282   1.461   .     S
C661   O1181   1.399   1_655 S
O663   C1253   1.399   1_554 S
O663   H1330   1.011   1_554 S
H664   O1329   1.011   .     S
O665   H666    0.992   .     S
C667   C683    1.414   .     S
C667   O705    1.293   .     A
C667   O706    1.297   .     A
C668   C669    1.393   .     A
C668   C694    1.407   .     A
C668   C4      1.411   1_556 S
C669   C676    1.419   .     A
C669   C673    1.404   .     A
C670   C674    1.408   .     A
C671   C672    1.424   .     A
C671   C4      1.428   1_556 S
C671   C24     1.418   1_556 S
C672   C673    1.390   .     A
C672   C731    1.478   .     S
C673   H701    1.082   .     S
C674   O739    1.379   .     S
C674   C691    1.409   .     A
C675   C690    1.380   .     A
C675   H695    1.085   .     S
C675   C691    1.389   .     A
C676   C692    1.398   .     A
C676   C678    1.483   .     S
C677   C683    1.395   .     A
C677   H702    1.082   .     S
C677   C901    1.370   .     S
C678   O708    1.298   .     A
C678   O707    1.331   .     A
C679   H696    1.085   .     S
C679   C680    1.389   .     A
C679   C1121   1.370   1_545 S
C680   C688    1.405   .     S
C680   C681    1.392   .     A
C681   H697    1.085   .     S
C681   C1126   1.382   1_545 S
C682   C715    1.487   .     S
C682   C683    1.413   .     A
C682   C903    1.382   .     S
C684   C719    1.471   .     S
C684   N704    1.376   .     A
C684   C759    1.427   .     S
C685   O723    1.376   .     S
C685   N703    1.377   .     A
C685   C832    1.427   1_455 S
C686   O725    1.376   .     S
C686   N703    1.375   .     A
C686   C835    1.426   1_455 S
C687   C727    1.473   .     S
C687   N704    1.378   .     A
C687   C760    1.426   .     S
C688   O709    1.293   .     A
C688   O710    1.294   .     A
C689   O711    1.304   .     A
C689   C691    1.461   .     S
C689   O712    1.309   .     A
C692   H698    1.082   .     S
C692   C693    1.405   .     A
C693   H700    1.080   .     S
C693   C694    1.397   .     A
C694   H33     1.082   1_556 S
N703   Zn713   2.045   .     S
N704   Zn714   2.044   .     S
O705   Zn713   1.982   .     S
O706   Zn714   1.986   .     S
O707   Zn713   1.950   .     S
O708   Zn714   1.969   .     S
O709   Zn713   1.986   .     S
O710   Zn714   1.982   .     S
O711   Zn713   1.969   .     S
O712   Zn714   1.950   .     S
C715   O716    1.222   .     D
C715   O717    1.399   .     S
O717   H718    1.014   .     S
C719   O720    1.223   .     D
C719   O721    1.395   .     S
O721   H722    1.014   .     S
O723   H724    0.984   .     S
O725   H726    0.983   .     S
C727   O728    1.220   .     D
C727   O729    1.399   .     S
O729   H730    1.013   .     S
C731   O732    1.223   .     D
C731   O733    1.396   .     S
O733   H808    1.011   .     S
H734   O881    1.011   1_455 S
C735   O736    1.217   .     D
C735   C24     1.461   1_556 S
C735   O145    1.399   1_556 S
O737   C217    1.399   1_455 S
H738   O71     1.011   1_556 S
O739   H740    0.992   .     S
C741   C757    1.414   .     S
C741   O779    1.293   .     A
C741   O780    1.297   .     A
C742   C743    1.393   .     A
C742   C768    1.407   .     A
C742   C78     1.411   1_556 S
C743   C750    1.419   .     A
C743   C747    1.404   .     A
C744   C748    1.408   .     A
C745   C746    1.424   .     A
C745   C78     1.428   1_556 S
C745   C98     1.418   1_556 S
C746   C747    1.390   .     A
C746   C805    1.478   .     S
C747   H775    1.082   .     S
C748   O813    1.379   .     S
C748   C765    1.409   .     A
C749   C764    1.380   .     A
C749   H769    1.085   .     S
C749   C765    1.389   .     A
C750   C766    1.398   .     A
C750   C752    1.483   .     S
C751   C757    1.395   .     A
C751   H776    1.082   .     S
C751   C975    1.370   .     S
C752   O782    1.298   .     A
C752   O781    1.331   .     A
C753   H770    1.085   .     S
C753   C754    1.389   .     A
C753   C1195   1.370   1_545 S
C754   C762    1.405   .     S
C754   C755    1.392   .     A
C755   H771    1.085   .     S
C755   C1200   1.382   1_545 S
C756   C789    1.487   .     S
C756   C757    1.413   .     A
C756   C977    1.382   .     S
C758   C793    1.471   .     S
C758   N778    1.376   .     A
C758   C833    1.427   .     S
C759   O797    1.376   .     S
C759   N777    1.377   .     A
C760   O799    1.376   .     S
C760   N777    1.375   .     A
C761   C801    1.473   .     S
C761   N778    1.378   .     A
C761   C834    1.426   .     S
C762   O783    1.293   .     A
C762   O784    1.294   .     A
C763   O785    1.304   .     A
C763   C765    1.461   .     S
C763   O786    1.309   .     A
C766   H772    1.082   .     S
C766   C767    1.405   .     A
C767   H774    1.080   .     S
C767   C768    1.397   .     A
C768   H107    1.082   1_556 S
N777   Zn787   2.045   .     S
N778   Zn788   2.044   .     S
O779   Zn787   1.982   .     S
O780   Zn788   1.986   .     S
O781   Zn787   1.950   .     S
O782   Zn788   1.969   .     S
O783   Zn787   1.986   .     S
O784   Zn788   1.982   .     S
O785   Zn787   1.969   .     S
O786   Zn788   1.950   .     S
C789   O790    1.222   .     D
C789   O791    1.399   .     S
O791   H792    1.014   .     S
C793   O794    1.223   .     D
C793   O795    1.395   .     S
O795   H796    1.014   .     S
O797   H798    0.984   .     S
O799   H800    0.983   .     S
C801   O802    1.220   .     D
C801   O803    1.399   .     S
O803   H804    1.013   .     S
C805   O806    1.223   .     D
C805   O807    1.396   .     S
O807   H882    1.011   .     S
C809   O810    1.217   .     D
C809   C98     1.461   1_556 S
C809   O219    1.399   1_556 S
H812   O145    1.011   1_556 S
O813   H814    0.992   .     S
C815   C831    1.414   .     S
C815   O853    1.293   .     A
C815   O854    1.297   .     A
C816   C817    1.393   .     A
C816   C842    1.407   .     A
C816   C152    1.411   1_556 S
C817   C824    1.419   .     A
C817   C821    1.404   .     A
C818   C822    1.408   .     A
C819   C820    1.424   .     A
C819   C152    1.428   1_556 S
C819   C172    1.418   1_556 S
C820   C821    1.390   .     A
C820   C879    1.478   .     S
C821   H849    1.082   .     S
C822   O887    1.379   .     S
C822   C839    1.409   .     A
C823   C838    1.380   .     A
C823   H843    1.085   .     S
C823   C839    1.389   .     A
C824   C840    1.398   .     A
C824   C826    1.483   .     S
C825   C831    1.395   .     A
C825   H850    1.082   .     S
C825   C1049   1.370   .     S
C826   O856    1.298   .     A
C826   O855    1.331   .     A
C827   H844    1.085   .     S
C827   C828    1.389   .     A
C827   C1269   1.370   1_545 S
C828   C836    1.405   .     S
C828   C829    1.392   .     A
C829   H845    1.085   .     S
C829   C1274   1.382   1_545 S
C830   C863    1.487   .     S
C830   C831    1.413   .     A
C830   C1051   1.382   .     S
C832   C867    1.471   .     S
C832   N852    1.376   .     A
C832   C685    1.427   1_655 S
C833   O871    1.376   .     S
C833   N851    1.377   .     A
C834   O873    1.376   .     S
C834   N851    1.375   .     A
C835   C875    1.473   .     S
C835   N852    1.378   .     A
C835   C686    1.426   1_655 S
C836   O857    1.293   .     A
C836   O858    1.294   .     A
C837   O859    1.304   .     A
C837   C839    1.461   .     S
C837   O860    1.309   .     A
C840   H846    1.082   .     S
C840   C841    1.405   .     A
C841   H848    1.080   .     S
C841   C842    1.397   .     A
C842   H181    1.082   1_556 S
N851   Zn861   2.045   .     S
N852   Zn862   2.044   .     S
O853   Zn861   1.982   .     S
O854   Zn862   1.986   .     S
O855   Zn861   1.950   .     S
O856   Zn862   1.969   .     S
O857   Zn861   1.986   .     S
O858   Zn862   1.982   .     S
O859   Zn861   1.969   .     S
O860   Zn862   1.950   .     S
C863   O864    1.222   .     D
C863   O865    1.399   .     S
O865   H866    1.014   .     S
C867   O868    1.223   .     D
C867   O869    1.395   .     S
O869   H870    1.014   .     S
O871   H872    0.984   .     S
O873   H874    0.983   .     S
C875   O876    1.220   .     D
C875   O877    1.399   .     S
O877   H878    1.013   .     S
C879   O880    1.223   .     D
C879   O881    1.396   .     S
O881   H734    1.011   1_655 S
C883   O884    1.217   .     D
C883   C172    1.461   1_556 S
C883   O71     1.399   1_656 S
H886   O219    1.011   1_556 S
O887   H888    0.992   .     S
C889   C905    1.414   .     S
C889   O927    1.293   .     A
C889   O928    1.297   .     A
C890   C891    1.393   .     A
C890   C916    1.407   .     A
C890   C226    1.411   1_556 S
C891   C898    1.419   .     A
C891   C895    1.404   .     A
C892   C896    1.408   .     A
C893   C894    1.424   .     A
C893   C226    1.428   1_556 S
C893   C246    1.418   1_556 S
C894   C895    1.390   .     A
C894   C953    1.478   .     S
C895   H923    1.082   .     S
C896   O961    1.379   .     S
C896   C913    1.409   .     A
C897   C912    1.380   .     A
C897   H917    1.085   .     S
C897   C913    1.389   .     A
C898   C914    1.398   .     A
C898   C900    1.483   .     S
C899   C905    1.395   .     A
C899   H924    1.082   .     S
C899   C1123   1.370   .     S
C900   O930    1.298   .     A
C900   O929    1.331   .     A
C901   H918    1.085   .     S
C901   C902    1.389   .     A
C902   C910    1.405   .     S
C902   C903    1.392   .     A
C903   H919    1.085   .     S
C904   C937    1.487   .     S
C904   C905    1.413   .     A
C904   C1125   1.382   .     S
C906   C941    1.471   .     S
C906   N926    1.376   .     A
C906   C981    1.427   .     S
C907   O945    1.376   .     S
C907   N925    1.377   .     A
C907   C1054   1.427   1_455 S
C908   O947    1.376   .     S
C908   N925    1.375   .     A
C908   C1057   1.426   1_455 S
C909   C949    1.473   .     S
C909   N926    1.378   .     A
C909   C982    1.426   .     S
C910   O931    1.293   .     A
C910   O932    1.294   .     A
C911   O933    1.304   .     A
C911   C913    1.461   .     S
C911   O934    1.309   .     A
C914   H920    1.082   .     S
C914   C915    1.405   .     A
C915   H922    1.080   .     S
C915   C916    1.397   .     A
C916   H255    1.082   1_556 S
N925   Zn935   2.045   .     S
N926   Zn936   2.044   .     S
O927   Zn935   1.982   .     S
O928   Zn936   1.986   .     S
O929   Zn935   1.950   .     S
O930   Zn936   1.969   .     S
O931   Zn935   1.986   .     S
O932   Zn936   1.982   .     S
O933   Zn935   1.969   .     S
O934   Zn936   1.950   .     S
C937   O938    1.222   .     D
C937   O939    1.399   .     S
O939   H940    1.014   .     S
C941   O942    1.223   .     D
C941   O943    1.395   .     S
O943   H944    1.014   .     S
O945   H946    0.984   .     S
O947   H948    0.983   .     S
C949   O950    1.220   .     D
C949   O951    1.399   .     S
O951   H952    1.013   .     S
C953   O954    1.223   .     D
C953   O955    1.396   .     S
O955   H1030   1.011   .     S
H956   O1103   1.011   1_455 S
C957   O958    1.217   .     D
C957   C246    1.461   1_556 S
C957   O367    1.399   1_556 S
O959   C439    1.399   1_455 S
H960   O293    1.011   1_556 S
O961   H962    0.992   .     S
C963   C979    1.414   .     S
C963   O1001   1.293   .     A
C963   O1002   1.297   .     A
C964   C965    1.393   .     A
C964   C990    1.407   .     A
C964   C300    1.411   1_556 S
C965   C972    1.419   .     A
C965   C969    1.404   .     A
C966   C970    1.408   .     A
C967   C968    1.424   .     A
C967   C300    1.428   1_556 S
C967   C320    1.418   1_556 S
C968   C969    1.390   .     A
C968   C1027   1.478   .     S
C969   H997    1.082   .     S
C970   O1035   1.379   .     S
C970   C987    1.409   .     A
C971   C986    1.380   .     A
C971   H991    1.085   .     S
C971   C987    1.389   .     A
C972   C988    1.398   .     A
C972   C974    1.483   .     S
C973   C979    1.395   .     A
C973   H998    1.082   .     S
C973   C1197   1.370   .     S
C974   O1004   1.298   .     A
C974   O1003   1.331   .     A
C975   H992    1.085   .     S
C975   C976    1.389   .     A
C976   C984    1.405   .     S
C976   C977    1.392   .     A
C977   H993    1.085   .     S
C978   C1011   1.487   .     S
C978   C979    1.413   .     A
C978   C1199   1.382   .     S
C980   C1015   1.471   .     S
C980   N1000   1.376   .     A
C980   C1055   1.427   .     S
C981   O1019   1.376   .     S
C981   N999    1.377   .     A
C982   O1021   1.376   .     S
C982   N999    1.375   .     A
C983   C1023   1.473   .     S
C983   N1000   1.378   .     A
C983   C1056   1.426   .     S
C984   O1005   1.293   .     A
C984   O1006   1.294   .     A
C985   O1007   1.304   .     A
C985   C987    1.461   .     S
C985   O1008   1.309   .     A
C988   H994    1.082   .     S
C988   C989    1.405   .     A
C989   H996    1.080   .     S
C989   C990    1.397   .     A
C990   H329    1.082   1_556 S
N999   Zn1009  2.045   .     S
N1000  Zn1010  2.044   .     S
O1001  Zn1009  1.982   .     S
O1002  Zn1010  1.986   .     S
O1003  Zn1009  1.950   .     S
O1004  Zn1010  1.969   .     S
O1005  Zn1009  1.986   .     S
O1006  Zn1010  1.982   .     S
O1007  Zn1009  1.969   .     S
O1008  Zn1010  1.950   .     S
C1011  O1012   1.222   .     D
C1011  O1013   1.399   .     S
O1013  H1014   1.014   .     S
C1015  O1016   1.223   .     D
C1015  O1017   1.395   .     S
O1017  H1018   1.014   .     S
O1019  H1020   0.984   .     S
O1021  H1022   0.983   .     S
C1023  O1024   1.220   .     D
C1023  O1025   1.399   .     S
O1025  H1026   1.013   .     S
C1027  O1028   1.223   .     D
C1027  O1029   1.396   .     S
O1029  H1104   1.011   .     S
C1031  O1032   1.217   .     D
C1031  C320    1.461   1_556 S
C1031  O441    1.399   1_556 S
H1034  O367    1.011   1_556 S
O1035  H1036   0.992   .     S
C1037  C1053   1.414   .     S
C1037  O1075   1.293   .     A
C1037  O1076   1.297   .     A
C1038  C1039   1.393   .     A
C1038  C1064   1.407   .     A
C1038  C374    1.411   1_556 S
C1039  C1046   1.419   .     A
C1039  C1043   1.404   .     A
C1040  C1044   1.408   .     A
C1041  C1042   1.424   .     A
C1041  C374    1.428   1_556 S
C1041  C394    1.418   1_556 S
C1042  C1043   1.390   .     A
C1042  C1101   1.478   .     S
C1043  H1071   1.082   .     S
C1044  O1109   1.379   .     S
C1044  C1061   1.409   .     A
C1045  C1060   1.380   .     A
C1045  H1065   1.085   .     S
C1045  C1061   1.389   .     A
C1046  C1062   1.398   .     A
C1046  C1048   1.483   .     S
C1047  C1053   1.395   .     A
C1047  H1072   1.082   .     S
C1047  C1271   1.370   .     S
C1048  O1078   1.298   .     A
C1048  O1077   1.331   .     A
C1049  H1066   1.085   .     S
C1049  C1050   1.389   .     A
C1050  C1058   1.405   .     S
C1050  C1051   1.392   .     A
C1051  H1067   1.085   .     S
C1052  C1085   1.487   .     S
C1052  C1053   1.413   .     A
C1052  C1273   1.382   .     S
C1054  C1089   1.471   .     S
C1054  N1074   1.376   .     A
C1054  C907    1.427   1_655 S
C1055  O1093   1.376   .     S
C1055  N1073   1.377   .     A
C1056  O1095   1.376   .     S
C1056  N1073   1.375   .     A
C1057  C1097   1.473   .     S
C1057  N1074   1.378   .     A
C1057  C908    1.426   1_655 S
C1058  O1079   1.293   .     A
C1058  O1080   1.294   .     A
C1059  O1081   1.304   .     A
C1059  C1061   1.461   .     S
C1059  O1082   1.309   .     A
C1062  H1068   1.082   .     S
C1062  C1063   1.405   .     A
C1063  H1070   1.080   .     S
C1063  C1064   1.397   .     A
C1064  H403    1.082   1_556 S
N1073  Zn1083  2.045   .     S
N1074  Zn1084  2.044   .     S
O1075  Zn1083  1.982   .     S
O1076  Zn1084  1.986   .     S
O1077  Zn1083  1.950   .     S
O1078  Zn1084  1.969   .     S
O1079  Zn1083  1.986   .     S
O1080  Zn1084  1.982   .     S
O1081  Zn1083  1.969   .     S
O1082  Zn1084  1.950   .     S
C1085  O1086   1.222   .     D
C1085  O1087   1.399   .     S
O1087  H1088   1.014   .     S
C1089  O1090   1.223   .     D
C1089  O1091   1.395   .     S
O1091  H1092   1.014   .     S
O1093  H1094   0.984   .     S
O1095  H1096   0.983   .     S
C1097  O1098   1.220   .     D
C1097  O1099   1.399   .     S
O1099  H1100   1.013   .     S
C1101  O1102   1.223   .     D
C1101  O1103   1.396   .     S
O1103  H956    1.011   1_655 S
C1105  O1106   1.217   .     D
C1105  C394    1.461   1_556 S
C1105  O293    1.399   1_656 S
H1108  O441    1.011   1_556 S
O1109  H1110   0.992   .     S
C1111  C1127   1.414   .     S
C1111  O1149   1.293   .     A
C1111  O1150   1.297   .     A
C1112  C1113   1.393   .     A
C1112  C1138   1.407   .     A
C1112  C448    1.411   1_556 S
C1113  C1120   1.419   .     A
C1113  C1117   1.404   .     A
C1114  C1118   1.408   .     A
C1115  C1116   1.424   .     A
C1115  C448    1.428   1_556 S
C1115  C468    1.418   1_556 S
C1116  C1117   1.390   .     A
C1116  C1175   1.478   .     S
C1117  H1145   1.082   .     S
C1118  O1183   1.379   .     S
C1118  C1135   1.409   .     A
C1119  C1134   1.380   .     A
C1119  H1139   1.085   .     S
C1119  C1135   1.389   .     A
C1120  C1136   1.398   .     A
C1120  C1122   1.483   .     S
C1121  C1127   1.395   .     A
C1121  H1146   1.082   .     S
C1121  C679    1.370   1_565 S
C1122  O1152   1.298   .     A
C1122  O1151   1.331   .     A
C1123  H1140   1.085   .     S
C1123  C1124   1.389   .     A
C1124  C1132   1.405   .     S
C1124  C1125   1.392   .     A
C1125  H1141   1.085   .     S
C1126  C1159   1.487   .     S
C1126  C1127   1.413   .     A
C1126  C681    1.382   1_565 S
C1128  C1163   1.471   .     S
C1128  N1148   1.376   .     A
C1128  C1203   1.427   .     S
C1129  O1167   1.376   .     S
C1129  N1147   1.377   .     A
C1129  C1276   1.427   1_455 S
C1130  O1169   1.376   .     S
C1130  N1147   1.375   .     A
C1130  C1279   1.426   1_455 S
C1131  C1171   1.473   .     S
C1131  N1148   1.378   .     A
C1131  C1204   1.426   .     S
C1132  O1153   1.293   .     A
C1132  O1154   1.294   .     A
C1133  O1155   1.304   .     A
C1133  C1135   1.461   .     S
C1133  O1156   1.309   .     A
C1136  H1142   1.082   .     S
C1136  C1137   1.405   .     A
C1137  H1144   1.080   .     S
C1137  C1138   1.397   .     A
C1138  H477    1.082   1_556 S
N1147  Zn1157  2.045   .     S
N1148  Zn1158  2.044   .     S
O1149  Zn1157  1.982   .     S
O1150  Zn1158  1.986   .     S
O1151  Zn1157  1.950   .     S
O1152  Zn1158  1.969   .     S
O1153  Zn1157  1.986   .     S
O1154  Zn1158  1.982   .     S
O1155  Zn1157  1.969   .     S
O1156  Zn1158  1.950   .     S
C1159  O1160   1.222   .     D
C1159  O1161   1.399   .     S
O1161  H1162   1.014   .     S
C1163  O1164   1.223   .     D
C1163  O1165   1.395   .     S
O1165  H1166   1.014   .     S
O1167  H1168   0.984   .     S
O1169  H1170   0.983   .     S
C1171  O1172   1.220   .     D
C1171  O1173   1.399   .     S
O1173  H1174   1.013   .     S
C1175  O1176   1.223   .     D
C1175  O1177   1.396   .     S
O1177  H1252   1.011   .     S
H1178  O1325   1.011   1_455 S
C1179  O1180   1.217   .     D
C1179  C468    1.461   1_556 S
C1179  O589    1.399   1_556 S
O1181  C661    1.399   1_455 S
H1182  O515    1.011   1_556 S
O1183  H1184   0.992   .     S
C1185  C1201   1.414   .     S
C1185  O1223   1.293   .     A
C1185  O1224   1.297   .     A
C1186  C1187   1.393   .     A
C1186  C1212   1.407   .     A
C1186  C522    1.411   1_556 S
C1187  C1194   1.419   .     A
C1187  C1191   1.404   .     A
C1188  C1192   1.408   .     A
C1189  C1190   1.424   .     A
C1189  C522    1.428   1_556 S
C1189  C542    1.418   1_556 S
C1190  C1191   1.390   .     A
C1190  C1249   1.478   .     S
C1191  H1219   1.082   .     S
C1192  O1257   1.379   .     S
C1192  C1209   1.409   .     A
C1193  C1208   1.380   .     A
C1193  H1213   1.085   .     S
C1193  C1209   1.389   .     A
C1194  C1210   1.398   .     A
C1194  C1196   1.483   .     S
C1195  C1201   1.395   .     A
C1195  H1220   1.082   .     S
C1195  C753    1.370   1_565 S
C1196  O1226   1.298   .     A
C1196  O1225   1.331   .     A
C1197  H1214   1.085   .     S
C1197  C1198   1.389   .     A
C1198  C1206   1.405   .     S
C1198  C1199   1.392   .     A
C1199  H1215   1.085   .     S
C1200  C1233   1.487   .     S
C1200  C1201   1.413   .     A
C1200  C755    1.382   1_565 S
C1202  C1237   1.471   .     S
C1202  N1222   1.376   .     A
C1202  C1277   1.427   .     S
C1203  O1241   1.376   .     S
C1203  N1221   1.377   .     A
C1204  O1243   1.376   .     S
C1204  N1221   1.375   .     A
C1205  C1245   1.473   .     S
C1205  N1222   1.378   .     A
C1205  C1278   1.426   .     S
C1206  O1227   1.293   .     A
C1206  O1228   1.294   .     A
C1207  O1229   1.304   .     A
C1207  C1209   1.461   .     S
C1207  O1230   1.309   .     A
C1210  H1216   1.082   .     S
C1210  C1211   1.405   .     A
C1211  H1218   1.080   .     S
C1211  C1212   1.397   .     A
C1212  H551    1.082   1_556 S
N1221  Zn1231  2.045   .     S
N1222  Zn1232  2.044   .     S
O1223  Zn1231  1.982   .     S
O1224  Zn1232  1.986   .     S
O1225  Zn1231  1.950   .     S
O1226  Zn1232  1.969   .     S
O1227  Zn1231  1.986   .     S
O1228  Zn1232  1.982   .     S
O1229  Zn1231  1.969   .     S
O1230  Zn1232  1.950   .     S
C1233  O1234   1.222   .     D
C1233  O1235   1.399   .     S
O1235  H1236   1.014   .     S
C1237  O1238   1.223   .     D
C1237  O1239   1.395   .     S
O1239  H1240   1.014   .     S
O1241  H1242   0.984   .     S
O1243  H1244   0.983   .     S
C1245  O1246   1.220   .     D
C1245  O1247   1.399   .     S
O1247  H1248   1.013   .     S
C1249  O1250   1.223   .     D
C1249  O1251   1.396   .     S
O1251  H1326   1.011   .     S
C1253  O1254   1.217   .     D
C1253  C542    1.461   1_556 S
C1253  O663    1.399   1_556 S
H1256  O589    1.011   1_556 S
O1257  H1258   0.992   .     S
C1259  C1275   1.414   .     S
C1259  O1297   1.293   .     A
C1259  O1298   1.297   .     A
C1260  C1261   1.393   .     A
C1260  C1286   1.407   .     A
C1260  C596    1.411   1_556 S
C1261  C1268   1.419   .     A
C1261  C1265   1.404   .     A
C1262  C1266   1.408   .     A
C1263  C1264   1.424   .     A
C1263  C596    1.428   1_556 S
C1263  C616    1.418   1_556 S
C1264  C1265   1.390   .     A
C1264  C1323   1.478   .     S
C1265  H1293   1.082   .     S
C1266  O1331   1.379   .     S
C1266  C1283   1.409   .     A
C1267  C1282   1.380   .     A
C1267  H1287   1.085   .     S
C1267  C1283   1.389   .     A
C1268  C1284   1.398   .     A
C1268  C1270   1.483   .     S
C1269  C1275   1.395   .     A
C1269  H1294   1.082   .     S
C1269  C827    1.370   1_565 S
C1270  O1300   1.298   .     A
C1270  O1299   1.331   .     A
C1271  H1288   1.085   .     S
C1271  C1272   1.389   .     A
C1272  C1280   1.405   .     S
C1272  C1273   1.392   .     A
C1273  H1289   1.085   .     S
C1274  C1307   1.487   .     S
C1274  C1275   1.413   .     A
C1274  C829    1.382   1_565 S
C1276  C1311   1.471   .     S
C1276  N1296   1.376   .     A
C1276  C1129   1.427   1_655 S
C1277  O1315   1.376   .     S
C1277  N1295   1.377   .     A
C1278  O1317   1.376   .     S
C1278  N1295   1.375   .     A
C1279  C1319   1.473   .     S
C1279  N1296   1.378   .     A
C1279  C1130   1.426   1_655 S
C1280  O1301   1.293   .     A
C1280  O1302   1.294   .     A
C1281  O1303   1.304   .     A
C1281  C1283   1.461   .     S
C1281  O1304   1.309   .     A
C1284  H1290   1.082   .     S
C1284  C1285   1.405   .     A
C1285  H1292   1.080   .     S
C1285  C1286   1.397   .     A
C1286  H625    1.082   1_556 S
N1295  Zn1305  2.045   .     S
N1296  Zn1306  2.044   .     S
O1297  Zn1305  1.982   .     S
O1298  Zn1306  1.986   .     S
O1299  Zn1305  1.950   .     S
O1300  Zn1306  1.969   .     S
O1301  Zn1305  1.986   .     S
O1302  Zn1306  1.982   .     S
O1303  Zn1305  1.969   .     S
O1304  Zn1306  1.950   .     S
C1307  O1308   1.222   .     D
C1307  O1309   1.399   .     S
O1309  H1310   1.014   .     S
C1311  O1312   1.223   .     D
C1311  O1313   1.395   .     S
O1313  H1314   1.014   .     S
O1315  H1316   0.984   .     S
O1317  H1318   0.983   .     S
C1319  O1320   1.220   .     D
C1319  O1321   1.399   .     S
O1321  H1322   1.013   .     S
C1323  O1324   1.223   .     D
C1323  O1325   1.396   .     S
O1325  H1178   1.011   1_655 S
C1327  O1328   1.217   .     D
C1327  C616    1.461   1_556 S
C1327  O515    1.399   1_656 S
H1330  O663    1.011   1_556 S
O1331  H1332   0.992   .     S
