data_str_m1_o10_o16_pcu_sym.206
_audit_creation_date              2020-01-03
_audit_creation_method            'Materials Studio'
_symmetry_space_group_name_H-M    'P1'
_symmetry_Int_Tables_number       1
_symmetry_cell_setting            triclinic
loop_
_symmetry_equiv_pos_as_xyz
  x,y,z
_cell_length_a                    32.5486
_cell_length_b                    32.7421
_cell_length_c                    31.0774
_cell_angle_alpha                 97.3291
_cell_angle_beta                  74.4690
_cell_angle_gamma                 98.9379
loop_
_atom_site_label
_atom_site_type_symbol
_atom_site_fract_x
_atom_site_fract_y
_atom_site_fract_z
_atom_site_U_iso_or_equiv
_atom_site_adp_type
_atom_site_occupancy
C1     C     0.05261   0.15921   0.26037   0.00000  Uiso   1.00
C2     C     0.17091   0.16483   0.06011   0.00000  Uiso   1.00
C3     C     0.20880   0.10548   0.05743   0.00000  Uiso   1.00
C4     C     0.28074   0.17445   0.24030   0.00000  Uiso   1.00
C5     C     0.14244   0.19551   0.42008   0.00000  Uiso   1.00
C6     C     0.32683   0.17931   0.23720   0.00000  Uiso   1.00
C7     C     0.00761   0.15703   0.26252   0.00000  Uiso   1.00
C8     C     0.18116   0.32274   0.23873   0.00000  Uiso   1.00
C9     C     0.15033   0.01235   0.26327   0.00000  Uiso   1.00
C10    C     0.15575   0.05616   0.26014   0.00000  Uiso   1.00
C11    C     0.17651   0.27791   0.24046   0.00000  Uiso   1.00
C12    C     0.14555   0.25135   0.47973   0.00000  Uiso   1.00
C13    C     0.18527   0.14784   0.12937   0.00000  Uiso   1.00
C14    C     0.14817   0.18479   0.37106   0.00000  Uiso   1.00
C15    C     0.20442   0.09287   0.01420   0.00000  Uiso   1.00
C16    C     0.19062   0.14059   0.08105   0.00000  Uiso   1.00
C17    C     0.13613   0.23686   0.43862   0.00000  Uiso   1.00
C18    C     0.22900   0.07999   0.07833   0.00000  Uiso   1.00
C19    C     0.22056   0.00874   0.21018   0.00000  Uiso   1.00
C20    C     0.10897   0.32887   0.29033   0.00000  Uiso   1.00
C21    C     0.18113   0.05915   0.43219   0.00000  Uiso   1.00
C22    C     0.09880   0.18065   0.09706   0.00000  Uiso   1.00
C23    C     0.16051   0.22527   0.00226   0.00000  Uiso   1.00
C24    C     0.12271   0.26574   0.41489   0.00000  Uiso   1.00
C25    C     0.14206   0.29376   0.49878   0.00000  Uiso   1.00
C26    C     0.12451   0.10239   0.40454   0.00000  Uiso   1.00
C27    C     0.02151   0.25042   0.22241   0.00000  Uiso   1.00
C28    C     0.16046   0.18255   0.48847   0.00000  Uiso   1.00
C29    C     0.15073   0.16711   0.44707   0.00000  Uiso   1.00
C30    C     0.17218   0.15526   0.01395   0.00000  Uiso   1.00
C31    C     0.18409   0.11625   0.49296   0.00000  Uiso   1.00
C32    C     0.17264   0.10035   0.45285   0.00000  Uiso   1.00
C33    C     0.15074   0.12392   0.43373   0.00000  Uiso   1.00
H34    H     0.31916   0.13525   0.28434   0.00000  Uiso   1.00
H35    H     0.03272   0.25743   0.25365   0.00000  Uiso   1.00
H36    H     0.32193   0.25908   0.22876   0.00000  Uiso   1.00
H37    H     0.21588   0.06403   0.49786   0.00000  Uiso   1.00
H38    H     0.17313   0.23934   0.03024   0.00000  Uiso   1.00
H39    H     0.15459   0.21027   0.11379   0.00000  Uiso   1.00
H40    H     0.09070   0.15547   0.11990   0.00000  Uiso   1.00
H41    H     0.08840   0.16920   0.06593   0.00000  Uiso   1.00
H42    H     0.08099   0.20706   0.11365   0.00000  Uiso   1.00
H43    H     0.05297   0.19924   0.19469   0.00000  Uiso   1.00
H44    H     0.04327   0.26944   0.19627   0.00000  Uiso   1.00
N45    N     0.24516   0.05956   0.09506   0.00000  Uiso   1.00
N46    N     0.25195   0.02413   0.18751   0.00000  Uiso   1.00
N47    N     0.07591   0.31566   0.31199   0.00000  Uiso   1.00
N48    N     0.18810   0.02642   0.41552   0.00000  Uiso   1.00
N49    N     0.14449   0.19453   0.08679   0.00000  Uiso   1.00
N50    N     0.11195   0.28884   0.39611   0.00000  Uiso   1.00
N51    N     0.13917   0.32760   0.01423   0.00000  Uiso   1.00
N52    N     0.10355   0.08511   0.38143   0.00000  Uiso   1.00
N53    N     0.02217   0.20686   0.20710   0.00000  Uiso   1.00
O54    O     0.16667   0.16667   0.25000   0.00000  Uiso   1.00
O55    O     0.15451   0.12637   0.15458   0.00000  Uiso   1.00
O56    O     0.12940   0.20391   0.34968   0.00000  Uiso   1.00
O57    O     0.20824   0.17759   0.14606   0.00000  Uiso   1.00
O58    O     0.17451   0.15880   0.34968   0.00000  Uiso   1.00
O59    O     0.17930   0.08019   0.28213   0.00000  Uiso   1.00
O60    O     0.14632   0.26085   0.27014   0.00000  Uiso   1.00
O61    O     0.07412   0.13291   0.23413   0.00000  Uiso   1.00
O62    O     0.26693   0.19272   0.21360   0.00000  Uiso   1.00
O63    O     0.07071   0.18878   0.28213   0.00000  Uiso   1.00
O64    O     0.25491   0.15226   0.27013   0.00000  Uiso   1.00
O65    O     0.13760   0.06944   0.23413   0.00000  Uiso   1.00
O66    O     0.20345   0.25620   0.21361   0.00000  Uiso   1.00
Zn67   Zn    0.19338   0.13994   0.28734   0.00000  Uiso   1.00
Zn68   Zn    0.13379   0.12458   0.21876   0.00000  Uiso   1.00
Zn69   Zn    0.21056   0.19775   0.20657   0.00000  Uiso   1.00
Zn70   Zn    0.12893   0.20439   0.28734   0.00000  Uiso   1.00
C71    C     0.38594   0.15921   0.26037   0.00000  Uiso   1.00
C72    C     0.50424   0.16483   0.06011   0.00000  Uiso   1.00
C73    C     0.54213   0.10548   0.05743   0.00000  Uiso   1.00
C74    C     0.61407   0.17445   0.24030   0.00000  Uiso   1.00
C75    C     0.47577   0.19551   0.42008   0.00000  Uiso   1.00
C76    C     0.66016   0.17931   0.23720   0.00000  Uiso   1.00
C77    C     0.34095   0.15703   0.26252   0.00000  Uiso   1.00
C78    C     0.51450   0.32274   0.23873   0.00000  Uiso   1.00
C79    C     0.48366   0.01235   0.26327   0.00000  Uiso   1.00
C80    C     0.48908   0.05616   0.26014   0.00000  Uiso   1.00
C81    C     0.50985   0.27791   0.24046   0.00000  Uiso   1.00
C82    C     0.47889   0.25135   0.47973   0.00000  Uiso   1.00
C83    C     0.51860   0.14784   0.12937   0.00000  Uiso   1.00
C84    C     0.48150   0.18479   0.37106   0.00000  Uiso   1.00
C85    C     0.53775   0.09287   0.01420   0.00000  Uiso   1.00
C86    C     0.52395   0.14059   0.08105   0.00000  Uiso   1.00
C87    C     0.46946   0.23686   0.43862   0.00000  Uiso   1.00
C88    C     0.56233   0.07999   0.07833   0.00000  Uiso   1.00
C89    C     0.55389   0.00874   0.21018   0.00000  Uiso   1.00
C90    C     0.44231   0.32887   0.29033   0.00000  Uiso   1.00
C91    C     0.51447   0.05915   0.43219   0.00000  Uiso   1.00
C92    C     0.43213   0.18065   0.09706   0.00000  Uiso   1.00
C93    C     0.49385   0.22527   0.00226   0.00000  Uiso   1.00
C94    C     0.45605   0.26574   0.41489   0.00000  Uiso   1.00
C95    C     0.47539   0.29376   0.49878   0.00000  Uiso   1.00
C96    C     0.45784   0.10239   0.40454   0.00000  Uiso   1.00
C97    C     0.35484   0.25042   0.22241   0.00000  Uiso   1.00
C98    C     0.49379   0.18255   0.48847   0.00000  Uiso   1.00
C99    C     0.48406   0.16711   0.44707   0.00000  Uiso   1.00
C100   C     0.50551   0.15526   0.01395   0.00000  Uiso   1.00
C101   C     0.51743   0.11625   0.49296   0.00000  Uiso   1.00
C102   C     0.50597   0.10035   0.45285   0.00000  Uiso   1.00
C103   C     0.48408   0.12392   0.43373   0.00000  Uiso   1.00
H104   H     0.65249   0.13525   0.28434   0.00000  Uiso   1.00
H105   H     0.36605   0.25743   0.25365   0.00000  Uiso   1.00
H106   H     0.65527   0.25908   0.22876   0.00000  Uiso   1.00
H107   H     0.54922   0.06403   0.49786   0.00000  Uiso   1.00
H108   H     0.50646   0.23934   0.03024   0.00000  Uiso   1.00
H109   H     0.48792   0.21027   0.11379   0.00000  Uiso   1.00
H110   H     0.42403   0.15547   0.11990   0.00000  Uiso   1.00
H111   H     0.42173   0.16920   0.06593   0.00000  Uiso   1.00
H112   H     0.41432   0.20706   0.11365   0.00000  Uiso   1.00
H113   H     0.38631   0.19924   0.19469   0.00000  Uiso   1.00
H114   H     0.37660   0.26944   0.19627   0.00000  Uiso   1.00
N115   N     0.57849   0.05956   0.09506   0.00000  Uiso   1.00
N116   N     0.58528   0.02413   0.18751   0.00000  Uiso   1.00
N117   N     0.40924   0.31566   0.31199   0.00000  Uiso   1.00
N118   N     0.52144   0.02642   0.41552   0.00000  Uiso   1.00
N119   N     0.47782   0.19453   0.08679   0.00000  Uiso   1.00
N120   N     0.44529   0.28884   0.39611   0.00000  Uiso   1.00
N121   N     0.47250   0.32760   0.01423   0.00000  Uiso   1.00
N122   N     0.43688   0.08511   0.38143   0.00000  Uiso   1.00
N123   N     0.35550   0.20686   0.20710   0.00000  Uiso   1.00
O124   O     0.50000   0.16667   0.25000   0.00000  Uiso   1.00
O125   O     0.48784   0.12637   0.15458   0.00000  Uiso   1.00
O126   O     0.46274   0.20391   0.34968   0.00000  Uiso   1.00
O127   O     0.54157   0.17759   0.14606   0.00000  Uiso   1.00
O128   O     0.50785   0.15880   0.34968   0.00000  Uiso   1.00
O129   O     0.51264   0.08019   0.28213   0.00000  Uiso   1.00
O130   O     0.47965   0.26085   0.27014   0.00000  Uiso   1.00
O131   O     0.40745   0.13291   0.23413   0.00000  Uiso   1.00
O132   O     0.60026   0.19272   0.21360   0.00000  Uiso   1.00
O133   O     0.40405   0.18878   0.28213   0.00000  Uiso   1.00
O134   O     0.58824   0.15226   0.27013   0.00000  Uiso   1.00
O135   O     0.47093   0.06944   0.23413   0.00000  Uiso   1.00
O136   O     0.53678   0.25620   0.21361   0.00000  Uiso   1.00
Zn137  Zn    0.52672   0.13994   0.28734   0.00000  Uiso   1.00
Zn138  Zn    0.46713   0.12458   0.21876   0.00000  Uiso   1.00
Zn139  Zn    0.54389   0.19775   0.20657   0.00000  Uiso   1.00
Zn140  Zn    0.46226   0.20439   0.28734   0.00000  Uiso   1.00
C141   C     0.71927   0.15921   0.26037   0.00000  Uiso   1.00
C142   C     0.83758   0.16483   0.06011   0.00000  Uiso   1.00
C143   C     0.87547   0.10548   0.05743   0.00000  Uiso   1.00
C144   C     0.94741   0.17445   0.24030   0.00000  Uiso   1.00
C145   C     0.80911   0.19551   0.42008   0.00000  Uiso   1.00
C146   C     0.99350   0.17931   0.23720   0.00000  Uiso   1.00
C147   C     0.67428   0.15703   0.26252   0.00000  Uiso   1.00
C148   C     0.84783   0.32274   0.23873   0.00000  Uiso   1.00
C149   C     0.81699   0.01235   0.26327   0.00000  Uiso   1.00
C150   C     0.82242   0.05616   0.26014   0.00000  Uiso   1.00
C151   C     0.84318   0.27791   0.24046   0.00000  Uiso   1.00
C152   C     0.81222   0.25135   0.47973   0.00000  Uiso   1.00
C153   C     0.85194   0.14784   0.12937   0.00000  Uiso   1.00
C154   C     0.81483   0.18479   0.37106   0.00000  Uiso   1.00
C155   C     0.87109   0.09287   0.01420   0.00000  Uiso   1.00
C156   C     0.85728   0.14059   0.08105   0.00000  Uiso   1.00
C157   C     0.80279   0.23686   0.43862   0.00000  Uiso   1.00
C158   C     0.89566   0.07999   0.07833   0.00000  Uiso   1.00
C159   C     0.88723   0.00874   0.21018   0.00000  Uiso   1.00
C160   C     0.77564   0.32887   0.29033   0.00000  Uiso   1.00
C161   C     0.84780   0.05915   0.43219   0.00000  Uiso   1.00
C162   C     0.76546   0.18065   0.09706   0.00000  Uiso   1.00
C163   C     0.82718   0.22527   0.00226   0.00000  Uiso   1.00
C164   C     0.78938   0.26574   0.41489   0.00000  Uiso   1.00
C165   C     0.80872   0.29376   0.49878   0.00000  Uiso   1.00
C166   C     0.79118   0.10239   0.40454   0.00000  Uiso   1.00
C167   C     0.68818   0.25042   0.22241   0.00000  Uiso   1.00
C168   C     0.82713   0.18255   0.48847   0.00000  Uiso   1.00
C169   C     0.81739   0.16711   0.44707   0.00000  Uiso   1.00
C170   C     0.83884   0.15526   0.01395   0.00000  Uiso   1.00
C171   C     0.85076   0.11625   0.49296   0.00000  Uiso   1.00
C172   C     0.83930   0.10035   0.45285   0.00000  Uiso   1.00
C173   C     0.81741   0.12392   0.43373   0.00000  Uiso   1.00
H174   H     0.98582   0.13525   0.28434   0.00000  Uiso   1.00
H175   H     0.69938   0.25743   0.25365   0.00000  Uiso   1.00
H176   H     0.98860   0.25908   0.22876   0.00000  Uiso   1.00
H177   H     0.88255   0.06403   0.49786   0.00000  Uiso   1.00
H178   H     0.83980   0.23934   0.03024   0.00000  Uiso   1.00
H179   H     0.82125   0.21027   0.11379   0.00000  Uiso   1.00
H180   H     0.75736   0.15547   0.11990   0.00000  Uiso   1.00
H181   H     0.75506   0.16920   0.06593   0.00000  Uiso   1.00
H182   H     0.74766   0.20706   0.11365   0.00000  Uiso   1.00
H183   H     0.71964   0.19924   0.19469   0.00000  Uiso   1.00
H184   H     0.70994   0.26944   0.19627   0.00000  Uiso   1.00
N185   N     0.91183   0.05956   0.09506   0.00000  Uiso   1.00
N186   N     0.91862   0.02413   0.18751   0.00000  Uiso   1.00
N187   N     0.74258   0.31566   0.31199   0.00000  Uiso   1.00
N188   N     0.85477   0.02642   0.41552   0.00000  Uiso   1.00
N189   N     0.81115   0.19453   0.08679   0.00000  Uiso   1.00
N190   N     0.77862   0.28884   0.39611   0.00000  Uiso   1.00
N191   N     0.80583   0.32760   0.01423   0.00000  Uiso   1.00
N192   N     0.77022   0.08511   0.38143   0.00000  Uiso   1.00
N193   N     0.68884   0.20686   0.20710   0.00000  Uiso   1.00
O194   O     0.83333   0.16667   0.25000   0.00000  Uiso   1.00
O195   O     0.82118   0.12637   0.15458   0.00000  Uiso   1.00
O196   O     0.79607   0.20391   0.34968   0.00000  Uiso   1.00
O197   O     0.87491   0.17759   0.14606   0.00000  Uiso   1.00
O198   O     0.84118   0.15880   0.34968   0.00000  Uiso   1.00
O199   O     0.84597   0.08019   0.28213   0.00000  Uiso   1.00
O200   O     0.81298   0.26085   0.27014   0.00000  Uiso   1.00
O201   O     0.74078   0.13291   0.23413   0.00000  Uiso   1.00
O202   O     0.93360   0.19272   0.21360   0.00000  Uiso   1.00
O203   O     0.73738   0.18878   0.28213   0.00000  Uiso   1.00
O204   O     0.92158   0.15226   0.27013   0.00000  Uiso   1.00
O205   O     0.80426   0.06944   0.23413   0.00000  Uiso   1.00
O206   O     0.87012   0.25620   0.21361   0.00000  Uiso   1.00
Zn207  Zn    0.86005   0.13994   0.28734   0.00000  Uiso   1.00
Zn208  Zn    0.80046   0.12458   0.21876   0.00000  Uiso   1.00
Zn209  Zn    0.87723   0.19775   0.20657   0.00000  Uiso   1.00
Zn210  Zn    0.79560   0.20439   0.28734   0.00000  Uiso   1.00
C211   C     0.05261   0.49255   0.26037   0.00000  Uiso   1.00
C212   C     0.17091   0.49816   0.06011   0.00000  Uiso   1.00
C213   C     0.20880   0.43882   0.05743   0.00000  Uiso   1.00
C214   C     0.28074   0.50778   0.24030   0.00000  Uiso   1.00
C215   C     0.14244   0.52885   0.42008   0.00000  Uiso   1.00
C216   C     0.32683   0.51264   0.23720   0.00000  Uiso   1.00
C217   C     0.00761   0.49036   0.26252   0.00000  Uiso   1.00
C218   C     0.18116   0.65607   0.23873   0.00000  Uiso   1.00
C219   C     0.15033   0.34568   0.26327   0.00000  Uiso   1.00
C220   C     0.15575   0.38950   0.26014   0.00000  Uiso   1.00
C221   C     0.17651   0.61125   0.24046   0.00000  Uiso   1.00
C222   C     0.14555   0.58468   0.47973   0.00000  Uiso   1.00
C223   C     0.18527   0.48117   0.12937   0.00000  Uiso   1.00
C224   C     0.14817   0.51812   0.37106   0.00000  Uiso   1.00
C225   C     0.20442   0.42620   0.01420   0.00000  Uiso   1.00
C226   C     0.19062   0.47392   0.08105   0.00000  Uiso   1.00
C227   C     0.13613   0.57020   0.43862   0.00000  Uiso   1.00
C228   C     0.22900   0.41332   0.07833   0.00000  Uiso   1.00
C229   C     0.22056   0.34207   0.21018   0.00000  Uiso   1.00
C230   C     0.10897   0.66221   0.29033   0.00000  Uiso   1.00
C231   C     0.18113   0.39248   0.43219   0.00000  Uiso   1.00
C232   C     0.09880   0.51398   0.09706   0.00000  Uiso   1.00
C233   C     0.16051   0.55860   0.00226   0.00000  Uiso   1.00
C234   C     0.12271   0.59907   0.41489   0.00000  Uiso   1.00
C235   C     0.14206   0.62710   0.49878   0.00000  Uiso   1.00
C236   C     0.12451   0.43572   0.40454   0.00000  Uiso   1.00
C237   C     0.02151   0.58375   0.22241   0.00000  Uiso   1.00
C238   C     0.16046   0.51588   0.48847   0.00000  Uiso   1.00
C239   C     0.15073   0.50044   0.44707   0.00000  Uiso   1.00
C240   C     0.17218   0.48859   0.01395   0.00000  Uiso   1.00
C241   C     0.18409   0.44959   0.49296   0.00000  Uiso   1.00
C242   C     0.17264   0.43369   0.45285   0.00000  Uiso   1.00
C243   C     0.15074   0.45725   0.43373   0.00000  Uiso   1.00
H244   H     0.31916   0.46858   0.28434   0.00000  Uiso   1.00
H245   H     0.03272   0.59076   0.25365   0.00000  Uiso   1.00
H246   H     0.32193   0.59242   0.22876   0.00000  Uiso   1.00
H247   H     0.21588   0.39736   0.49786   0.00000  Uiso   1.00
H248   H     0.17313   0.57267   0.03024   0.00000  Uiso   1.00
H249   H     0.15459   0.54360   0.11379   0.00000  Uiso   1.00
H250   H     0.09070   0.48880   0.11990   0.00000  Uiso   1.00
H251   H     0.08840   0.50253   0.06593   0.00000  Uiso   1.00
H252   H     0.08099   0.54040   0.11365   0.00000  Uiso   1.00
H253   H     0.05297   0.53257   0.19469   0.00000  Uiso   1.00
H254   H     0.04327   0.60278   0.19627   0.00000  Uiso   1.00
N255   N     0.24516   0.39289   0.09506   0.00000  Uiso   1.00
N256   N     0.25195   0.35747   0.18751   0.00000  Uiso   1.00
N257   N     0.07591   0.64900   0.31199   0.00000  Uiso   1.00
N258   N     0.18810   0.35976   0.41552   0.00000  Uiso   1.00
N259   N     0.14449   0.52787   0.08679   0.00000  Uiso   1.00
N260   N     0.11195   0.62217   0.39611   0.00000  Uiso   1.00
N261   N     0.13917   0.66094   0.01423   0.00000  Uiso   1.00
N262   N     0.10355   0.41845   0.38143   0.00000  Uiso   1.00
N263   N     0.02217   0.54020   0.20710   0.00000  Uiso   1.00
O264   O     0.16667   0.50000   0.25000   0.00000  Uiso   1.00
O265   O     0.15451   0.45970   0.15458   0.00000  Uiso   1.00
O266   O     0.12940   0.53724   0.34968   0.00000  Uiso   1.00
O267   O     0.20824   0.51092   0.14606   0.00000  Uiso   1.00
O268   O     0.17451   0.49213   0.34968   0.00000  Uiso   1.00
O269   O     0.17930   0.41352   0.28213   0.00000  Uiso   1.00
O270   O     0.14632   0.59418   0.27014   0.00000  Uiso   1.00
O271   O     0.07412   0.46625   0.23413   0.00000  Uiso   1.00
O272   O     0.26693   0.52605   0.21360   0.00000  Uiso   1.00
O273   O     0.07071   0.52211   0.28213   0.00000  Uiso   1.00
O274   O     0.25491   0.48559   0.27013   0.00000  Uiso   1.00
O275   O     0.13760   0.40277   0.23413   0.00000  Uiso   1.00
O276   O     0.20345   0.58953   0.21361   0.00000  Uiso   1.00
Zn277  Zn    0.19338   0.47327   0.28734   0.00000  Uiso   1.00
Zn278  Zn    0.13379   0.45791   0.21876   0.00000  Uiso   1.00
Zn279  Zn    0.21056   0.53109   0.20657   0.00000  Uiso   1.00
Zn280  Zn    0.12893   0.53773   0.28734   0.00000  Uiso   1.00
C281   C     0.38594   0.49255   0.26037   0.00000  Uiso   1.00
C282   C     0.50424   0.49816   0.06011   0.00000  Uiso   1.00
C283   C     0.54213   0.43882   0.05743   0.00000  Uiso   1.00
C284   C     0.61407   0.50778   0.24030   0.00000  Uiso   1.00
C285   C     0.47577   0.52885   0.42008   0.00000  Uiso   1.00
C286   C     0.66016   0.51264   0.23720   0.00000  Uiso   1.00
C287   C     0.34095   0.49036   0.26252   0.00000  Uiso   1.00
C288   C     0.51450   0.65607   0.23873   0.00000  Uiso   1.00
C289   C     0.48366   0.34568   0.26327   0.00000  Uiso   1.00
C290   C     0.48908   0.38950   0.26014   0.00000  Uiso   1.00
C291   C     0.50985   0.61125   0.24046   0.00000  Uiso   1.00
C292   C     0.47889   0.58468   0.47973   0.00000  Uiso   1.00
C293   C     0.51860   0.48117   0.12937   0.00000  Uiso   1.00
C294   C     0.48150   0.51812   0.37106   0.00000  Uiso   1.00
C295   C     0.53775   0.42620   0.01420   0.00000  Uiso   1.00
C296   C     0.52395   0.47392   0.08105   0.00000  Uiso   1.00
C297   C     0.46946   0.57020   0.43862   0.00000  Uiso   1.00
C298   C     0.56233   0.41332   0.07833   0.00000  Uiso   1.00
C299   C     0.55389   0.34207   0.21018   0.00000  Uiso   1.00
C300   C     0.44231   0.66221   0.29033   0.00000  Uiso   1.00
C301   C     0.51447   0.39248   0.43219   0.00000  Uiso   1.00
C302   C     0.43213   0.51398   0.09706   0.00000  Uiso   1.00
C303   C     0.49385   0.55860   0.00226   0.00000  Uiso   1.00
C304   C     0.45605   0.59907   0.41489   0.00000  Uiso   1.00
C305   C     0.47539   0.62710   0.49878   0.00000  Uiso   1.00
C306   C     0.45784   0.43572   0.40454   0.00000  Uiso   1.00
C307   C     0.35484   0.58375   0.22241   0.00000  Uiso   1.00
C308   C     0.49379   0.51588   0.48847   0.00000  Uiso   1.00
C309   C     0.48406   0.50044   0.44707   0.00000  Uiso   1.00
C310   C     0.50551   0.48859   0.01395   0.00000  Uiso   1.00
C311   C     0.51743   0.44959   0.49296   0.00000  Uiso   1.00
C312   C     0.50597   0.43369   0.45285   0.00000  Uiso   1.00
C313   C     0.48408   0.45725   0.43373   0.00000  Uiso   1.00
H314   H     0.65249   0.46858   0.28434   0.00000  Uiso   1.00
H315   H     0.36605   0.59076   0.25365   0.00000  Uiso   1.00
H316   H     0.65527   0.59242   0.22876   0.00000  Uiso   1.00
H317   H     0.54922   0.39736   0.49786   0.00000  Uiso   1.00
H318   H     0.50646   0.57267   0.03024   0.00000  Uiso   1.00
H319   H     0.48792   0.54360   0.11379   0.00000  Uiso   1.00
H320   H     0.42403   0.48880   0.11990   0.00000  Uiso   1.00
H321   H     0.42173   0.50253   0.06593   0.00000  Uiso   1.00
H322   H     0.41432   0.54040   0.11365   0.00000  Uiso   1.00
H323   H     0.38631   0.53257   0.19469   0.00000  Uiso   1.00
H324   H     0.37660   0.60278   0.19627   0.00000  Uiso   1.00
N325   N     0.57849   0.39289   0.09506   0.00000  Uiso   1.00
N326   N     0.58528   0.35747   0.18751   0.00000  Uiso   1.00
N327   N     0.40924   0.64900   0.31199   0.00000  Uiso   1.00
N328   N     0.52144   0.35976   0.41552   0.00000  Uiso   1.00
N329   N     0.47782   0.52787   0.08679   0.00000  Uiso   1.00
N330   N     0.44529   0.62217   0.39611   0.00000  Uiso   1.00
N331   N     0.47250   0.66094   0.01423   0.00000  Uiso   1.00
N332   N     0.43688   0.41845   0.38143   0.00000  Uiso   1.00
N333   N     0.35550   0.54020   0.20710   0.00000  Uiso   1.00
O334   O     0.50000   0.50000   0.25000   0.00000  Uiso   1.00
O335   O     0.48784   0.45970   0.15458   0.00000  Uiso   1.00
O336   O     0.46274   0.53724   0.34968   0.00000  Uiso   1.00
O337   O     0.54157   0.51092   0.14606   0.00000  Uiso   1.00
O338   O     0.50785   0.49213   0.34968   0.00000  Uiso   1.00
O339   O     0.51264   0.41352   0.28213   0.00000  Uiso   1.00
O340   O     0.47965   0.59418   0.27014   0.00000  Uiso   1.00
O341   O     0.40745   0.46625   0.23413   0.00000  Uiso   1.00
O342   O     0.60026   0.52605   0.21360   0.00000  Uiso   1.00
O343   O     0.40405   0.52211   0.28213   0.00000  Uiso   1.00
O344   O     0.58824   0.48559   0.27013   0.00000  Uiso   1.00
O345   O     0.47093   0.40277   0.23413   0.00000  Uiso   1.00
O346   O     0.53678   0.58953   0.21361   0.00000  Uiso   1.00
Zn347  Zn    0.52672   0.47327   0.28734   0.00000  Uiso   1.00
Zn348  Zn    0.46713   0.45791   0.21876   0.00000  Uiso   1.00
Zn349  Zn    0.54389   0.53109   0.20657   0.00000  Uiso   1.00
Zn350  Zn    0.46226   0.53773   0.28734   0.00000  Uiso   1.00
C351   C     0.71927   0.49255   0.26037   0.00000  Uiso   1.00
C352   C     0.83758   0.49816   0.06011   0.00000  Uiso   1.00
C353   C     0.87547   0.43882   0.05743   0.00000  Uiso   1.00
C354   C     0.94741   0.50778   0.24030   0.00000  Uiso   1.00
C355   C     0.80911   0.52885   0.42008   0.00000  Uiso   1.00
C356   C     0.99350   0.51264   0.23720   0.00000  Uiso   1.00
C357   C     0.67428   0.49036   0.26252   0.00000  Uiso   1.00
C358   C     0.84783   0.65607   0.23873   0.00000  Uiso   1.00
C359   C     0.81699   0.34568   0.26327   0.00000  Uiso   1.00
C360   C     0.82242   0.38950   0.26014   0.00000  Uiso   1.00
C361   C     0.84318   0.61125   0.24046   0.00000  Uiso   1.00
C362   C     0.81222   0.58468   0.47973   0.00000  Uiso   1.00
C363   C     0.85194   0.48117   0.12937   0.00000  Uiso   1.00
C364   C     0.81483   0.51812   0.37106   0.00000  Uiso   1.00
C365   C     0.87109   0.42620   0.01420   0.00000  Uiso   1.00
C366   C     0.85728   0.47392   0.08105   0.00000  Uiso   1.00
C367   C     0.80279   0.57020   0.43862   0.00000  Uiso   1.00
C368   C     0.89566   0.41332   0.07833   0.00000  Uiso   1.00
C369   C     0.88723   0.34207   0.21018   0.00000  Uiso   1.00
C370   C     0.77564   0.66221   0.29033   0.00000  Uiso   1.00
C371   C     0.84780   0.39248   0.43219   0.00000  Uiso   1.00
C372   C     0.76546   0.51398   0.09706   0.00000  Uiso   1.00
C373   C     0.82718   0.55860   0.00226   0.00000  Uiso   1.00
C374   C     0.78938   0.59907   0.41489   0.00000  Uiso   1.00
C375   C     0.80872   0.62710   0.49878   0.00000  Uiso   1.00
C376   C     0.79118   0.43572   0.40454   0.00000  Uiso   1.00
C377   C     0.68818   0.58375   0.22241   0.00000  Uiso   1.00
C378   C     0.82713   0.51588   0.48847   0.00000  Uiso   1.00
C379   C     0.81739   0.50044   0.44707   0.00000  Uiso   1.00
C380   C     0.83884   0.48859   0.01395   0.00000  Uiso   1.00
C381   C     0.85076   0.44959   0.49296   0.00000  Uiso   1.00
C382   C     0.83930   0.43369   0.45285   0.00000  Uiso   1.00
C383   C     0.81741   0.45725   0.43373   0.00000  Uiso   1.00
H384   H     0.98582   0.46858   0.28434   0.00000  Uiso   1.00
H385   H     0.69938   0.59076   0.25365   0.00000  Uiso   1.00
H386   H     0.98860   0.59242   0.22876   0.00000  Uiso   1.00
H387   H     0.88255   0.39736   0.49786   0.00000  Uiso   1.00
H388   H     0.83980   0.57267   0.03024   0.00000  Uiso   1.00
H389   H     0.82125   0.54360   0.11379   0.00000  Uiso   1.00
H390   H     0.75736   0.48880   0.11990   0.00000  Uiso   1.00
H391   H     0.75506   0.50253   0.06593   0.00000  Uiso   1.00
H392   H     0.74766   0.54040   0.11365   0.00000  Uiso   1.00
H393   H     0.71964   0.53257   0.19469   0.00000  Uiso   1.00
H394   H     0.70994   0.60278   0.19627   0.00000  Uiso   1.00
N395   N     0.91183   0.39289   0.09506   0.00000  Uiso   1.00
N396   N     0.91862   0.35747   0.18751   0.00000  Uiso   1.00
N397   N     0.74258   0.64900   0.31199   0.00000  Uiso   1.00
N398   N     0.85477   0.35976   0.41552   0.00000  Uiso   1.00
N399   N     0.81115   0.52787   0.08679   0.00000  Uiso   1.00
N400   N     0.77862   0.62217   0.39611   0.00000  Uiso   1.00
N401   N     0.80583   0.66094   0.01423   0.00000  Uiso   1.00
N402   N     0.77022   0.41845   0.38143   0.00000  Uiso   1.00
N403   N     0.68884   0.54020   0.20710   0.00000  Uiso   1.00
O404   O     0.83333   0.50000   0.25000   0.00000  Uiso   1.00
O405   O     0.82118   0.45970   0.15458   0.00000  Uiso   1.00
O406   O     0.79607   0.53724   0.34968   0.00000  Uiso   1.00
O407   O     0.87491   0.51092   0.14606   0.00000  Uiso   1.00
O408   O     0.84118   0.49213   0.34968   0.00000  Uiso   1.00
O409   O     0.84597   0.41352   0.28213   0.00000  Uiso   1.00
O410   O     0.81298   0.59418   0.27014   0.00000  Uiso   1.00
O411   O     0.74078   0.46625   0.23413   0.00000  Uiso   1.00
O412   O     0.93360   0.52605   0.21360   0.00000  Uiso   1.00
O413   O     0.73738   0.52211   0.28213   0.00000  Uiso   1.00
O414   O     0.92158   0.48559   0.27013   0.00000  Uiso   1.00
O415   O     0.80426   0.40277   0.23413   0.00000  Uiso   1.00
O416   O     0.87012   0.58953   0.21361   0.00000  Uiso   1.00
Zn417  Zn    0.86005   0.47327   0.28734   0.00000  Uiso   1.00
Zn418  Zn    0.80046   0.45791   0.21876   0.00000  Uiso   1.00
Zn419  Zn    0.87723   0.53109   0.20657   0.00000  Uiso   1.00
Zn420  Zn    0.79560   0.53773   0.28734   0.00000  Uiso   1.00
C421   C     0.05261   0.82588   0.26037   0.00000  Uiso   1.00
C422   C     0.17091   0.83150   0.06011   0.00000  Uiso   1.00
C423   C     0.20880   0.77215   0.05743   0.00000  Uiso   1.00
C424   C     0.28074   0.84111   0.24030   0.00000  Uiso   1.00
C425   C     0.14244   0.86218   0.42008   0.00000  Uiso   1.00
C426   C     0.32683   0.84597   0.23720   0.00000  Uiso   1.00
C427   C     0.00761   0.82369   0.26252   0.00000  Uiso   1.00
C428   C     0.18116   0.98941   0.23873   0.00000  Uiso   1.00
C429   C     0.15033   0.67901   0.26327   0.00000  Uiso   1.00
C430   C     0.15575   0.72283   0.26014   0.00000  Uiso   1.00
C431   C     0.17651   0.94458   0.24046   0.00000  Uiso   1.00
C432   C     0.14555   0.91802   0.47973   0.00000  Uiso   1.00
C433   C     0.18527   0.81450   0.12937   0.00000  Uiso   1.00
C434   C     0.14817   0.85145   0.37106   0.00000  Uiso   1.00
C435   C     0.20442   0.75954   0.01420   0.00000  Uiso   1.00
C436   C     0.19062   0.80726   0.08105   0.00000  Uiso   1.00
C437   C     0.13613   0.90353   0.43862   0.00000  Uiso   1.00
C438   C     0.22900   0.74665   0.07833   0.00000  Uiso   1.00
C439   C     0.22056   0.67541   0.21018   0.00000  Uiso   1.00
C440   C     0.10897   0.99554   0.29033   0.00000  Uiso   1.00
C441   C     0.18113   0.72582   0.43219   0.00000  Uiso   1.00
C442   C     0.09880   0.84732   0.09706   0.00000  Uiso   1.00
C443   C     0.16051   0.89193   0.00226   0.00000  Uiso   1.00
C444   C     0.12271   0.93240   0.41489   0.00000  Uiso   1.00
C445   C     0.14206   0.96043   0.49878   0.00000  Uiso   1.00
C446   C     0.12451   0.76906   0.40454   0.00000  Uiso   1.00
C447   C     0.02151   0.91709   0.22241   0.00000  Uiso   1.00
C448   C     0.16046   0.84922   0.48847   0.00000  Uiso   1.00
C449   C     0.15073   0.83378   0.44707   0.00000  Uiso   1.00
C450   C     0.17218   0.82193   0.01395   0.00000  Uiso   1.00
C451   C     0.18409   0.78292   0.49296   0.00000  Uiso   1.00
C452   C     0.17264   0.76702   0.45285   0.00000  Uiso   1.00
C453   C     0.15074   0.79058   0.43373   0.00000  Uiso   1.00
H454   H     0.31916   0.80192   0.28434   0.00000  Uiso   1.00
H455   H     0.03272   0.92410   0.25365   0.00000  Uiso   1.00
H456   H     0.32193   0.92575   0.22876   0.00000  Uiso   1.00
H457   H     0.21588   0.73069   0.49786   0.00000  Uiso   1.00
H458   H     0.17313   0.90600   0.03024   0.00000  Uiso   1.00
H459   H     0.15459   0.87693   0.11379   0.00000  Uiso   1.00
H460   H     0.09070   0.82214   0.11990   0.00000  Uiso   1.00
H461   H     0.08840   0.83587   0.06593   0.00000  Uiso   1.00
H462   H     0.08099   0.87373   0.11365   0.00000  Uiso   1.00
H463   H     0.05297   0.86591   0.19469   0.00000  Uiso   1.00
H464   H     0.04327   0.93611   0.19627   0.00000  Uiso   1.00
N465   N     0.24516   0.72623   0.09506   0.00000  Uiso   1.00
N466   N     0.25195   0.69080   0.18751   0.00000  Uiso   1.00
N467   N     0.07591   0.98233   0.31199   0.00000  Uiso   1.00
N468   N     0.18810   0.69309   0.41552   0.00000  Uiso   1.00
N469   N     0.14449   0.86120   0.08679   0.00000  Uiso   1.00
N470   N     0.11195   0.95551   0.39611   0.00000  Uiso   1.00
N471   N     0.13917   0.99427   0.01423   0.00000  Uiso   1.00
N472   N     0.10355   0.75178   0.38143   0.00000  Uiso   1.00
N473   N     0.02217   0.87353   0.20710   0.00000  Uiso   1.00
O474   O     0.16667   0.83333   0.25000   0.00000  Uiso   1.00
O475   O     0.15451   0.79304   0.15458   0.00000  Uiso   1.00
O476   O     0.12940   0.87058   0.34968   0.00000  Uiso   1.00
O477   O     0.20824   0.84425   0.14606   0.00000  Uiso   1.00
O478   O     0.17451   0.82546   0.34968   0.00000  Uiso   1.00
O479   O     0.17930   0.74686   0.28213   0.00000  Uiso   1.00
O480   O     0.14632   0.92751   0.27014   0.00000  Uiso   1.00
O481   O     0.07412   0.79958   0.23413   0.00000  Uiso   1.00
O482   O     0.26693   0.85939   0.21360   0.00000  Uiso   1.00
O483   O     0.07071   0.85544   0.28213   0.00000  Uiso   1.00
O484   O     0.25491   0.81892   0.27013   0.00000  Uiso   1.00
O485   O     0.13760   0.73610   0.23413   0.00000  Uiso   1.00
O486   O     0.20345   0.92286   0.21361   0.00000  Uiso   1.00
Zn487  Zn    0.19338   0.80661   0.28734   0.00000  Uiso   1.00
Zn488  Zn    0.13379   0.79124   0.21876   0.00000  Uiso   1.00
Zn489  Zn    0.21056   0.86442   0.20657   0.00000  Uiso   1.00
Zn490  Zn    0.12893   0.87106   0.28734   0.00000  Uiso   1.00
C491   C     0.38594   0.82588   0.26037   0.00000  Uiso   1.00
C492   C     0.50424   0.83150   0.06011   0.00000  Uiso   1.00
C493   C     0.54213   0.77215   0.05743   0.00000  Uiso   1.00
C494   C     0.61407   0.84111   0.24030   0.00000  Uiso   1.00
C495   C     0.47577   0.86218   0.42008   0.00000  Uiso   1.00
C496   C     0.66016   0.84597   0.23720   0.00000  Uiso   1.00
C497   C     0.34095   0.82369   0.26252   0.00000  Uiso   1.00
C498   C     0.51450   0.98941   0.23873   0.00000  Uiso   1.00
C499   C     0.48366   0.67901   0.26327   0.00000  Uiso   1.00
C500   C     0.48908   0.72283   0.26014   0.00000  Uiso   1.00
C501   C     0.50985   0.94458   0.24046   0.00000  Uiso   1.00
C502   C     0.47889   0.91802   0.47973   0.00000  Uiso   1.00
C503   C     0.51860   0.81450   0.12937   0.00000  Uiso   1.00
C504   C     0.48150   0.85145   0.37106   0.00000  Uiso   1.00
C505   C     0.53775   0.75954   0.01420   0.00000  Uiso   1.00
C506   C     0.52395   0.80726   0.08105   0.00000  Uiso   1.00
C507   C     0.46946   0.90353   0.43862   0.00000  Uiso   1.00
C508   C     0.56233   0.74665   0.07833   0.00000  Uiso   1.00
C509   C     0.55389   0.67541   0.21018   0.00000  Uiso   1.00
C510   C     0.44231   0.99554   0.29033   0.00000  Uiso   1.00
C511   C     0.51447   0.72582   0.43219   0.00000  Uiso   1.00
C512   C     0.43213   0.84732   0.09706   0.00000  Uiso   1.00
C513   C     0.49385   0.89193   0.00226   0.00000  Uiso   1.00
C514   C     0.45605   0.93240   0.41489   0.00000  Uiso   1.00
C515   C     0.47539   0.96043   0.49878   0.00000  Uiso   1.00
C516   C     0.45784   0.76906   0.40454   0.00000  Uiso   1.00
C517   C     0.35484   0.91709   0.22241   0.00000  Uiso   1.00
C518   C     0.49379   0.84922   0.48847   0.00000  Uiso   1.00
C519   C     0.48406   0.83378   0.44707   0.00000  Uiso   1.00
C520   C     0.50551   0.82193   0.01395   0.00000  Uiso   1.00
C521   C     0.51743   0.78292   0.49296   0.00000  Uiso   1.00
C522   C     0.50597   0.76702   0.45285   0.00000  Uiso   1.00
C523   C     0.48408   0.79058   0.43373   0.00000  Uiso   1.00
H524   H     0.65249   0.80192   0.28434   0.00000  Uiso   1.00
H525   H     0.36605   0.92410   0.25365   0.00000  Uiso   1.00
H526   H     0.65527   0.92575   0.22876   0.00000  Uiso   1.00
H527   H     0.54922   0.73069   0.49786   0.00000  Uiso   1.00
H528   H     0.50646   0.90600   0.03024   0.00000  Uiso   1.00
H529   H     0.48792   0.87693   0.11379   0.00000  Uiso   1.00
H530   H     0.42403   0.82214   0.11990   0.00000  Uiso   1.00
H531   H     0.42173   0.83587   0.06593   0.00000  Uiso   1.00
H532   H     0.41432   0.87373   0.11365   0.00000  Uiso   1.00
H533   H     0.38631   0.86591   0.19469   0.00000  Uiso   1.00
H534   H     0.37660   0.93611   0.19627   0.00000  Uiso   1.00
N535   N     0.57849   0.72623   0.09506   0.00000  Uiso   1.00
N536   N     0.58528   0.69080   0.18751   0.00000  Uiso   1.00
N537   N     0.40924   0.98233   0.31199   0.00000  Uiso   1.00
N538   N     0.52144   0.69309   0.41552   0.00000  Uiso   1.00
N539   N     0.47782   0.86120   0.08679   0.00000  Uiso   1.00
N540   N     0.44529   0.95551   0.39611   0.00000  Uiso   1.00
N541   N     0.47250   0.99427   0.01423   0.00000  Uiso   1.00
N542   N     0.43688   0.75178   0.38143   0.00000  Uiso   1.00
N543   N     0.35550   0.87353   0.20710   0.00000  Uiso   1.00
O544   O     0.50000   0.83333   0.25000   0.00000  Uiso   1.00
O545   O     0.48784   0.79304   0.15458   0.00000  Uiso   1.00
O546   O     0.46274   0.87058   0.34968   0.00000  Uiso   1.00
O547   O     0.54157   0.84425   0.14606   0.00000  Uiso   1.00
O548   O     0.50785   0.82546   0.34968   0.00000  Uiso   1.00
O549   O     0.51264   0.74686   0.28213   0.00000  Uiso   1.00
O550   O     0.47965   0.92751   0.27014   0.00000  Uiso   1.00
O551   O     0.40745   0.79958   0.23413   0.00000  Uiso   1.00
O552   O     0.60026   0.85939   0.21360   0.00000  Uiso   1.00
O553   O     0.40405   0.85544   0.28213   0.00000  Uiso   1.00
O554   O     0.58824   0.81892   0.27013   0.00000  Uiso   1.00
O555   O     0.47093   0.73610   0.23413   0.00000  Uiso   1.00
O556   O     0.53678   0.92286   0.21361   0.00000  Uiso   1.00
Zn557  Zn    0.52672   0.80661   0.28734   0.00000  Uiso   1.00
Zn558  Zn    0.46713   0.79124   0.21876   0.00000  Uiso   1.00
Zn559  Zn    0.54389   0.86442   0.20657   0.00000  Uiso   1.00
Zn560  Zn    0.46226   0.87106   0.28734   0.00000  Uiso   1.00
C561   C     0.71927   0.82588   0.26037   0.00000  Uiso   1.00
C562   C     0.83758   0.83150   0.06011   0.00000  Uiso   1.00
C563   C     0.87547   0.77215   0.05743   0.00000  Uiso   1.00
C564   C     0.94741   0.84111   0.24030   0.00000  Uiso   1.00
C565   C     0.80911   0.86218   0.42008   0.00000  Uiso   1.00
C566   C     0.99350   0.84597   0.23720   0.00000  Uiso   1.00
C567   C     0.67428   0.82369   0.26252   0.00000  Uiso   1.00
C568   C     0.84783   0.98941   0.23873   0.00000  Uiso   1.00
C569   C     0.81699   0.67901   0.26327   0.00000  Uiso   1.00
C570   C     0.82242   0.72283   0.26014   0.00000  Uiso   1.00
C571   C     0.84318   0.94458   0.24046   0.00000  Uiso   1.00
C572   C     0.81222   0.91802   0.47973   0.00000  Uiso   1.00
C573   C     0.85194   0.81450   0.12937   0.00000  Uiso   1.00
C574   C     0.81483   0.85145   0.37106   0.00000  Uiso   1.00
C575   C     0.87109   0.75954   0.01420   0.00000  Uiso   1.00
C576   C     0.85728   0.80726   0.08105   0.00000  Uiso   1.00
C577   C     0.80279   0.90353   0.43862   0.00000  Uiso   1.00
C578   C     0.89566   0.74665   0.07833   0.00000  Uiso   1.00
C579   C     0.88723   0.67541   0.21018   0.00000  Uiso   1.00
C580   C     0.77564   0.99554   0.29033   0.00000  Uiso   1.00
C581   C     0.84780   0.72582   0.43219   0.00000  Uiso   1.00
C582   C     0.76546   0.84732   0.09706   0.00000  Uiso   1.00
C583   C     0.82718   0.89193   0.00226   0.00000  Uiso   1.00
C584   C     0.78938   0.93240   0.41489   0.00000  Uiso   1.00
C585   C     0.80872   0.96043   0.49878   0.00000  Uiso   1.00
C586   C     0.79118   0.76906   0.40454   0.00000  Uiso   1.00
C587   C     0.68818   0.91709   0.22241   0.00000  Uiso   1.00
C588   C     0.82713   0.84922   0.48847   0.00000  Uiso   1.00
C589   C     0.81739   0.83378   0.44707   0.00000  Uiso   1.00
C590   C     0.83884   0.82193   0.01395   0.00000  Uiso   1.00
C591   C     0.85076   0.78292   0.49296   0.00000  Uiso   1.00
C592   C     0.83930   0.76702   0.45285   0.00000  Uiso   1.00
C593   C     0.81741   0.79058   0.43373   0.00000  Uiso   1.00
H594   H     0.98582   0.80192   0.28434   0.00000  Uiso   1.00
H595   H     0.69938   0.92410   0.25365   0.00000  Uiso   1.00
H596   H     0.98860   0.92575   0.22876   0.00000  Uiso   1.00
H597   H     0.88255   0.73069   0.49786   0.00000  Uiso   1.00
H598   H     0.83980   0.90600   0.03024   0.00000  Uiso   1.00
H599   H     0.82125   0.87693   0.11379   0.00000  Uiso   1.00
H600   H     0.75736   0.82214   0.11990   0.00000  Uiso   1.00
H601   H     0.75506   0.83587   0.06593   0.00000  Uiso   1.00
H602   H     0.74766   0.87373   0.11365   0.00000  Uiso   1.00
H603   H     0.71964   0.86591   0.19469   0.00000  Uiso   1.00
H604   H     0.70994   0.93611   0.19627   0.00000  Uiso   1.00
N605   N     0.91183   0.72623   0.09506   0.00000  Uiso   1.00
N606   N     0.91862   0.69080   0.18751   0.00000  Uiso   1.00
N607   N     0.74258   0.98233   0.31199   0.00000  Uiso   1.00
N608   N     0.85477   0.69309   0.41552   0.00000  Uiso   1.00
N609   N     0.81115   0.86120   0.08679   0.00000  Uiso   1.00
N610   N     0.77862   0.95551   0.39611   0.00000  Uiso   1.00
N611   N     0.80583   0.99427   0.01423   0.00000  Uiso   1.00
N612   N     0.77022   0.75178   0.38143   0.00000  Uiso   1.00
N613   N     0.68884   0.87353   0.20710   0.00000  Uiso   1.00
O614   O     0.83333   0.83333   0.25000   0.00000  Uiso   1.00
O615   O     0.82118   0.79304   0.15458   0.00000  Uiso   1.00
O616   O     0.79607   0.87058   0.34968   0.00000  Uiso   1.00
O617   O     0.87491   0.84425   0.14606   0.00000  Uiso   1.00
O618   O     0.84118   0.82546   0.34968   0.00000  Uiso   1.00
O619   O     0.84597   0.74686   0.28213   0.00000  Uiso   1.00
O620   O     0.81298   0.92751   0.27014   0.00000  Uiso   1.00
O621   O     0.74078   0.79958   0.23413   0.00000  Uiso   1.00
O622   O     0.93360   0.85939   0.21360   0.00000  Uiso   1.00
O623   O     0.73738   0.85544   0.28213   0.00000  Uiso   1.00
O624   O     0.92158   0.81892   0.27013   0.00000  Uiso   1.00
O625   O     0.80426   0.73610   0.23413   0.00000  Uiso   1.00
O626   O     0.87012   0.92286   0.21361   0.00000  Uiso   1.00
Zn627  Zn    0.86005   0.80661   0.28734   0.00000  Uiso   1.00
Zn628  Zn    0.80046   0.79124   0.21876   0.00000  Uiso   1.00
Zn629  Zn    0.87723   0.86442   0.20657   0.00000  Uiso   1.00
Zn630  Zn    0.79560   0.87106   0.28734   0.00000  Uiso   1.00
C631   C     0.05261   0.15921   0.76037   0.00000  Uiso   1.00
C632   C     0.17091   0.16483   0.56011   0.00000  Uiso   1.00
C633   C     0.20880   0.10548   0.55743   0.00000  Uiso   1.00
C634   C     0.28074   0.17445   0.74030   0.00000  Uiso   1.00
C635   C     0.14244   0.19551   0.92008   0.00000  Uiso   1.00
C636   C     0.32683   0.17931   0.73720   0.00000  Uiso   1.00
C637   C     0.00761   0.15703   0.76252   0.00000  Uiso   1.00
C638   C     0.18116   0.32274   0.73873   0.00000  Uiso   1.00
C639   C     0.15033   0.01235   0.76327   0.00000  Uiso   1.00
C640   C     0.15575   0.05616   0.76014   0.00000  Uiso   1.00
C641   C     0.17651   0.27791   0.74046   0.00000  Uiso   1.00
C642   C     0.14555   0.25135   0.97973   0.00000  Uiso   1.00
C643   C     0.18527   0.14784   0.62937   0.00000  Uiso   1.00
C644   C     0.14817   0.18479   0.87106   0.00000  Uiso   1.00
C645   C     0.20442   0.09287   0.51420   0.00000  Uiso   1.00
C646   C     0.19062   0.14059   0.58105   0.00000  Uiso   1.00
C647   C     0.13613   0.23686   0.93862   0.00000  Uiso   1.00
C648   C     0.22900   0.07999   0.57833   0.00000  Uiso   1.00
C649   C     0.22056   0.00874   0.71018   0.00000  Uiso   1.00
C650   C     0.10897   0.32887   0.79033   0.00000  Uiso   1.00
C651   C     0.18113   0.05915   0.93219   0.00000  Uiso   1.00
C652   C     0.09880   0.18065   0.59706   0.00000  Uiso   1.00
C653   C     0.16051   0.22527   0.50226   0.00000  Uiso   1.00
C654   C     0.12271   0.26574   0.91489   0.00000  Uiso   1.00
C655   C     0.14206   0.29376   0.99878   0.00000  Uiso   1.00
C656   C     0.12451   0.10239   0.90454   0.00000  Uiso   1.00
C657   C     0.02151   0.25042   0.72241   0.00000  Uiso   1.00
C658   C     0.16046   0.18255   0.98847   0.00000  Uiso   1.00
C659   C     0.15073   0.16711   0.94707   0.00000  Uiso   1.00
C660   C     0.17218   0.15526   0.51395   0.00000  Uiso   1.00
C661   C     0.18409   0.11625   0.99296   0.00000  Uiso   1.00
C662   C     0.17264   0.10035   0.95285   0.00000  Uiso   1.00
C663   C     0.15074   0.12392   0.93373   0.00000  Uiso   1.00
H664   H     0.31916   0.13525   0.78434   0.00000  Uiso   1.00
H665   H     0.03272   0.25743   0.75365   0.00000  Uiso   1.00
H666   H     0.32193   0.25908   0.72876   0.00000  Uiso   1.00
H667   H     0.21588   0.06403   0.99786   0.00000  Uiso   1.00
H668   H     0.17313   0.23934   0.53024   0.00000  Uiso   1.00
H669   H     0.15459   0.21027   0.61379   0.00000  Uiso   1.00
H670   H     0.09070   0.15547   0.61990   0.00000  Uiso   1.00
H671   H     0.08840   0.16920   0.56593   0.00000  Uiso   1.00
H672   H     0.08099   0.20706   0.61365   0.00000  Uiso   1.00
H673   H     0.05297   0.19924   0.69469   0.00000  Uiso   1.00
H674   H     0.04327   0.26944   0.69627   0.00000  Uiso   1.00
N675   N     0.24516   0.05956   0.59506   0.00000  Uiso   1.00
N676   N     0.25195   0.02413   0.68751   0.00000  Uiso   1.00
N677   N     0.07591   0.31566   0.81199   0.00000  Uiso   1.00
N678   N     0.18810   0.02642   0.91552   0.00000  Uiso   1.00
N679   N     0.14449   0.19453   0.58679   0.00000  Uiso   1.00
N680   N     0.11195   0.28884   0.89611   0.00000  Uiso   1.00
N681   N     0.13917   0.32760   0.51423   0.00000  Uiso   1.00
N682   N     0.10355   0.08511   0.88143   0.00000  Uiso   1.00
N683   N     0.02217   0.20686   0.70710   0.00000  Uiso   1.00
O684   O     0.16667   0.16667   0.75000   0.00000  Uiso   1.00
O685   O     0.15451   0.12637   0.65458   0.00000  Uiso   1.00
O686   O     0.12940   0.20391   0.84968   0.00000  Uiso   1.00
O687   O     0.20824   0.17759   0.64606   0.00000  Uiso   1.00
O688   O     0.17451   0.15880   0.84968   0.00000  Uiso   1.00
O689   O     0.17930   0.08019   0.78213   0.00000  Uiso   1.00
O690   O     0.14632   0.26085   0.77014   0.00000  Uiso   1.00
O691   O     0.07412   0.13291   0.73413   0.00000  Uiso   1.00
O692   O     0.26693   0.19272   0.71360   0.00000  Uiso   1.00
O693   O     0.07071   0.18878   0.78213   0.00000  Uiso   1.00
O694   O     0.25491   0.15226   0.77013   0.00000  Uiso   1.00
O695   O     0.13760   0.06944   0.73413   0.00000  Uiso   1.00
O696   O     0.20345   0.25620   0.71361   0.00000  Uiso   1.00
Zn697  Zn    0.19338   0.13994   0.78734   0.00000  Uiso   1.00
Zn698  Zn    0.13379   0.12458   0.71876   0.00000  Uiso   1.00
Zn699  Zn    0.21056   0.19775   0.70657   0.00000  Uiso   1.00
Zn700  Zn    0.12893   0.20439   0.78734   0.00000  Uiso   1.00
C701   C     0.38594   0.15921   0.76037   0.00000  Uiso   1.00
C702   C     0.50424   0.16483   0.56011   0.00000  Uiso   1.00
C703   C     0.54213   0.10548   0.55743   0.00000  Uiso   1.00
C704   C     0.61407   0.17445   0.74030   0.00000  Uiso   1.00
C705   C     0.47577   0.19551   0.92008   0.00000  Uiso   1.00
C706   C     0.66016   0.17931   0.73720   0.00000  Uiso   1.00
C707   C     0.34095   0.15703   0.76252   0.00000  Uiso   1.00
C708   C     0.51450   0.32274   0.73873   0.00000  Uiso   1.00
C709   C     0.48366   0.01235   0.76327   0.00000  Uiso   1.00
C710   C     0.48908   0.05616   0.76014   0.00000  Uiso   1.00
C711   C     0.50985   0.27791   0.74046   0.00000  Uiso   1.00
C712   C     0.47889   0.25135   0.97973   0.00000  Uiso   1.00
C713   C     0.51860   0.14784   0.62937   0.00000  Uiso   1.00
C714   C     0.48150   0.18479   0.87106   0.00000  Uiso   1.00
C715   C     0.53775   0.09287   0.51420   0.00000  Uiso   1.00
C716   C     0.52395   0.14059   0.58105   0.00000  Uiso   1.00
C717   C     0.46946   0.23686   0.93862   0.00000  Uiso   1.00
C718   C     0.56233   0.07999   0.57833   0.00000  Uiso   1.00
C719   C     0.55389   0.00874   0.71018   0.00000  Uiso   1.00
C720   C     0.44231   0.32887   0.79033   0.00000  Uiso   1.00
C721   C     0.51447   0.05915   0.93219   0.00000  Uiso   1.00
C722   C     0.43213   0.18065   0.59706   0.00000  Uiso   1.00
C723   C     0.49385   0.22527   0.50226   0.00000  Uiso   1.00
C724   C     0.45605   0.26574   0.91489   0.00000  Uiso   1.00
C725   C     0.47539   0.29376   0.99878   0.00000  Uiso   1.00
C726   C     0.45784   0.10239   0.90454   0.00000  Uiso   1.00
C727   C     0.35484   0.25042   0.72241   0.00000  Uiso   1.00
C728   C     0.49379   0.18255   0.98847   0.00000  Uiso   1.00
C729   C     0.48406   0.16711   0.94707   0.00000  Uiso   1.00
C730   C     0.50551   0.15526   0.51395   0.00000  Uiso   1.00
C731   C     0.51743   0.11625   0.99296   0.00000  Uiso   1.00
C732   C     0.50597   0.10035   0.95285   0.00000  Uiso   1.00
C733   C     0.48408   0.12392   0.93373   0.00000  Uiso   1.00
H734   H     0.65249   0.13525   0.78434   0.00000  Uiso   1.00
H735   H     0.36605   0.25743   0.75365   0.00000  Uiso   1.00
H736   H     0.65527   0.25908   0.72876   0.00000  Uiso   1.00
H737   H     0.54922   0.06403   0.99786   0.00000  Uiso   1.00
H738   H     0.50646   0.23934   0.53024   0.00000  Uiso   1.00
H739   H     0.48792   0.21027   0.61379   0.00000  Uiso   1.00
H740   H     0.42403   0.15547   0.61990   0.00000  Uiso   1.00
H741   H     0.42173   0.16920   0.56593   0.00000  Uiso   1.00
H742   H     0.41432   0.20706   0.61365   0.00000  Uiso   1.00
H743   H     0.38631   0.19924   0.69469   0.00000  Uiso   1.00
H744   H     0.37660   0.26944   0.69627   0.00000  Uiso   1.00
N745   N     0.57849   0.05956   0.59506   0.00000  Uiso   1.00
N746   N     0.58528   0.02413   0.68751   0.00000  Uiso   1.00
N747   N     0.40924   0.31566   0.81199   0.00000  Uiso   1.00
N748   N     0.52144   0.02642   0.91552   0.00000  Uiso   1.00
N749   N     0.47782   0.19453   0.58679   0.00000  Uiso   1.00
N750   N     0.44529   0.28884   0.89611   0.00000  Uiso   1.00
N751   N     0.47250   0.32760   0.51423   0.00000  Uiso   1.00
N752   N     0.43688   0.08511   0.88143   0.00000  Uiso   1.00
N753   N     0.35550   0.20686   0.70710   0.00000  Uiso   1.00
O754   O     0.50000   0.16667   0.75000   0.00000  Uiso   1.00
O755   O     0.48784   0.12637   0.65458   0.00000  Uiso   1.00
O756   O     0.46274   0.20391   0.84968   0.00000  Uiso   1.00
O757   O     0.54157   0.17759   0.64606   0.00000  Uiso   1.00
O758   O     0.50785   0.15880   0.84968   0.00000  Uiso   1.00
O759   O     0.51264   0.08019   0.78213   0.00000  Uiso   1.00
O760   O     0.47965   0.26085   0.77014   0.00000  Uiso   1.00
O761   O     0.40745   0.13291   0.73413   0.00000  Uiso   1.00
O762   O     0.60026   0.19272   0.71360   0.00000  Uiso   1.00
O763   O     0.40405   0.18878   0.78213   0.00000  Uiso   1.00
O764   O     0.58824   0.15226   0.77013   0.00000  Uiso   1.00
O765   O     0.47093   0.06944   0.73413   0.00000  Uiso   1.00
O766   O     0.53678   0.25620   0.71361   0.00000  Uiso   1.00
Zn767  Zn    0.52672   0.13994   0.78734   0.00000  Uiso   1.00
Zn768  Zn    0.46713   0.12458   0.71876   0.00000  Uiso   1.00
Zn769  Zn    0.54389   0.19775   0.70657   0.00000  Uiso   1.00
Zn770  Zn    0.46226   0.20439   0.78734   0.00000  Uiso   1.00
C771   C     0.71927   0.15921   0.76037   0.00000  Uiso   1.00
C772   C     0.83758   0.16483   0.56011   0.00000  Uiso   1.00
C773   C     0.87547   0.10548   0.55743   0.00000  Uiso   1.00
C774   C     0.94741   0.17445   0.74030   0.00000  Uiso   1.00
C775   C     0.80911   0.19551   0.92008   0.00000  Uiso   1.00
C776   C     0.99350   0.17931   0.73720   0.00000  Uiso   1.00
C777   C     0.67428   0.15703   0.76252   0.00000  Uiso   1.00
C778   C     0.84783   0.32274   0.73873   0.00000  Uiso   1.00
C779   C     0.81699   0.01235   0.76327   0.00000  Uiso   1.00
C780   C     0.82242   0.05616   0.76014   0.00000  Uiso   1.00
C781   C     0.84318   0.27791   0.74046   0.00000  Uiso   1.00
C782   C     0.81222   0.25135   0.97973   0.00000  Uiso   1.00
C783   C     0.85194   0.14784   0.62937   0.00000  Uiso   1.00
C784   C     0.81483   0.18479   0.87106   0.00000  Uiso   1.00
C785   C     0.87109   0.09287   0.51420   0.00000  Uiso   1.00
C786   C     0.85728   0.14059   0.58105   0.00000  Uiso   1.00
C787   C     0.80279   0.23686   0.93862   0.00000  Uiso   1.00
C788   C     0.89566   0.07999   0.57833   0.00000  Uiso   1.00
C789   C     0.88723   0.00874   0.71018   0.00000  Uiso   1.00
C790   C     0.77564   0.32887   0.79033   0.00000  Uiso   1.00
C791   C     0.84780   0.05915   0.93219   0.00000  Uiso   1.00
C792   C     0.76546   0.18065   0.59706   0.00000  Uiso   1.00
C793   C     0.82718   0.22527   0.50226   0.00000  Uiso   1.00
C794   C     0.78938   0.26574   0.91489   0.00000  Uiso   1.00
C795   C     0.80872   0.29376   0.99878   0.00000  Uiso   1.00
C796   C     0.79118   0.10239   0.90454   0.00000  Uiso   1.00
C797   C     0.68818   0.25042   0.72241   0.00000  Uiso   1.00
C798   C     0.82713   0.18255   0.98847   0.00000  Uiso   1.00
C799   C     0.81739   0.16711   0.94707   0.00000  Uiso   1.00
C800   C     0.83884   0.15526   0.51395   0.00000  Uiso   1.00
C801   C     0.85076   0.11625   0.99296   0.00000  Uiso   1.00
C802   C     0.83930   0.10035   0.95285   0.00000  Uiso   1.00
C803   C     0.81741   0.12392   0.93373   0.00000  Uiso   1.00
H804   H     0.98582   0.13525   0.78434   0.00000  Uiso   1.00
H805   H     0.69938   0.25743   0.75365   0.00000  Uiso   1.00
H806   H     0.98860   0.25908   0.72876   0.00000  Uiso   1.00
H807   H     0.88255   0.06403   0.99786   0.00000  Uiso   1.00
H808   H     0.83980   0.23934   0.53024   0.00000  Uiso   1.00
H809   H     0.82125   0.21027   0.61379   0.00000  Uiso   1.00
H810   H     0.75736   0.15547   0.61990   0.00000  Uiso   1.00
H811   H     0.75506   0.16920   0.56593   0.00000  Uiso   1.00
H812   H     0.74766   0.20706   0.61365   0.00000  Uiso   1.00
H813   H     0.71964   0.19924   0.69469   0.00000  Uiso   1.00
H814   H     0.70994   0.26944   0.69627   0.00000  Uiso   1.00
N815   N     0.91183   0.05956   0.59506   0.00000  Uiso   1.00
N816   N     0.91862   0.02413   0.68751   0.00000  Uiso   1.00
N817   N     0.74258   0.31566   0.81199   0.00000  Uiso   1.00
N818   N     0.85477   0.02642   0.91552   0.00000  Uiso   1.00
N819   N     0.81115   0.19453   0.58679   0.00000  Uiso   1.00
N820   N     0.77862   0.28884   0.89611   0.00000  Uiso   1.00
N821   N     0.80583   0.32760   0.51423   0.00000  Uiso   1.00
N822   N     0.77022   0.08511   0.88143   0.00000  Uiso   1.00
N823   N     0.68884   0.20686   0.70710   0.00000  Uiso   1.00
O824   O     0.83333   0.16667   0.75000   0.00000  Uiso   1.00
O825   O     0.82118   0.12637   0.65458   0.00000  Uiso   1.00
O826   O     0.79607   0.20391   0.84968   0.00000  Uiso   1.00
O827   O     0.87491   0.17759   0.64606   0.00000  Uiso   1.00
O828   O     0.84118   0.15880   0.84968   0.00000  Uiso   1.00
O829   O     0.84597   0.08019   0.78213   0.00000  Uiso   1.00
O830   O     0.81298   0.26085   0.77014   0.00000  Uiso   1.00
O831   O     0.74078   0.13291   0.73413   0.00000  Uiso   1.00
O832   O     0.93360   0.19272   0.71360   0.00000  Uiso   1.00
O833   O     0.73738   0.18878   0.78213   0.00000  Uiso   1.00
O834   O     0.92158   0.15226   0.77013   0.00000  Uiso   1.00
O835   O     0.80426   0.06944   0.73413   0.00000  Uiso   1.00
O836   O     0.87012   0.25620   0.71361   0.00000  Uiso   1.00
Zn837  Zn    0.86005   0.13994   0.78734   0.00000  Uiso   1.00
Zn838  Zn    0.80046   0.12458   0.71876   0.00000  Uiso   1.00
Zn839  Zn    0.87723   0.19775   0.70657   0.00000  Uiso   1.00
Zn840  Zn    0.79560   0.20439   0.78734   0.00000  Uiso   1.00
C841   C     0.05261   0.49255   0.76037   0.00000  Uiso   1.00
C842   C     0.17091   0.49816   0.56011   0.00000  Uiso   1.00
C843   C     0.20880   0.43882   0.55743   0.00000  Uiso   1.00
C844   C     0.28074   0.50778   0.74030   0.00000  Uiso   1.00
C845   C     0.14244   0.52885   0.92008   0.00000  Uiso   1.00
C846   C     0.32683   0.51264   0.73720   0.00000  Uiso   1.00
C847   C     0.00761   0.49036   0.76252   0.00000  Uiso   1.00
C848   C     0.18116   0.65607   0.73873   0.00000  Uiso   1.00
C849   C     0.15033   0.34568   0.76327   0.00000  Uiso   1.00
C850   C     0.15575   0.38950   0.76014   0.00000  Uiso   1.00
C851   C     0.17651   0.61125   0.74046   0.00000  Uiso   1.00
C852   C     0.14555   0.58468   0.97973   0.00000  Uiso   1.00
C853   C     0.18527   0.48117   0.62937   0.00000  Uiso   1.00
C854   C     0.14817   0.51812   0.87106   0.00000  Uiso   1.00
C855   C     0.20442   0.42620   0.51420   0.00000  Uiso   1.00
C856   C     0.19062   0.47392   0.58105   0.00000  Uiso   1.00
C857   C     0.13613   0.57020   0.93862   0.00000  Uiso   1.00
C858   C     0.22900   0.41332   0.57833   0.00000  Uiso   1.00
C859   C     0.22056   0.34207   0.71018   0.00000  Uiso   1.00
C860   C     0.10897   0.66221   0.79033   0.00000  Uiso   1.00
C861   C     0.18113   0.39248   0.93219   0.00000  Uiso   1.00
C862   C     0.09880   0.51398   0.59706   0.00000  Uiso   1.00
C863   C     0.16051   0.55860   0.50226   0.00000  Uiso   1.00
C864   C     0.12271   0.59907   0.91489   0.00000  Uiso   1.00
C865   C     0.14206   0.62710   0.99878   0.00000  Uiso   1.00
C866   C     0.12451   0.43572   0.90454   0.00000  Uiso   1.00
C867   C     0.02151   0.58375   0.72241   0.00000  Uiso   1.00
C868   C     0.16046   0.51588   0.98847   0.00000  Uiso   1.00
C869   C     0.15073   0.50044   0.94707   0.00000  Uiso   1.00
C870   C     0.17218   0.48859   0.51395   0.00000  Uiso   1.00
C871   C     0.18409   0.44959   0.99296   0.00000  Uiso   1.00
C872   C     0.17264   0.43369   0.95285   0.00000  Uiso   1.00
C873   C     0.15074   0.45725   0.93373   0.00000  Uiso   1.00
H874   H     0.31916   0.46858   0.78434   0.00000  Uiso   1.00
H875   H     0.03272   0.59076   0.75365   0.00000  Uiso   1.00
H876   H     0.32193   0.59242   0.72876   0.00000  Uiso   1.00
H877   H     0.21588   0.39736   0.99786   0.00000  Uiso   1.00
H878   H     0.17313   0.57267   0.53024   0.00000  Uiso   1.00
H879   H     0.15459   0.54360   0.61379   0.00000  Uiso   1.00
H880   H     0.09070   0.48880   0.61990   0.00000  Uiso   1.00
H881   H     0.08840   0.50253   0.56593   0.00000  Uiso   1.00
H882   H     0.08099   0.54040   0.61365   0.00000  Uiso   1.00
H883   H     0.05297   0.53257   0.69469   0.00000  Uiso   1.00
H884   H     0.04327   0.60278   0.69627   0.00000  Uiso   1.00
N885   N     0.24516   0.39289   0.59506   0.00000  Uiso   1.00
N886   N     0.25195   0.35747   0.68751   0.00000  Uiso   1.00
N887   N     0.07591   0.64900   0.81199   0.00000  Uiso   1.00
N888   N     0.18810   0.35976   0.91552   0.00000  Uiso   1.00
N889   N     0.14449   0.52787   0.58679   0.00000  Uiso   1.00
N890   N     0.11195   0.62217   0.89611   0.00000  Uiso   1.00
N891   N     0.13917   0.66094   0.51423   0.00000  Uiso   1.00
N892   N     0.10355   0.41845   0.88143   0.00000  Uiso   1.00
N893   N     0.02217   0.54020   0.70710   0.00000  Uiso   1.00
O894   O     0.16667   0.50000   0.75000   0.00000  Uiso   1.00
O895   O     0.15451   0.45970   0.65458   0.00000  Uiso   1.00
O896   O     0.12940   0.53724   0.84968   0.00000  Uiso   1.00
O897   O     0.20824   0.51092   0.64606   0.00000  Uiso   1.00
O898   O     0.17451   0.49213   0.84968   0.00000  Uiso   1.00
O899   O     0.17930   0.41352   0.78213   0.00000  Uiso   1.00
O900   O     0.14632   0.59418   0.77014   0.00000  Uiso   1.00
O901   O     0.07412   0.46625   0.73413   0.00000  Uiso   1.00
O902   O     0.26693   0.52605   0.71360   0.00000  Uiso   1.00
O903   O     0.07071   0.52211   0.78213   0.00000  Uiso   1.00
O904   O     0.25491   0.48559   0.77013   0.00000  Uiso   1.00
O905   O     0.13760   0.40277   0.73413   0.00000  Uiso   1.00
O906   O     0.20345   0.58953   0.71361   0.00000  Uiso   1.00
Zn907  Zn    0.19338   0.47327   0.78734   0.00000  Uiso   1.00
Zn908  Zn    0.13379   0.45791   0.71876   0.00000  Uiso   1.00
Zn909  Zn    0.21056   0.53109   0.70657   0.00000  Uiso   1.00
Zn910  Zn    0.12893   0.53773   0.78734   0.00000  Uiso   1.00
C911   C     0.38594   0.49255   0.76037   0.00000  Uiso   1.00
C912   C     0.50424   0.49816   0.56011   0.00000  Uiso   1.00
C913   C     0.54213   0.43882   0.55743   0.00000  Uiso   1.00
C914   C     0.61407   0.50778   0.74030   0.00000  Uiso   1.00
C915   C     0.47577   0.52885   0.92008   0.00000  Uiso   1.00
C916   C     0.66016   0.51264   0.73720   0.00000  Uiso   1.00
C917   C     0.34095   0.49036   0.76252   0.00000  Uiso   1.00
C918   C     0.51450   0.65607   0.73873   0.00000  Uiso   1.00
C919   C     0.48366   0.34568   0.76327   0.00000  Uiso   1.00
C920   C     0.48908   0.38950   0.76014   0.00000  Uiso   1.00
C921   C     0.50985   0.61125   0.74046   0.00000  Uiso   1.00
C922   C     0.47889   0.58468   0.97973   0.00000  Uiso   1.00
C923   C     0.51860   0.48117   0.62937   0.00000  Uiso   1.00
C924   C     0.48150   0.51812   0.87106   0.00000  Uiso   1.00
C925   C     0.53775   0.42620   0.51420   0.00000  Uiso   1.00
C926   C     0.52395   0.47392   0.58105   0.00000  Uiso   1.00
C927   C     0.46946   0.57020   0.93862   0.00000  Uiso   1.00
C928   C     0.56233   0.41332   0.57833   0.00000  Uiso   1.00
C929   C     0.55389   0.34207   0.71018   0.00000  Uiso   1.00
C930   C     0.44231   0.66221   0.79033   0.00000  Uiso   1.00
C931   C     0.51447   0.39248   0.93219   0.00000  Uiso   1.00
C932   C     0.43213   0.51398   0.59706   0.00000  Uiso   1.00
C933   C     0.49385   0.55860   0.50226   0.00000  Uiso   1.00
C934   C     0.45605   0.59907   0.91489   0.00000  Uiso   1.00
C935   C     0.47539   0.62710   0.99878   0.00000  Uiso   1.00
C936   C     0.45784   0.43572   0.90454   0.00000  Uiso   1.00
C937   C     0.35484   0.58375   0.72241   0.00000  Uiso   1.00
C938   C     0.49379   0.51588   0.98847   0.00000  Uiso   1.00
C939   C     0.48406   0.50044   0.94707   0.00000  Uiso   1.00
C940   C     0.50551   0.48859   0.51395   0.00000  Uiso   1.00
C941   C     0.51743   0.44959   0.99296   0.00000  Uiso   1.00
C942   C     0.50597   0.43369   0.95285   0.00000  Uiso   1.00
C943   C     0.48408   0.45725   0.93373   0.00000  Uiso   1.00
H944   H     0.65249   0.46858   0.78434   0.00000  Uiso   1.00
H945   H     0.36605   0.59076   0.75365   0.00000  Uiso   1.00
H946   H     0.65527   0.59242   0.72876   0.00000  Uiso   1.00
H947   H     0.54922   0.39736   0.99786   0.00000  Uiso   1.00
H948   H     0.50646   0.57267   0.53024   0.00000  Uiso   1.00
H949   H     0.48792   0.54360   0.61379   0.00000  Uiso   1.00
H950   H     0.42403   0.48880   0.61990   0.00000  Uiso   1.00
H951   H     0.42173   0.50253   0.56593   0.00000  Uiso   1.00
H952   H     0.41432   0.54040   0.61365   0.00000  Uiso   1.00
H953   H     0.38631   0.53257   0.69469   0.00000  Uiso   1.00
H954   H     0.37660   0.60278   0.69627   0.00000  Uiso   1.00
N955   N     0.57849   0.39289   0.59506   0.00000  Uiso   1.00
N956   N     0.58528   0.35747   0.68751   0.00000  Uiso   1.00
N957   N     0.40924   0.64900   0.81199   0.00000  Uiso   1.00
N958   N     0.52144   0.35976   0.91552   0.00000  Uiso   1.00
N959   N     0.47782   0.52787   0.58679   0.00000  Uiso   1.00
N960   N     0.44529   0.62217   0.89611   0.00000  Uiso   1.00
N961   N     0.47250   0.66094   0.51423   0.00000  Uiso   1.00
N962   N     0.43688   0.41845   0.88143   0.00000  Uiso   1.00
N963   N     0.35550   0.54020   0.70710   0.00000  Uiso   1.00
O964   O     0.50000   0.50000   0.75000   0.00000  Uiso   1.00
O965   O     0.48784   0.45970   0.65458   0.00000  Uiso   1.00
O966   O     0.46274   0.53724   0.84968   0.00000  Uiso   1.00
O967   O     0.54157   0.51092   0.64606   0.00000  Uiso   1.00
O968   O     0.50785   0.49213   0.84968   0.00000  Uiso   1.00
O969   O     0.51264   0.41352   0.78213   0.00000  Uiso   1.00
O970   O     0.47965   0.59418   0.77014   0.00000  Uiso   1.00
O971   O     0.40745   0.46625   0.73413   0.00000  Uiso   1.00
O972   O     0.60026   0.52605   0.71360   0.00000  Uiso   1.00
O973   O     0.40405   0.52211   0.78213   0.00000  Uiso   1.00
O974   O     0.58824   0.48559   0.77013   0.00000  Uiso   1.00
O975   O     0.47093   0.40277   0.73413   0.00000  Uiso   1.00
O976   O     0.53678   0.58953   0.71361   0.00000  Uiso   1.00
Zn977  Zn    0.52672   0.47327   0.78734   0.00000  Uiso   1.00
Zn978  Zn    0.46713   0.45791   0.71876   0.00000  Uiso   1.00
Zn979  Zn    0.54389   0.53109   0.70657   0.00000  Uiso   1.00
Zn980  Zn    0.46226   0.53773   0.78734   0.00000  Uiso   1.00
C981   C     0.71927   0.49255   0.76037   0.00000  Uiso   1.00
C982   C     0.83758   0.49816   0.56011   0.00000  Uiso   1.00
C983   C     0.87547   0.43882   0.55743   0.00000  Uiso   1.00
C984   C     0.94741   0.50778   0.74030   0.00000  Uiso   1.00
C985   C     0.80911   0.52885   0.92008   0.00000  Uiso   1.00
C986   C     0.99350   0.51264   0.73720   0.00000  Uiso   1.00
C987   C     0.67428   0.49036   0.76252   0.00000  Uiso   1.00
C988   C     0.84783   0.65607   0.73873   0.00000  Uiso   1.00
C989   C     0.81699   0.34568   0.76327   0.00000  Uiso   1.00
C990   C     0.82242   0.38950   0.76014   0.00000  Uiso   1.00
C991   C     0.84318   0.61125   0.74046   0.00000  Uiso   1.00
C992   C     0.81222   0.58468   0.97973   0.00000  Uiso   1.00
C993   C     0.85194   0.48117   0.62937   0.00000  Uiso   1.00
C994   C     0.81483   0.51812   0.87106   0.00000  Uiso   1.00
C995   C     0.87109   0.42620   0.51420   0.00000  Uiso   1.00
C996   C     0.85728   0.47392   0.58105   0.00000  Uiso   1.00
C997   C     0.80279   0.57020   0.93862   0.00000  Uiso   1.00
C998   C     0.89566   0.41332   0.57833   0.00000  Uiso   1.00
C999   C     0.88723   0.34207   0.71018   0.00000  Uiso   1.00
C1000  C     0.77564   0.66221   0.79033   0.00000  Uiso   1.00
C1001  C     0.84780   0.39248   0.93219   0.00000  Uiso   1.00
C1002  C     0.76546   0.51398   0.59706   0.00000  Uiso   1.00
C1003  C     0.82718   0.55860   0.50226   0.00000  Uiso   1.00
C1004  C     0.78938   0.59907   0.91489   0.00000  Uiso   1.00
C1005  C     0.80872   0.62710   0.99878   0.00000  Uiso   1.00
C1006  C     0.79118   0.43572   0.90454   0.00000  Uiso   1.00
C1007  C     0.68818   0.58375   0.72241   0.00000  Uiso   1.00
C1008  C     0.82713   0.51588   0.98847   0.00000  Uiso   1.00
C1009  C     0.81739   0.50044   0.94707   0.00000  Uiso   1.00
C1010  C     0.83884   0.48859   0.51395   0.00000  Uiso   1.00
C1011  C     0.85076   0.44959   0.99296   0.00000  Uiso   1.00
C1012  C     0.83930   0.43369   0.95285   0.00000  Uiso   1.00
C1013  C     0.81741   0.45725   0.93373   0.00000  Uiso   1.00
H1014  H     0.98582   0.46858   0.78434   0.00000  Uiso   1.00
H1015  H     0.69938   0.59076   0.75365   0.00000  Uiso   1.00
H1016  H     0.98860   0.59242   0.72876   0.00000  Uiso   1.00
H1017  H     0.88255   0.39736   0.99786   0.00000  Uiso   1.00
H1018  H     0.83980   0.57267   0.53024   0.00000  Uiso   1.00
H1019  H     0.82125   0.54360   0.61379   0.00000  Uiso   1.00
H1020  H     0.75736   0.48880   0.61990   0.00000  Uiso   1.00
H1021  H     0.75506   0.50253   0.56593   0.00000  Uiso   1.00
H1022  H     0.74766   0.54040   0.61365   0.00000  Uiso   1.00
H1023  H     0.71964   0.53257   0.69469   0.00000  Uiso   1.00
H1024  H     0.70994   0.60278   0.69627   0.00000  Uiso   1.00
N1025  N     0.91183   0.39289   0.59506   0.00000  Uiso   1.00
N1026  N     0.91862   0.35747   0.68751   0.00000  Uiso   1.00
N1027  N     0.74258   0.64900   0.81199   0.00000  Uiso   1.00
N1028  N     0.85477   0.35976   0.91552   0.00000  Uiso   1.00
N1029  N     0.81115   0.52787   0.58679   0.00000  Uiso   1.00
N1030  N     0.77862   0.62217   0.89611   0.00000  Uiso   1.00
N1031  N     0.80583   0.66094   0.51423   0.00000  Uiso   1.00
N1032  N     0.77022   0.41845   0.88143   0.00000  Uiso   1.00
N1033  N     0.68884   0.54020   0.70710   0.00000  Uiso   1.00
O1034  O     0.83333   0.50000   0.75000   0.00000  Uiso   1.00
O1035  O     0.82118   0.45970   0.65458   0.00000  Uiso   1.00
O1036  O     0.79607   0.53724   0.84968   0.00000  Uiso   1.00
O1037  O     0.87491   0.51092   0.64606   0.00000  Uiso   1.00
O1038  O     0.84118   0.49213   0.84968   0.00000  Uiso   1.00
O1039  O     0.84597   0.41352   0.78213   0.00000  Uiso   1.00
O1040  O     0.81298   0.59418   0.77014   0.00000  Uiso   1.00
O1041  O     0.74078   0.46625   0.73413   0.00000  Uiso   1.00
O1042  O     0.93360   0.52605   0.71360   0.00000  Uiso   1.00
O1043  O     0.73738   0.52211   0.78213   0.00000  Uiso   1.00
O1044  O     0.92158   0.48559   0.77013   0.00000  Uiso   1.00
O1045  O     0.80426   0.40277   0.73413   0.00000  Uiso   1.00
O1046  O     0.87012   0.58953   0.71361   0.00000  Uiso   1.00
Zn1047 Zn    0.86005   0.47327   0.78734   0.00000  Uiso   1.00
Zn1048 Zn    0.80046   0.45791   0.71876   0.00000  Uiso   1.00
Zn1049 Zn    0.87723   0.53109   0.70657   0.00000  Uiso   1.00
Zn1050 Zn    0.79560   0.53773   0.78734   0.00000  Uiso   1.00
C1051  C     0.05261   0.82588   0.76037   0.00000  Uiso   1.00
C1052  C     0.17091   0.83150   0.56011   0.00000  Uiso   1.00
C1053  C     0.20880   0.77215   0.55743   0.00000  Uiso   1.00
C1054  C     0.28074   0.84111   0.74030   0.00000  Uiso   1.00
C1055  C     0.14244   0.86218   0.92008   0.00000  Uiso   1.00
C1056  C     0.32683   0.84597   0.73720   0.00000  Uiso   1.00
C1057  C     0.00761   0.82369   0.76252   0.00000  Uiso   1.00
C1058  C     0.18116   0.98941   0.73873   0.00000  Uiso   1.00
C1059  C     0.15033   0.67901   0.76327   0.00000  Uiso   1.00
C1060  C     0.15575   0.72283   0.76014   0.00000  Uiso   1.00
C1061  C     0.17651   0.94458   0.74046   0.00000  Uiso   1.00
C1062  C     0.14555   0.91802   0.97973   0.00000  Uiso   1.00
C1063  C     0.18527   0.81450   0.62937   0.00000  Uiso   1.00
C1064  C     0.14817   0.85145   0.87106   0.00000  Uiso   1.00
C1065  C     0.20442   0.75954   0.51420   0.00000  Uiso   1.00
C1066  C     0.19062   0.80726   0.58105   0.00000  Uiso   1.00
C1067  C     0.13613   0.90353   0.93862   0.00000  Uiso   1.00
C1068  C     0.22900   0.74665   0.57833   0.00000  Uiso   1.00
C1069  C     0.22056   0.67541   0.71018   0.00000  Uiso   1.00
C1070  C     0.10897   0.99554   0.79033   0.00000  Uiso   1.00
C1071  C     0.18113   0.72582   0.93219   0.00000  Uiso   1.00
C1072  C     0.09880   0.84732   0.59706   0.00000  Uiso   1.00
C1073  C     0.16051   0.89193   0.50226   0.00000  Uiso   1.00
C1074  C     0.12271   0.93240   0.91489   0.00000  Uiso   1.00
C1075  C     0.14206   0.96043   0.99878   0.00000  Uiso   1.00
C1076  C     0.12451   0.76906   0.90454   0.00000  Uiso   1.00
C1077  C     0.02151   0.91709   0.72241   0.00000  Uiso   1.00
C1078  C     0.16046   0.84922   0.98847   0.00000  Uiso   1.00
C1079  C     0.15073   0.83378   0.94707   0.00000  Uiso   1.00
C1080  C     0.17218   0.82193   0.51395   0.00000  Uiso   1.00
C1081  C     0.18409   0.78292   0.99296   0.00000  Uiso   1.00
C1082  C     0.17264   0.76702   0.95285   0.00000  Uiso   1.00
C1083  C     0.15074   0.79058   0.93373   0.00000  Uiso   1.00
H1084  H     0.31916   0.80192   0.78434   0.00000  Uiso   1.00
H1085  H     0.03272   0.92410   0.75365   0.00000  Uiso   1.00
H1086  H     0.32193   0.92575   0.72876   0.00000  Uiso   1.00
H1087  H     0.21588   0.73069   0.99786   0.00000  Uiso   1.00
H1088  H     0.17313   0.90600   0.53024   0.00000  Uiso   1.00
H1089  H     0.15459   0.87693   0.61379   0.00000  Uiso   1.00
H1090  H     0.09070   0.82214   0.61990   0.00000  Uiso   1.00
H1091  H     0.08840   0.83587   0.56593   0.00000  Uiso   1.00
H1092  H     0.08099   0.87373   0.61365   0.00000  Uiso   1.00
H1093  H     0.05297   0.86591   0.69469   0.00000  Uiso   1.00
H1094  H     0.04327   0.93611   0.69627   0.00000  Uiso   1.00
N1095  N     0.24516   0.72623   0.59506   0.00000  Uiso   1.00
N1096  N     0.25195   0.69080   0.68751   0.00000  Uiso   1.00
N1097  N     0.07591   0.98233   0.81199   0.00000  Uiso   1.00
N1098  N     0.18810   0.69309   0.91552   0.00000  Uiso   1.00
N1099  N     0.14449   0.86120   0.58679   0.00000  Uiso   1.00
N1100  N     0.11195   0.95551   0.89611   0.00000  Uiso   1.00
N1101  N     0.13917   0.99427   0.51423   0.00000  Uiso   1.00
N1102  N     0.10355   0.75178   0.88143   0.00000  Uiso   1.00
N1103  N     0.02217   0.87353   0.70710   0.00000  Uiso   1.00
O1104  O     0.16667   0.83333   0.75000   0.00000  Uiso   1.00
O1105  O     0.15451   0.79304   0.65458   0.00000  Uiso   1.00
O1106  O     0.12940   0.87058   0.84968   0.00000  Uiso   1.00
O1107  O     0.20824   0.84425   0.64606   0.00000  Uiso   1.00
O1108  O     0.17451   0.82546   0.84968   0.00000  Uiso   1.00
O1109  O     0.17930   0.74686   0.78213   0.00000  Uiso   1.00
O1110  O     0.14632   0.92751   0.77014   0.00000  Uiso   1.00
O1111  O     0.07412   0.79958   0.73413   0.00000  Uiso   1.00
O1112  O     0.26693   0.85939   0.71360   0.00000  Uiso   1.00
O1113  O     0.07071   0.85544   0.78213   0.00000  Uiso   1.00
O1114  O     0.25491   0.81892   0.77013   0.00000  Uiso   1.00
O1115  O     0.13760   0.73610   0.73413   0.00000  Uiso   1.00
O1116  O     0.20345   0.92286   0.71361   0.00000  Uiso   1.00
Zn1117 Zn    0.19338   0.80661   0.78734   0.00000  Uiso   1.00
Zn1118 Zn    0.13379   0.79124   0.71876   0.00000  Uiso   1.00
Zn1119 Zn    0.21056   0.86442   0.70657   0.00000  Uiso   1.00
Zn1120 Zn    0.12893   0.87106   0.78734   0.00000  Uiso   1.00
C1121  C     0.38594   0.82588   0.76037   0.00000  Uiso   1.00
C1122  C     0.50424   0.83150   0.56011   0.00000  Uiso   1.00
C1123  C     0.54213   0.77215   0.55743   0.00000  Uiso   1.00
C1124  C     0.61407   0.84111   0.74030   0.00000  Uiso   1.00
C1125  C     0.47577   0.86218   0.92008   0.00000  Uiso   1.00
C1126  C     0.66016   0.84597   0.73720   0.00000  Uiso   1.00
C1127  C     0.34095   0.82369   0.76252   0.00000  Uiso   1.00
C1128  C     0.51450   0.98941   0.73873   0.00000  Uiso   1.00
C1129  C     0.48366   0.67901   0.76327   0.00000  Uiso   1.00
C1130  C     0.48908   0.72283   0.76014   0.00000  Uiso   1.00
C1131  C     0.50985   0.94458   0.74046   0.00000  Uiso   1.00
C1132  C     0.47889   0.91802   0.97973   0.00000  Uiso   1.00
C1133  C     0.51860   0.81450   0.62937   0.00000  Uiso   1.00
C1134  C     0.48150   0.85145   0.87106   0.00000  Uiso   1.00
C1135  C     0.53775   0.75954   0.51420   0.00000  Uiso   1.00
C1136  C     0.52395   0.80726   0.58105   0.00000  Uiso   1.00
C1137  C     0.46946   0.90353   0.93862   0.00000  Uiso   1.00
C1138  C     0.56233   0.74665   0.57833   0.00000  Uiso   1.00
C1139  C     0.55389   0.67541   0.71018   0.00000  Uiso   1.00
C1140  C     0.44231   0.99554   0.79033   0.00000  Uiso   1.00
C1141  C     0.51447   0.72582   0.93219   0.00000  Uiso   1.00
C1142  C     0.43213   0.84732   0.59706   0.00000  Uiso   1.00
C1143  C     0.49385   0.89193   0.50226   0.00000  Uiso   1.00
C1144  C     0.45605   0.93240   0.91489   0.00000  Uiso   1.00
C1145  C     0.47539   0.96043   0.99878   0.00000  Uiso   1.00
C1146  C     0.45784   0.76906   0.90454   0.00000  Uiso   1.00
C1147  C     0.35484   0.91709   0.72241   0.00000  Uiso   1.00
C1148  C     0.49379   0.84922   0.98847   0.00000  Uiso   1.00
C1149  C     0.48406   0.83378   0.94707   0.00000  Uiso   1.00
C1150  C     0.50551   0.82193   0.51395   0.00000  Uiso   1.00
C1151  C     0.51743   0.78292   0.99296   0.00000  Uiso   1.00
C1152  C     0.50597   0.76702   0.95285   0.00000  Uiso   1.00
C1153  C     0.48408   0.79058   0.93373   0.00000  Uiso   1.00
H1154  H     0.65249   0.80192   0.78434   0.00000  Uiso   1.00
H1155  H     0.36605   0.92410   0.75365   0.00000  Uiso   1.00
H1156  H     0.65527   0.92575   0.72876   0.00000  Uiso   1.00
H1157  H     0.54922   0.73069   0.99786   0.00000  Uiso   1.00
H1158  H     0.50646   0.90600   0.53024   0.00000  Uiso   1.00
H1159  H     0.48792   0.87693   0.61379   0.00000  Uiso   1.00
H1160  H     0.42403   0.82214   0.61990   0.00000  Uiso   1.00
H1161  H     0.42173   0.83587   0.56593   0.00000  Uiso   1.00
H1162  H     0.41432   0.87373   0.61365   0.00000  Uiso   1.00
H1163  H     0.38631   0.86591   0.69469   0.00000  Uiso   1.00
H1164  H     0.37660   0.93611   0.69627   0.00000  Uiso   1.00
N1165  N     0.57849   0.72623   0.59506   0.00000  Uiso   1.00
N1166  N     0.58528   0.69080   0.68751   0.00000  Uiso   1.00
N1167  N     0.40924   0.98233   0.81199   0.00000  Uiso   1.00
N1168  N     0.52144   0.69309   0.91552   0.00000  Uiso   1.00
N1169  N     0.47782   0.86120   0.58679   0.00000  Uiso   1.00
N1170  N     0.44529   0.95551   0.89611   0.00000  Uiso   1.00
N1171  N     0.47250   0.99427   0.51423   0.00000  Uiso   1.00
N1172  N     0.43688   0.75178   0.88143   0.00000  Uiso   1.00
N1173  N     0.35550   0.87353   0.70710   0.00000  Uiso   1.00
O1174  O     0.50000   0.83333   0.75000   0.00000  Uiso   1.00
O1175  O     0.48784   0.79304   0.65458   0.00000  Uiso   1.00
O1176  O     0.46274   0.87058   0.84968   0.00000  Uiso   1.00
O1177  O     0.54157   0.84425   0.64606   0.00000  Uiso   1.00
O1178  O     0.50785   0.82546   0.84968   0.00000  Uiso   1.00
O1179  O     0.51264   0.74686   0.78213   0.00000  Uiso   1.00
O1180  O     0.47965   0.92751   0.77014   0.00000  Uiso   1.00
O1181  O     0.40745   0.79958   0.73413   0.00000  Uiso   1.00
O1182  O     0.60026   0.85939   0.71360   0.00000  Uiso   1.00
O1183  O     0.40405   0.85544   0.78213   0.00000  Uiso   1.00
O1184  O     0.58824   0.81892   0.77013   0.00000  Uiso   1.00
O1185  O     0.47093   0.73610   0.73413   0.00000  Uiso   1.00
O1186  O     0.53678   0.92286   0.71361   0.00000  Uiso   1.00
Zn1187 Zn    0.52672   0.80661   0.78734   0.00000  Uiso   1.00
Zn1188 Zn    0.46713   0.79124   0.71876   0.00000  Uiso   1.00
Zn1189 Zn    0.54389   0.86442   0.70657   0.00000  Uiso   1.00
Zn1190 Zn    0.46226   0.87106   0.78734   0.00000  Uiso   1.00
C1191  C     0.71927   0.82588   0.76037   0.00000  Uiso   1.00
C1192  C     0.83758   0.83150   0.56011   0.00000  Uiso   1.00
C1193  C     0.87547   0.77215   0.55743   0.00000  Uiso   1.00
C1194  C     0.94741   0.84111   0.74030   0.00000  Uiso   1.00
C1195  C     0.80911   0.86218   0.92008   0.00000  Uiso   1.00
C1196  C     0.99350   0.84597   0.73720   0.00000  Uiso   1.00
C1197  C     0.67428   0.82369   0.76252   0.00000  Uiso   1.00
C1198  C     0.84783   0.98941   0.73873   0.00000  Uiso   1.00
C1199  C     0.81699   0.67901   0.76327   0.00000  Uiso   1.00
C1200  C     0.82242   0.72283   0.76014   0.00000  Uiso   1.00
C1201  C     0.84318   0.94458   0.74046   0.00000  Uiso   1.00
C1202  C     0.81222   0.91802   0.97973   0.00000  Uiso   1.00
C1203  C     0.85194   0.81450   0.62937   0.00000  Uiso   1.00
C1204  C     0.81483   0.85145   0.87106   0.00000  Uiso   1.00
C1205  C     0.87109   0.75954   0.51420   0.00000  Uiso   1.00
C1206  C     0.85728   0.80726   0.58105   0.00000  Uiso   1.00
C1207  C     0.80279   0.90353   0.93862   0.00000  Uiso   1.00
C1208  C     0.89566   0.74665   0.57833   0.00000  Uiso   1.00
C1209  C     0.88723   0.67541   0.71018   0.00000  Uiso   1.00
C1210  C     0.77564   0.99554   0.79033   0.00000  Uiso   1.00
C1211  C     0.84780   0.72582   0.93219   0.00000  Uiso   1.00
C1212  C     0.76546   0.84732   0.59706   0.00000  Uiso   1.00
C1213  C     0.82718   0.89193   0.50226   0.00000  Uiso   1.00
C1214  C     0.78938   0.93240   0.91489   0.00000  Uiso   1.00
C1215  C     0.80872   0.96043   0.99878   0.00000  Uiso   1.00
C1216  C     0.79118   0.76906   0.90454   0.00000  Uiso   1.00
C1217  C     0.68818   0.91709   0.72241   0.00000  Uiso   1.00
C1218  C     0.82713   0.84922   0.98847   0.00000  Uiso   1.00
C1219  C     0.81739   0.83378   0.94707   0.00000  Uiso   1.00
C1220  C     0.83884   0.82193   0.51395   0.00000  Uiso   1.00
C1221  C     0.85076   0.78292   0.99296   0.00000  Uiso   1.00
C1222  C     0.83930   0.76702   0.95285   0.00000  Uiso   1.00
C1223  C     0.81741   0.79058   0.93373   0.00000  Uiso   1.00
H1224  H     0.98582   0.80192   0.78434   0.00000  Uiso   1.00
H1225  H     0.69938   0.92410   0.75365   0.00000  Uiso   1.00
H1226  H     0.98860   0.92575   0.72876   0.00000  Uiso   1.00
H1227  H     0.88255   0.73069   0.99786   0.00000  Uiso   1.00
H1228  H     0.83980   0.90600   0.53024   0.00000  Uiso   1.00
H1229  H     0.82125   0.87693   0.61379   0.00000  Uiso   1.00
H1230  H     0.75736   0.82214   0.61990   0.00000  Uiso   1.00
H1231  H     0.75506   0.83587   0.56593   0.00000  Uiso   1.00
H1232  H     0.74766   0.87373   0.61365   0.00000  Uiso   1.00
H1233  H     0.71964   0.86591   0.69469   0.00000  Uiso   1.00
H1234  H     0.70994   0.93611   0.69627   0.00000  Uiso   1.00
N1235  N     0.91183   0.72623   0.59506   0.00000  Uiso   1.00
N1236  N     0.91862   0.69080   0.68751   0.00000  Uiso   1.00
N1237  N     0.74258   0.98233   0.81199   0.00000  Uiso   1.00
N1238  N     0.85477   0.69309   0.91552   0.00000  Uiso   1.00
N1239  N     0.81115   0.86120   0.58679   0.00000  Uiso   1.00
N1240  N     0.77862   0.95551   0.89611   0.00000  Uiso   1.00
N1241  N     0.80583   0.99427   0.51423   0.00000  Uiso   1.00
N1242  N     0.77022   0.75178   0.88143   0.00000  Uiso   1.00
N1243  N     0.68884   0.87353   0.70710   0.00000  Uiso   1.00
O1244  O     0.83333   0.83333   0.75000   0.00000  Uiso   1.00
O1245  O     0.82118   0.79304   0.65458   0.00000  Uiso   1.00
O1246  O     0.79607   0.87058   0.84968   0.00000  Uiso   1.00
O1247  O     0.87491   0.84425   0.64606   0.00000  Uiso   1.00
O1248  O     0.84118   0.82546   0.84968   0.00000  Uiso   1.00
O1249  O     0.84597   0.74686   0.78213   0.00000  Uiso   1.00
O1250  O     0.81298   0.92751   0.77014   0.00000  Uiso   1.00
O1251  O     0.74078   0.79958   0.73413   0.00000  Uiso   1.00
O1252  O     0.93360   0.85939   0.71360   0.00000  Uiso   1.00
O1253  O     0.73738   0.85544   0.78213   0.00000  Uiso   1.00
O1254  O     0.92158   0.81892   0.77013   0.00000  Uiso   1.00
O1255  O     0.80426   0.73610   0.73413   0.00000  Uiso   1.00
O1256  O     0.87012   0.92286   0.71361   0.00000  Uiso   1.00
Zn1257 Zn    0.86005   0.80661   0.78734   0.00000  Uiso   1.00
Zn1258 Zn    0.80046   0.79124   0.71876   0.00000  Uiso   1.00
Zn1259 Zn    0.87723   0.86442   0.70657   0.00000  Uiso   1.00
Zn1260 Zn    0.79560   0.87106   0.78734   0.00000  Uiso   1.00
loop_
_geom_bond_atom_site_label_1
_geom_bond_atom_site_label_2
_geom_bond_distance
_geom_bond_site_symmetry_2
_ccdc_geom_bond_type
C1     O63     1.269   .     A
C1     C7      1.439   .     S
C1     O61     1.265   .     A
C2     N49     1.430   .     S
C2     C16     1.406   .     A
C2     C30     1.420   .     A
C3     C15     1.392   .     A
C3     C16     1.405   .     A
C3     C18     1.445   .     S
C4     O64     1.288   .     A
C4     O62     1.288   .     A
C4     C6      1.462   .     S
C5     C14     1.487   .     S
C5     C29     1.428   .     A
C5     C17     1.425   .     A
C6     C77     1.344   .     S
C6     N123    1.431   .     S
C7     C146    1.344   1_455 S
C7     H174    1.086   1_455 S
C8     C11     1.458   .     S
C8     C219    1.353   .     S
C8     C229    1.454   .     S
C9     C10     1.431   .     S
C9     C428    1.353   1_545 S
C9     C440    1.450   1_545 S
C10    O59     1.277   .     A
C10    O65     1.271   .     A
C11    O66     1.273   .     A
C11    O60     1.267   .     A
C12    C17     1.400   .     A
C12    C25     1.448   .     S
C12    C653    1.386   .     S
C13    C16     1.457   .     S
C13    O57     1.276   .     A
C13    O55     1.270   .     A
C14    O56     1.284   .     A
C14    O58     1.296   .     A
C15    C661    1.407   1_554 S
C15    H667    1.084   1_554 S
C17    C24     1.452   .     S
C18    N45     1.157   .     T
C19    N46     1.157   .     T
C19    C428    1.454   1_545 S
C20    N47     1.158   .     T
C20    C219    1.450   .     S
C21    N48     1.157   .     T
C21    C32     1.452   .     S
C22    H40     1.111   .     S
C22    H42     1.110   .     S
C22    N49     1.447   .     S
C22    H41     1.111   .     S
C23    H38     1.080   .     S
C23    C642    1.386   1_554 S
C23    C658    1.409   1_554 S
C24    N50     1.158   .     T
C25    N681    1.157   .     S
C26    N52     1.158   .     T
C26    C33     1.454   .     S
C27    N53     1.446   .     S
C27    H35     1.111   .     S
C27    H44     1.111   .     S
C27    H176    1.111   1_455 S
C28    C29     1.419   .     A
C28    C653    1.409   .     S
C28    C660    1.421   .     S
C29    C33     1.422   .     A
C30    C658    1.421   1_554 S
C30    C661    1.419   1_554 S
C31    C32     1.410   .     A
C31    C660    1.419   .     S
C31    C645    1.407   .     S
C32    C33     1.404   .     A
H34    C77     1.086   .     S
H36    C97     1.111   .     S
H37    C645    1.084   .     S
H39    N49     1.031   .     S
H43    N53     1.031   .     S
N51    C655    1.157   1_554 S
N53    C146    1.431   1_455 S
O54    Zn70    1.930   .     S
O54    Zn69    1.940   .     S
O54    Zn68    1.935   .     S
O54    Zn67    1.976   .     S
O55    Zn68    1.932   .     S
O56    Zn70    1.944   .     S
O57    Zn69    1.929   .     S
O58    Zn67    1.920   .     S
O59    Zn67    1.935   .     S
O60    Zn70    1.946   .     S
O61    Zn68    1.926   .     S
O62    Zn69    1.939   .     S
O63    Zn70    1.929   .     S
O64    Zn67    1.921   .     S
O65    Zn68    1.956   .     S
O66    Zn69    1.941   .     S
C71    O133    1.269   .     A
C71    C77     1.439   .     S
C71    O131    1.265   .     A
C72    N119    1.430   .     S
C72    C86     1.406   .     A
C72    C100    1.420   .     A
C73    C85     1.392   .     A
C73    C86     1.405   .     A
C73    C88     1.445   .     S
C74    O134    1.288   .     A
C74    O132    1.288   .     A
C74    C76     1.462   .     S
C75    C84     1.487   .     S
C75    C99     1.428   .     A
C75    C87     1.425   .     A
C76    C147    1.344   .     S
C76    N193    1.431   .     S
C78    C81     1.458   .     S
C78    C289    1.353   .     S
C78    C299    1.454   .     S
C79    C80     1.431   .     S
C79    C498    1.353   1_545 S
C79    C510    1.450   1_545 S
C80    O129    1.277   .     A
C80    O135    1.271   .     A
C81    O136    1.273   .     A
C81    O130    1.267   .     A
C82    C87     1.400   .     A
C82    C95     1.448   .     S
C82    C723    1.386   .     S
C83    C86     1.457   .     S
C83    O127    1.276   .     A
C83    O125    1.270   .     A
C84    O126    1.284   .     A
C84    O128    1.296   .     A
C85    C731    1.407   1_554 S
C85    H737    1.084   1_554 S
C87    C94     1.452   .     S
C88    N115    1.157   .     T
C89    N116    1.157   .     T
C89    C498    1.454   1_545 S
C90    N117    1.158   .     T
C90    C289    1.450   .     S
C91    N118    1.157   .     T
C91    C102    1.452   .     S
C92    H110    1.111   .     S
C92    H112    1.110   .     S
C92    N119    1.447   .     S
C92    H111    1.111   .     S
C93    H108    1.080   .     S
C93    C712    1.386   1_554 S
C93    C728    1.409   1_554 S
C94    N120    1.158   .     T
C95    N751    1.157   .     S
C96    N122    1.158   .     T
C96    C103    1.454   .     S
C97    N123    1.446   .     S
C97    H105    1.111   .     S
C97    H114    1.111   .     S
C98    C99     1.419   .     A
C98    C723    1.409   .     S
C98    C730    1.421   .     S
C99    C103    1.422   .     A
C100   C728    1.421   1_554 S
C100   C731    1.419   1_554 S
C101   C102    1.410   .     A
C101   C730    1.419   .     S
C101   C715    1.407   .     S
C102   C103    1.404   .     A
H104   C147    1.086   .     S
H106   C167    1.111   .     S
H107   C715    1.084   .     S
H109   N119    1.031   .     S
H113   N123    1.031   .     S
N121   C725    1.157   1_554 S
O124   Zn140   1.930   .     S
O124   Zn139   1.940   .     S
O124   Zn138   1.935   .     S
O124   Zn137   1.976   .     S
O125   Zn138   1.932   .     S
O126   Zn140   1.944   .     S
O127   Zn139   1.929   .     S
O128   Zn137   1.920   .     S
O129   Zn137   1.935   .     S
O130   Zn140   1.946   .     S
O131   Zn138   1.926   .     S
O132   Zn139   1.939   .     S
O133   Zn140   1.929   .     S
O134   Zn137   1.921   .     S
O135   Zn138   1.956   .     S
O136   Zn139   1.941   .     S
C141   O203    1.269   .     A
C141   C147    1.439   .     S
C141   O201    1.265   .     A
C142   N189    1.430   .     S
C142   C156    1.406   .     A
C142   C170    1.420   .     A
C143   C155    1.392   .     A
C143   C156    1.405   .     A
C143   C158    1.445   .     S
C144   O204    1.288   .     A
C144   O202    1.288   .     A
C144   C146    1.462   .     S
C145   C154    1.487   .     S
C145   C169    1.428   .     A
C145   C157    1.425   .     A
C146   C7      1.344   1_655 S
C146   N53     1.431   1_655 S
C148   C151    1.458   .     S
C148   C359    1.353   .     S
C148   C369    1.454   .     S
C149   C150    1.431   .     S
C149   C568    1.353   1_545 S
C149   C580    1.450   1_545 S
C150   O199    1.277   .     A
C150   O205    1.271   .     A
C151   O206    1.273   .     A
C151   O200    1.267   .     A
C152   C157    1.400   .     A
C152   C165    1.448   .     S
C152   C793    1.386   .     S
C153   C156    1.457   .     S
C153   O197    1.276   .     A
C153   O195    1.270   .     A
C154   O196    1.284   .     A
C154   O198    1.296   .     A
C155   C801    1.407   1_554 S
C155   H807    1.084   1_554 S
C157   C164    1.452   .     S
C158   N185    1.157   .     T
C159   N186    1.157   .     T
C159   C568    1.454   1_545 S
C160   N187    1.158   .     T
C160   C359    1.450   .     S
C161   N188    1.157   .     T
C161   C172    1.452   .     S
C162   H180    1.111   .     S
C162   H182    1.110   .     S
C162   N189    1.447   .     S
C162   H181    1.111   .     S
C163   H178    1.080   .     S
C163   C782    1.386   1_554 S
C163   C798    1.409   1_554 S
C164   N190    1.158   .     T
C165   N821    1.157   .     S
C166   N192    1.158   .     T
C166   C173    1.454   .     S
C167   N193    1.446   .     S
C167   H175    1.111   .     S
C167   H184    1.111   .     S
C168   C169    1.419   .     A
C168   C793    1.409   .     S
C168   C800    1.421   .     S
C169   C173    1.422   .     A
C170   C798    1.421   1_554 S
C170   C801    1.419   1_554 S
C171   C172    1.410   .     A
C171   C800    1.419   .     S
C171   C785    1.407   .     S
C172   C173    1.404   .     A
H174   C7      1.086   1_655 S
H176   C27     1.111   1_655 S
H177   C785    1.084   .     S
H179   N189    1.031   .     S
H183   N193    1.031   .     S
N191   C795    1.157   1_554 S
O194   Zn210   1.930   .     S
O194   Zn209   1.940   .     S
O194   Zn208   1.935   .     S
O194   Zn207   1.976   .     S
O195   Zn208   1.932   .     S
O196   Zn210   1.944   .     S
O197   Zn209   1.929   .     S
O198   Zn207   1.920   .     S
O199   Zn207   1.935   .     S
O200   Zn210   1.946   .     S
O201   Zn208   1.926   .     S
O202   Zn209   1.939   .     S
O203   Zn210   1.929   .     S
O204   Zn207   1.921   .     S
O205   Zn208   1.956   .     S
O206   Zn209   1.941   .     S
C211   O273    1.269   .     A
C211   C217    1.439   .     S
C211   O271    1.265   .     A
C212   N259    1.430   .     S
C212   C226    1.406   .     A
C212   C240    1.420   .     A
C213   C225    1.392   .     A
C213   C226    1.405   .     A
C213   C228    1.445   .     S
C214   O274    1.288   .     A
C214   O272    1.288   .     A
C214   C216    1.462   .     S
C215   C224    1.487   .     S
C215   C239    1.428   .     A
C215   C227    1.425   .     A
C216   C287    1.344   .     S
C216   N333    1.431   .     S
C217   C356    1.344   1_455 S
C217   H384    1.086   1_455 S
C218   C221    1.458   .     S
C218   C429    1.353   .     S
C218   C439    1.454   .     S
C219   C220    1.431   .     S
C220   O269    1.277   .     A
C220   O275    1.271   .     A
C221   O276    1.273   .     A
C221   O270    1.267   .     A
C222   C227    1.400   .     A
C222   C235    1.448   .     S
C222   C863    1.386   .     S
C223   C226    1.457   .     S
C223   O267    1.276   .     A
C223   O265    1.270   .     A
C224   O266    1.284   .     A
C224   O268    1.296   .     A
C225   C871    1.407   1_554 S
C225   H877    1.084   1_554 S
C227   C234    1.452   .     S
C228   N255    1.157   .     T
C229   N256    1.157   .     T
C230   N257    1.158   .     T
C230   C429    1.450   .     S
C231   N258    1.157   .     T
C231   C242    1.452   .     S
C232   H250    1.111   .     S
C232   H252    1.110   .     S
C232   N259    1.447   .     S
C232   H251    1.111   .     S
C233   H248    1.080   .     S
C233   C852    1.386   1_554 S
C233   C868    1.409   1_554 S
C234   N260    1.158   .     T
C235   N891    1.157   .     S
C236   N262    1.158   .     T
C236   C243    1.454   .     S
C237   N263    1.446   .     S
C237   H245    1.111   .     S
C237   H254    1.111   .     S
C237   H386    1.111   1_455 S
C238   C239    1.419   .     A
C238   C863    1.409   .     S
C238   C870    1.421   .     S
C239   C243    1.422   .     A
C240   C868    1.421   1_554 S
C240   C871    1.419   1_554 S
C241   C242    1.410   .     A
C241   C870    1.419   .     S
C241   C855    1.407   .     S
C242   C243    1.404   .     A
H244   C287    1.086   .     S
H246   C307    1.111   .     S
H247   C855    1.084   .     S
H249   N259    1.031   .     S
H253   N263    1.031   .     S
N261   C865    1.157   1_554 S
N263   C356    1.431   1_455 S
O264   Zn280   1.930   .     S
O264   Zn279   1.940   .     S
O264   Zn278   1.935   .     S
O264   Zn277   1.976   .     S
O265   Zn278   1.932   .     S
O266   Zn280   1.944   .     S
O267   Zn279   1.929   .     S
O268   Zn277   1.920   .     S
O269   Zn277   1.935   .     S
O270   Zn280   1.946   .     S
O271   Zn278   1.926   .     S
O272   Zn279   1.939   .     S
O273   Zn280   1.929   .     S
O274   Zn277   1.921   .     S
O275   Zn278   1.956   .     S
O276   Zn279   1.941   .     S
C281   O343    1.269   .     A
C281   C287    1.439   .     S
C281   O341    1.265   .     A
C282   N329    1.430   .     S
C282   C296    1.406   .     A
C282   C310    1.420   .     A
C283   C295    1.392   .     A
C283   C296    1.405   .     A
C283   C298    1.445   .     S
C284   O344    1.288   .     A
C284   O342    1.288   .     A
C284   C286    1.462   .     S
C285   C294    1.487   .     S
C285   C309    1.428   .     A
C285   C297    1.425   .     A
C286   C357    1.344   .     S
C286   N403    1.431   .     S
C288   C291    1.458   .     S
C288   C499    1.353   .     S
C288   C509    1.454   .     S
C289   C290    1.431   .     S
C290   O339    1.277   .     A
C290   O345    1.271   .     A
C291   O346    1.273   .     A
C291   O340    1.267   .     A
C292   C297    1.400   .     A
C292   C305    1.448   .     S
C292   C933    1.386   .     S
C293   C296    1.457   .     S
C293   O337    1.276   .     A
C293   O335    1.270   .     A
C294   O336    1.284   .     A
C294   O338    1.296   .     A
C295   C941    1.407   1_554 S
C295   H947    1.084   1_554 S
C297   C304    1.452   .     S
C298   N325    1.157   .     T
C299   N326    1.157   .     T
C300   N327    1.158   .     T
C300   C499    1.450   .     S
C301   N328    1.157   .     T
C301   C312    1.452   .     S
C302   H320    1.111   .     S
C302   H322    1.110   .     S
C302   N329    1.447   .     S
C302   H321    1.111   .     S
C303   H318    1.080   .     S
C303   C922    1.386   1_554 S
C303   C938    1.409   1_554 S
C304   N330    1.158   .     T
C305   N961    1.157   .     S
C306   N332    1.158   .     T
C306   C313    1.454   .     S
C307   N333    1.446   .     S
C307   H315    1.111   .     S
C307   H324    1.111   .     S
C308   C309    1.419   .     A
C308   C933    1.409   .     S
C308   C940    1.421   .     S
C309   C313    1.422   .     A
C310   C938    1.421   1_554 S
C310   C941    1.419   1_554 S
C311   C312    1.410   .     A
C311   C940    1.419   .     S
C311   C925    1.407   .     S
C312   C313    1.404   .     A
H314   C357    1.086   .     S
H316   C377    1.111   .     S
H317   C925    1.084   .     S
H319   N329    1.031   .     S
H323   N333    1.031   .     S
N331   C935    1.157   1_554 S
O334   Zn350   1.930   .     S
O334   Zn349   1.940   .     S
O334   Zn348   1.935   .     S
O334   Zn347   1.976   .     S
O335   Zn348   1.932   .     S
O336   Zn350   1.944   .     S
O337   Zn349   1.929   .     S
O338   Zn347   1.920   .     S
O339   Zn347   1.935   .     S
O340   Zn350   1.946   .     S
O341   Zn348   1.926   .     S
O342   Zn349   1.939   .     S
O343   Zn350   1.929   .     S
O344   Zn347   1.921   .     S
O345   Zn348   1.956   .     S
O346   Zn349   1.941   .     S
C351   O413    1.269   .     A
C351   C357    1.439   .     S
C351   O411    1.265   .     A
C352   N399    1.430   .     S
C352   C366    1.406   .     A
C352   C380    1.420   .     A
C353   C365    1.392   .     A
C353   C366    1.405   .     A
C353   C368    1.445   .     S
C354   O414    1.288   .     A
C354   O412    1.288   .     A
C354   C356    1.462   .     S
C355   C364    1.487   .     S
C355   C379    1.428   .     A
C355   C367    1.425   .     A
C356   C217    1.344   1_655 S
C356   N263    1.431   1_655 S
C358   C361    1.458   .     S
C358   C569    1.353   .     S
C358   C579    1.454   .     S
C359   C360    1.431   .     S
C360   O409    1.277   .     A
C360   O415    1.271   .     A
C361   O416    1.273   .     A
C361   O410    1.267   .     A
C362   C367    1.400   .     A
C362   C375    1.448   .     S
C362   C1003   1.386   .     S
C363   C366    1.457   .     S
C363   O407    1.276   .     A
C363   O405    1.270   .     A
C364   O406    1.284   .     A
C364   O408    1.296   .     A
C365   C1011   1.407   1_554 S
C365   H1017   1.084   1_554 S
C367   C374    1.452   .     S
C368   N395    1.157   .     T
C369   N396    1.157   .     T
C370   N397    1.158   .     T
C370   C569    1.450   .     S
C371   N398    1.157   .     T
C371   C382    1.452   .     S
C372   H390    1.111   .     S
C372   H392    1.110   .     S
C372   N399    1.447   .     S
C372   H391    1.111   .     S
C373   H388    1.080   .     S
C373   C992    1.386   1_554 S
C373   C1008   1.409   1_554 S
C374   N400    1.158   .     T
C375   N1031   1.157   .     S
C376   N402    1.158   .     T
C376   C383    1.454   .     S
C377   N403    1.446   .     S
C377   H385    1.111   .     S
C377   H394    1.111   .     S
C378   C379    1.419   .     A
C378   C1003   1.409   .     S
C378   C1010   1.421   .     S
C379   C383    1.422   .     A
C380   C1008   1.421   1_554 S
C380   C1011   1.419   1_554 S
C381   C382    1.410   .     A
C381   C1010   1.419   .     S
C381   C995    1.407   .     S
C382   C383    1.404   .     A
H384   C217    1.086   1_655 S
H386   C237    1.111   1_655 S
H387   C995    1.084   .     S
H389   N399    1.031   .     S
H393   N403    1.031   .     S
N401   C1005   1.157   1_554 S
O404   Zn420   1.930   .     S
O404   Zn419   1.940   .     S
O404   Zn418   1.935   .     S
O404   Zn417   1.976   .     S
O405   Zn418   1.932   .     S
O406   Zn420   1.944   .     S
O407   Zn419   1.929   .     S
O408   Zn417   1.920   .     S
O409   Zn417   1.935   .     S
O410   Zn420   1.946   .     S
O411   Zn418   1.926   .     S
O412   Zn419   1.939   .     S
O413   Zn420   1.929   .     S
O414   Zn417   1.921   .     S
O415   Zn418   1.956   .     S
O416   Zn419   1.941   .     S
C421   O483    1.269   .     A
C421   C427    1.439   .     S
C421   O481    1.265   .     A
C422   N469    1.430   .     S
C422   C436    1.406   .     A
C422   C450    1.420   .     A
C423   C435    1.392   .     A
C423   C436    1.405   .     A
C423   C438    1.445   .     S
C424   O484    1.288   .     A
C424   O482    1.288   .     A
C424   C426    1.462   .     S
C425   C434    1.487   .     S
C425   C449    1.428   .     A
C425   C437    1.425   .     A
C426   C497    1.344   .     S
C426   N543    1.431   .     S
C427   C566    1.344   1_455 S
C427   H594    1.086   1_455 S
C428   C431    1.458   .     S
C428   C9      1.353   1_565 S
C428   C19     1.454   1_565 S
C429   C430    1.431   .     S
C430   O479    1.277   .     A
C430   O485    1.271   .     A
C431   O486    1.273   .     A
C431   O480    1.267   .     A
C432   C437    1.400   .     A
C432   C445    1.448   .     S
C432   C1073   1.386   .     S
C433   C436    1.457   .     S
C433   O477    1.276   .     A
C433   O475    1.270   .     A
C434   O476    1.284   .     A
C434   O478    1.296   .     A
C435   C1081   1.407   1_554 S
C435   H1087   1.084   1_554 S
C437   C444    1.452   .     S
C438   N465    1.157   .     T
C439   N466    1.157   .     T
C440   N467    1.158   .     T
C440   C9      1.450   1_565 S
C441   N468    1.157   .     T
C441   C452    1.452   .     S
C442   H460    1.111   .     S
C442   H462    1.110   .     S
C442   N469    1.447   .     S
C442   H461    1.111   .     S
C443   H458    1.080   .     S
C443   C1062   1.386   1_554 S
C443   C1078   1.409   1_554 S
C444   N470    1.158   .     T
C445   N1101   1.157   .     S
C446   N472    1.158   .     T
C446   C453    1.454   .     S
C447   N473    1.446   .     S
C447   H455    1.111   .     S
C447   H464    1.111   .     S
C447   H596    1.111   1_455 S
C448   C449    1.419   .     A
C448   C1073   1.409   .     S
C448   C1080   1.421   .     S
C449   C453    1.422   .     A
C450   C1078   1.421   1_554 S
C450   C1081   1.419   1_554 S
C451   C452    1.410   .     A
C451   C1080   1.419   .     S
C451   C1065   1.407   .     S
C452   C453    1.404   .     A
H454   C497    1.086   .     S
H456   C517    1.111   .     S
H457   C1065   1.084   .     S
H459   N469    1.031   .     S
H463   N473    1.031   .     S
N471   C1075   1.157   1_554 S
N473   C566    1.431   1_455 S
O474   Zn490   1.930   .     S
O474   Zn489   1.940   .     S
O474   Zn488   1.935   .     S
O474   Zn487   1.976   .     S
O475   Zn488   1.932   .     S
O476   Zn490   1.944   .     S
O477   Zn489   1.929   .     S
O478   Zn487   1.920   .     S
O479   Zn487   1.935   .     S
O480   Zn490   1.946   .     S
O481   Zn488   1.926   .     S
O482   Zn489   1.939   .     S
O483   Zn490   1.929   .     S
O484   Zn487   1.921   .     S
O485   Zn488   1.956   .     S
O486   Zn489   1.941   .     S
C491   O553    1.269   .     A
C491   C497    1.439   .     S
C491   O551    1.265   .     A
C492   N539    1.430   .     S
C492   C506    1.406   .     A
C492   C520    1.420   .     A
C493   C505    1.392   .     A
C493   C506    1.405   .     A
C493   C508    1.445   .     S
C494   O554    1.288   .     A
C494   O552    1.288   .     A
C494   C496    1.462   .     S
C495   C504    1.487   .     S
C495   C519    1.428   .     A
C495   C507    1.425   .     A
C496   C567    1.344   .     S
C496   N613    1.431   .     S
C498   C501    1.458   .     S
C498   C79     1.353   1_565 S
C498   C89     1.454   1_565 S
C499   C500    1.431   .     S
C500   O549    1.277   .     A
C500   O555    1.271   .     A
C501   O556    1.273   .     A
C501   O550    1.267   .     A
C502   C507    1.400   .     A
C502   C515    1.448   .     S
C502   C1143   1.386   .     S
C503   C506    1.457   .     S
C503   O547    1.276   .     A
C503   O545    1.270   .     A
C504   O546    1.284   .     A
C504   O548    1.296   .     A
C505   C1151   1.407   1_554 S
C505   H1157   1.084   1_554 S
C507   C514    1.452   .     S
C508   N535    1.157   .     T
C509   N536    1.157   .     T
C510   N537    1.158   .     T
C510   C79     1.450   1_565 S
C511   N538    1.157   .     T
C511   C522    1.452   .     S
C512   H530    1.111   .     S
C512   H532    1.110   .     S
C512   N539    1.447   .     S
C512   H531    1.111   .     S
C513   H528    1.080   .     S
C513   C1132   1.386   1_554 S
C513   C1148   1.409   1_554 S
C514   N540    1.158   .     T
C515   N1171   1.157   .     S
C516   N542    1.158   .     T
C516   C523    1.454   .     S
C517   N543    1.446   .     S
C517   H525    1.111   .     S
C517   H534    1.111   .     S
C518   C519    1.419   .     A
C518   C1143   1.409   .     S
C518   C1150   1.421   .     S
C519   C523    1.422   .     A
C520   C1148   1.421   1_554 S
C520   C1151   1.419   1_554 S
C521   C522    1.410   .     A
C521   C1150   1.419   .     S
C521   C1135   1.407   .     S
C522   C523    1.404   .     A
H524   C567    1.086   .     S
H526   C587    1.111   .     S
H527   C1135   1.084   .     S
H529   N539    1.031   .     S
H533   N543    1.031   .     S
N541   C1145   1.157   1_554 S
O544   Zn560   1.930   .     S
O544   Zn559   1.940   .     S
O544   Zn558   1.935   .     S
O544   Zn557   1.976   .     S
O545   Zn558   1.932   .     S
O546   Zn560   1.944   .     S
O547   Zn559   1.929   .     S
O548   Zn557   1.920   .     S
O549   Zn557   1.935   .     S
O550   Zn560   1.946   .     S
O551   Zn558   1.926   .     S
O552   Zn559   1.939   .     S
O553   Zn560   1.929   .     S
O554   Zn557   1.921   .     S
O555   Zn558   1.956   .     S
O556   Zn559   1.941   .     S
C561   O623    1.269   .     A
C561   C567    1.439   .     S
C561   O621    1.265   .     A
C562   N609    1.430   .     S
C562   C576    1.406   .     A
C562   C590    1.420   .     A
C563   C575    1.392   .     A
C563   C576    1.405   .     A
C563   C578    1.445   .     S
C564   O624    1.288   .     A
C564   O622    1.288   .     A
C564   C566    1.462   .     S
C565   C574    1.487   .     S
C565   C589    1.428   .     A
C565   C577    1.425   .     A
C566   C427    1.344   1_655 S
C566   N473    1.431   1_655 S
C568   C571    1.458   .     S
C568   C149    1.353   1_565 S
C568   C159    1.454   1_565 S
C569   C570    1.431   .     S
C570   O619    1.277   .     A
C570   O625    1.271   .     A
C571   O626    1.273   .     A
C571   O620    1.267   .     A
C572   C577    1.400   .     A
C572   C585    1.448   .     S
C572   C1213   1.386   .     S
C573   C576    1.457   .     S
C573   O617    1.276   .     A
C573   O615    1.270   .     A
C574   O616    1.284   .     A
C574   O618    1.296   .     A
C575   C1221   1.407   1_554 S
C575   H1227   1.084   1_554 S
C577   C584    1.452   .     S
C578   N605    1.157   .     T
C579   N606    1.157   .     T
C580   N607    1.158   .     T
C580   C149    1.450   1_565 S
C581   N608    1.157   .     T
C581   C592    1.452   .     S
C582   H600    1.111   .     S
C582   H602    1.110   .     S
C582   N609    1.447   .     S
C582   H601    1.111   .     S
C583   H598    1.080   .     S
C583   C1202   1.386   1_554 S
C583   C1218   1.409   1_554 S
C584   N610    1.158   .     T
C585   N1241   1.157   .     S
C586   N612    1.158   .     T
C586   C593    1.454   .     S
C587   N613    1.446   .     S
C587   H595    1.111   .     S
C587   H604    1.111   .     S
C588   C589    1.419   .     A
C588   C1213   1.409   .     S
C588   C1220   1.421   .     S
C589   C593    1.422   .     A
C590   C1218   1.421   1_554 S
C590   C1221   1.419   1_554 S
C591   C592    1.410   .     A
C591   C1220   1.419   .     S
C591   C1205   1.407   .     S
C592   C593    1.404   .     A
H594   C427    1.086   1_655 S
H596   C447    1.111   1_655 S
H597   C1205   1.084   .     S
H599   N609    1.031   .     S
H603   N613    1.031   .     S
N611   C1215   1.157   1_554 S
O614   Zn630   1.930   .     S
O614   Zn629   1.940   .     S
O614   Zn628   1.935   .     S
O614   Zn627   1.976   .     S
O615   Zn628   1.932   .     S
O616   Zn630   1.944   .     S
O617   Zn629   1.929   .     S
O618   Zn627   1.920   .     S
O619   Zn627   1.935   .     S
O620   Zn630   1.946   .     S
O621   Zn628   1.926   .     S
O622   Zn629   1.939   .     S
O623   Zn630   1.929   .     S
O624   Zn627   1.921   .     S
O625   Zn628   1.956   .     S
O626   Zn629   1.941   .     S
C631   O693    1.269   .     A
C631   C637    1.439   .     S
C631   O691    1.265   .     A
C632   N679    1.430   .     S
C632   C646    1.406   .     A
C632   C660    1.420   .     A
C633   C645    1.392   .     A
C633   C646    1.405   .     A
C633   C648    1.445   .     S
C634   O694    1.288   .     A
C634   O692    1.288   .     A
C634   C636    1.462   .     S
C635   C644    1.487   .     S
C635   C659    1.428   .     A
C635   C647    1.425   .     A
C636   C707    1.344   .     S
C636   N753    1.431   .     S
C637   C776    1.344   1_455 S
C637   H804    1.086   1_455 S
C638   C641    1.458   .     S
C638   C849    1.353   .     S
C638   C859    1.454   .     S
C639   C640    1.431   .     S
C639   C1058   1.353   1_545 S
C639   C1070   1.450   1_545 S
C640   O689    1.277   .     A
C640   O695    1.271   .     A
C641   O696    1.273   .     A
C641   O690    1.267   .     A
C642   C647    1.400   .     A
C642   C655    1.448   .     S
C642   C23     1.386   1_556 S
C643   C646    1.457   .     S
C643   O687    1.276   .     A
C643   O685    1.270   .     A
C644   O686    1.284   .     A
C644   O688    1.296   .     A
C647   C654    1.452   .     S
C648   N675    1.157   .     T
C649   N676    1.157   .     T
C649   C1058   1.454   1_545 S
C650   N677    1.158   .     T
C650   C849    1.450   .     S
C651   N678    1.157   .     T
C651   C662    1.452   .     S
C652   H670    1.111   .     S
C652   H672    1.110   .     S
C652   N679    1.447   .     S
C652   H671    1.111   .     S
C653   H668    1.080   .     S
C654   N680    1.158   .     T
C655   N51     1.157   1_556 S
C656   N682    1.158   .     T
C656   C663    1.454   .     S
C657   N683    1.446   .     S
C657   H665    1.111   .     S
C657   H674    1.111   .     S
C657   H806    1.111   1_455 S
C658   C659    1.419   .     A
C658   C23     1.409   1_556 S
C658   C30     1.421   1_556 S
C659   C663    1.422   .     A
C661   C662    1.410   .     A
C661   C30     1.419   1_556 S
C661   C15     1.407   1_556 S
C662   C663    1.404   .     A
H664   C707    1.086   .     S
H666   C727    1.111   .     S
H667   C15     1.084   1_556 S
H669   N679    1.031   .     S
H673   N683    1.031   .     S
N683   C776    1.431   1_455 S
O684   Zn700   1.930   .     S
O684   Zn699   1.940   .     S
O684   Zn698   1.935   .     S
O684   Zn697   1.976   .     S
O685   Zn698   1.932   .     S
O686   Zn700   1.944   .     S
O687   Zn699   1.929   .     S
O688   Zn697   1.920   .     S
O689   Zn697   1.935   .     S
O690   Zn700   1.946   .     S
O691   Zn698   1.926   .     S
O692   Zn699   1.939   .     S
O693   Zn700   1.929   .     S
O694   Zn697   1.921   .     S
O695   Zn698   1.956   .     S
O696   Zn699   1.941   .     S
C701   O763    1.269   .     A
C701   C707    1.439   .     S
C701   O761    1.265   .     A
C702   N749    1.430   .     S
C702   C716    1.406   .     A
C702   C730    1.420   .     A
C703   C715    1.392   .     A
C703   C716    1.405   .     A
C703   C718    1.445   .     S
C704   O764    1.288   .     A
C704   O762    1.288   .     A
C704   C706    1.462   .     S
C705   C714    1.487   .     S
C705   C729    1.428   .     A
C705   C717    1.425   .     A
C706   C777    1.344   .     S
C706   N823    1.431   .     S
C708   C711    1.458   .     S
C708   C919    1.353   .     S
C708   C929    1.454   .     S
C709   C710    1.431   .     S
C709   C1128   1.353   1_545 S
C709   C1140   1.450   1_545 S
C710   O759    1.277   .     A
C710   O765    1.271   .     A
C711   O766    1.273   .     A
C711   O760    1.267   .     A
C712   C717    1.400   .     A
C712   C725    1.448   .     S
C712   C93     1.386   1_556 S
C713   C716    1.457   .     S
C713   O757    1.276   .     A
C713   O755    1.270   .     A
C714   O756    1.284   .     A
C714   O758    1.296   .     A
C717   C724    1.452   .     S
C718   N745    1.157   .     T
C719   N746    1.157   .     T
C719   C1128   1.454   1_545 S
C720   N747    1.158   .     T
C720   C919    1.450   .     S
C721   N748    1.157   .     T
C721   C732    1.452   .     S
C722   H740    1.111   .     S
C722   H742    1.110   .     S
C722   N749    1.447   .     S
C722   H741    1.111   .     S
C723   H738    1.080   .     S
C724   N750    1.158   .     T
C725   N121    1.157   1_556 S
C726   N752    1.158   .     T
C726   C733    1.454   .     S
C727   N753    1.446   .     S
C727   H735    1.111   .     S
C727   H744    1.111   .     S
C728   C729    1.419   .     A
C728   C93     1.409   1_556 S
C728   C100    1.421   1_556 S
C729   C733    1.422   .     A
C731   C732    1.410   .     A
C731   C100    1.419   1_556 S
C731   C85     1.407   1_556 S
C732   C733    1.404   .     A
H734   C777    1.086   .     S
H736   C797    1.111   .     S
H737   C85     1.084   1_556 S
H739   N749    1.031   .     S
H743   N753    1.031   .     S
O754   Zn770   1.930   .     S
O754   Zn769   1.940   .     S
O754   Zn768   1.935   .     S
O754   Zn767   1.976   .     S
O755   Zn768   1.932   .     S
O756   Zn770   1.944   .     S
O757   Zn769   1.929   .     S
O758   Zn767   1.920   .     S
O759   Zn767   1.935   .     S
O760   Zn770   1.946   .     S
O761   Zn768   1.926   .     S
O762   Zn769   1.939   .     S
O763   Zn770   1.929   .     S
O764   Zn767   1.921   .     S
O765   Zn768   1.956   .     S
O766   Zn769   1.941   .     S
C771   O833    1.269   .     A
C771   C777    1.439   .     S
C771   O831    1.265   .     A
C772   N819    1.430   .     S
C772   C786    1.406   .     A
C772   C800    1.420   .     A
C773   C785    1.392   .     A
C773   C786    1.405   .     A
C773   C788    1.445   .     S
C774   O834    1.288   .     A
C774   O832    1.288   .     A
C774   C776    1.462   .     S
C775   C784    1.487   .     S
C775   C799    1.428   .     A
C775   C787    1.425   .     A
C776   C637    1.344   1_655 S
C776   N683    1.431   1_655 S
C778   C781    1.458   .     S
C778   C989    1.353   .     S
C778   C999    1.454   .     S
C779   C780    1.431   .     S
C779   C1198   1.353   1_545 S
C779   C1210   1.450   1_545 S
C780   O829    1.277   .     A
C780   O835    1.271   .     A
C781   O836    1.273   .     A
C781   O830    1.267   .     A
C782   C787    1.400   .     A
C782   C795    1.448   .     S
C782   C163    1.386   1_556 S
C783   C786    1.457   .     S
C783   O827    1.276   .     A
C783   O825    1.270   .     A
C784   O826    1.284   .     A
C784   O828    1.296   .     A
C787   C794    1.452   .     S
C788   N815    1.157   .     T
C789   N816    1.157   .     T
C789   C1198   1.454   1_545 S
C790   N817    1.158   .     T
C790   C989    1.450   .     S
C791   N818    1.157   .     T
C791   C802    1.452   .     S
C792   H810    1.111   .     S
C792   H812    1.110   .     S
C792   N819    1.447   .     S
C792   H811    1.111   .     S
C793   H808    1.080   .     S
C794   N820    1.158   .     T
C795   N191    1.157   1_556 S
C796   N822    1.158   .     T
C796   C803    1.454   .     S
C797   N823    1.446   .     S
C797   H805    1.111   .     S
C797   H814    1.111   .     S
C798   C799    1.419   .     A
C798   C163    1.409   1_556 S
C798   C170    1.421   1_556 S
C799   C803    1.422   .     A
C801   C802    1.410   .     A
C801   C170    1.419   1_556 S
C801   C155    1.407   1_556 S
C802   C803    1.404   .     A
H804   C637    1.086   1_655 S
H806   C657    1.111   1_655 S
H807   C155    1.084   1_556 S
H809   N819    1.031   .     S
H813   N823    1.031   .     S
O824   Zn840   1.930   .     S
O824   Zn839   1.940   .     S
O824   Zn838   1.935   .     S
O824   Zn837   1.976   .     S
O825   Zn838   1.932   .     S
O826   Zn840   1.944   .     S
O827   Zn839   1.929   .     S
O828   Zn837   1.920   .     S
O829   Zn837   1.935   .     S
O830   Zn840   1.946   .     S
O831   Zn838   1.926   .     S
O832   Zn839   1.939   .     S
O833   Zn840   1.929   .     S
O834   Zn837   1.921   .     S
O835   Zn838   1.956   .     S
O836   Zn839   1.941   .     S
C841   O903    1.269   .     A
C841   C847    1.439   .     S
C841   O901    1.265   .     A
C842   N889    1.430   .     S
C842   C856    1.406   .     A
C842   C870    1.420   .     A
C843   C855    1.392   .     A
C843   C856    1.405   .     A
C843   C858    1.445   .     S
C844   O904    1.288   .     A
C844   O902    1.288   .     A
C844   C846    1.462   .     S
C845   C854    1.487   .     S
C845   C869    1.428   .     A
C845   C857    1.425   .     A
C846   C917    1.344   .     S
C846   N963    1.431   .     S
C847   C986    1.344   1_455 S
C847   H1014   1.086   1_455 S
C848   C851    1.458   .     S
C848   C1059   1.353   .     S
C848   C1069   1.454   .     S
C849   C850    1.431   .     S
C850   O899    1.277   .     A
C850   O905    1.271   .     A
C851   O906    1.273   .     A
C851   O900    1.267   .     A
C852   C857    1.400   .     A
C852   C865    1.448   .     S
C852   C233    1.386   1_556 S
C853   C856    1.457   .     S
C853   O897    1.276   .     A
C853   O895    1.270   .     A
C854   O896    1.284   .     A
C854   O898    1.296   .     A
C857   C864    1.452   .     S
C858   N885    1.157   .     T
C859   N886    1.157   .     T
C860   N887    1.158   .     T
C860   C1059   1.450   .     S
C861   N888    1.157   .     T
C861   C872    1.452   .     S
C862   H880    1.111   .     S
C862   H882    1.110   .     S
C862   N889    1.447   .     S
C862   H881    1.111   .     S
C863   H878    1.080   .     S
C864   N890    1.158   .     T
C865   N261    1.157   1_556 S
C866   N892    1.158   .     T
C866   C873    1.454   .     S
C867   N893    1.446   .     S
C867   H875    1.111   .     S
C867   H884    1.111   .     S
C867   H1016   1.111   1_455 S
C868   C869    1.419   .     A
C868   C233    1.409   1_556 S
C868   C240    1.421   1_556 S
C869   C873    1.422   .     A
C871   C872    1.410   .     A
C871   C240    1.419   1_556 S
C871   C225    1.407   1_556 S
C872   C873    1.404   .     A
H874   C917    1.086   .     S
H876   C937    1.111   .     S
H877   C225    1.084   1_556 S
H879   N889    1.031   .     S
H883   N893    1.031   .     S
N893   C986    1.431   1_455 S
O894   Zn910   1.930   .     S
O894   Zn909   1.940   .     S
O894   Zn908   1.935   .     S
O894   Zn907   1.976   .     S
O895   Zn908   1.932   .     S
O896   Zn910   1.944   .     S
O897   Zn909   1.929   .     S
O898   Zn907   1.920   .     S
O899   Zn907   1.935   .     S
O900   Zn910   1.946   .     S
O901   Zn908   1.926   .     S
O902   Zn909   1.939   .     S
O903   Zn910   1.929   .     S
O904   Zn907   1.921   .     S
O905   Zn908   1.956   .     S
O906   Zn909   1.941   .     S
C911   O973    1.269   .     A
C911   C917    1.439   .     S
C911   O971    1.265   .     A
C912   N959    1.430   .     S
C912   C926    1.406   .     A
C912   C940    1.420   .     A
C913   C925    1.392   .     A
C913   C926    1.405   .     A
C913   C928    1.445   .     S
C914   O974    1.288   .     A
C914   O972    1.288   .     A
C914   C916    1.462   .     S
C915   C924    1.487   .     S
C915   C939    1.428   .     A
C915   C927    1.425   .     A
C916   C987    1.344   .     S
C916   N1033   1.431   .     S
C918   C921    1.458   .     S
C918   C1129   1.353   .     S
C918   C1139   1.454   .     S
C919   C920    1.431   .     S
C920   O969    1.277   .     A
C920   O975    1.271   .     A
C921   O976    1.273   .     A
C921   O970    1.267   .     A
C922   C927    1.400   .     A
C922   C935    1.448   .     S
C922   C303    1.386   1_556 S
C923   C926    1.457   .     S
C923   O967    1.276   .     A
C923   O965    1.270   .     A
C924   O966    1.284   .     A
C924   O968    1.296   .     A
C927   C934    1.452   .     S
C928   N955    1.157   .     T
C929   N956    1.157   .     T
C930   N957    1.158   .     T
C930   C1129   1.450   .     S
C931   N958    1.157   .     T
C931   C942    1.452   .     S
C932   H950    1.111   .     S
C932   H952    1.110   .     S
C932   N959    1.447   .     S
C932   H951    1.111   .     S
C933   H948    1.080   .     S
C934   N960    1.158   .     T
C935   N331    1.157   1_556 S
C936   N962    1.158   .     T
C936   C943    1.454   .     S
C937   N963    1.446   .     S
C937   H945    1.111   .     S
C937   H954    1.111   .     S
C938   C939    1.419   .     A
C938   C303    1.409   1_556 S
C938   C310    1.421   1_556 S
C939   C943    1.422   .     A
C941   C942    1.410   .     A
C941   C310    1.419   1_556 S
C941   C295    1.407   1_556 S
C942   C943    1.404   .     A
H944   C987    1.086   .     S
H946   C1007   1.111   .     S
H947   C295    1.084   1_556 S
H949   N959    1.031   .     S
H953   N963    1.031   .     S
O964   Zn980   1.930   .     S
O964   Zn979   1.940   .     S
O964   Zn978   1.935   .     S
O964   Zn977   1.976   .     S
O965   Zn978   1.932   .     S
O966   Zn980   1.944   .     S
O967   Zn979   1.929   .     S
O968   Zn977   1.920   .     S
O969   Zn977   1.935   .     S
O970   Zn980   1.946   .     S
O971   Zn978   1.926   .     S
O972   Zn979   1.939   .     S
O973   Zn980   1.929   .     S
O974   Zn977   1.921   .     S
O975   Zn978   1.956   .     S
O976   Zn979   1.941   .     S
C981   O1043   1.269   .     A
C981   C987    1.439   .     S
C981   O1041   1.265   .     A
C982   N1029   1.430   .     S
C982   C996    1.406   .     A
C982   C1010   1.420   .     A
C983   C995    1.392   .     A
C983   C996    1.405   .     A
C983   C998    1.445   .     S
C984   O1044   1.288   .     A
C984   O1042   1.288   .     A
C984   C986    1.462   .     S
C985   C994    1.487   .     S
C985   C1009   1.428   .     A
C985   C997    1.425   .     A
C986   C847    1.344   1_655 S
C986   N893    1.431   1_655 S
C988   C991    1.458   .     S
C988   C1199   1.353   .     S
C988   C1209   1.454   .     S
C989   C990    1.431   .     S
C990   O1039   1.277   .     A
C990   O1045   1.271   .     A
C991   O1046   1.273   .     A
C991   O1040   1.267   .     A
C992   C997    1.400   .     A
C992   C1005   1.448   .     S
C992   C373    1.386   1_556 S
C993   C996    1.457   .     S
C993   O1037   1.276   .     A
C993   O1035   1.270   .     A
C994   O1036   1.284   .     A
C994   O1038   1.296   .     A
C997   C1004   1.452   .     S
C998   N1025   1.157   .     T
C999   N1026   1.157   .     T
C1000  N1027   1.158   .     T
C1000  C1199   1.450   .     S
C1001  N1028   1.157   .     T
C1001  C1012   1.452   .     S
C1002  H1020   1.111   .     S
C1002  H1022   1.110   .     S
C1002  N1029   1.447   .     S
C1002  H1021   1.111   .     S
C1003  H1018   1.080   .     S
C1004  N1030   1.158   .     T
C1005  N401    1.157   1_556 S
C1006  N1032   1.158   .     T
C1006  C1013   1.454   .     S
C1007  N1033   1.446   .     S
C1007  H1015   1.111   .     S
C1007  H1024   1.111   .     S
C1008  C1009   1.419   .     A
C1008  C373    1.409   1_556 S
C1008  C380    1.421   1_556 S
C1009  C1013   1.422   .     A
C1011  C1012   1.410   .     A
C1011  C380    1.419   1_556 S
C1011  C365    1.407   1_556 S
C1012  C1013   1.404   .     A
H1014  C847    1.086   1_655 S
H1016  C867    1.111   1_655 S
H1017  C365    1.084   1_556 S
H1019  N1029   1.031   .     S
H1023  N1033   1.031   .     S
O1034  Zn1050  1.930   .     S
O1034  Zn1049  1.940   .     S
O1034  Zn1048  1.935   .     S
O1034  Zn1047  1.976   .     S
O1035  Zn1048  1.932   .     S
O1036  Zn1050  1.944   .     S
O1037  Zn1049  1.929   .     S
O1038  Zn1047  1.920   .     S
O1039  Zn1047  1.935   .     S
O1040  Zn1050  1.946   .     S
O1041  Zn1048  1.926   .     S
O1042  Zn1049  1.939   .     S
O1043  Zn1050  1.929   .     S
O1044  Zn1047  1.921   .     S
O1045  Zn1048  1.956   .     S
O1046  Zn1049  1.941   .     S
C1051  O1113   1.269   .     A
C1051  C1057   1.439   .     S
C1051  O1111   1.265   .     A
C1052  N1099   1.430   .     S
C1052  C1066   1.406   .     A
C1052  C1080   1.420   .     A
C1053  C1065   1.392   .     A
C1053  C1066   1.405   .     A
C1053  C1068   1.445   .     S
C1054  O1114   1.288   .     A
C1054  O1112   1.288   .     A
C1054  C1056   1.462   .     S
C1055  C1064   1.487   .     S
C1055  C1079   1.428   .     A
C1055  C1067   1.425   .     A
C1056  C1127   1.344   .     S
C1056  N1173   1.431   .     S
C1057  C1196   1.344   1_455 S
C1057  H1224   1.086   1_455 S
C1058  C1061   1.458   .     S
C1058  C639    1.353   1_565 S
C1058  C649    1.454   1_565 S
C1059  C1060   1.431   .     S
C1060  O1109   1.277   .     A
C1060  O1115   1.271   .     A
C1061  O1116   1.273   .     A
C1061  O1110   1.267   .     A
C1062  C1067   1.400   .     A
C1062  C1075   1.448   .     S
C1062  C443    1.386   1_556 S
C1063  C1066   1.457   .     S
C1063  O1107   1.276   .     A
C1063  O1105   1.270   .     A
C1064  O1106   1.284   .     A
C1064  O1108   1.296   .     A
C1067  C1074   1.452   .     S
C1068  N1095   1.157   .     T
C1069  N1096   1.157   .     T
C1070  N1097   1.158   .     T
C1070  C639    1.450   1_565 S
C1071  N1098   1.157   .     T
C1071  C1082   1.452   .     S
C1072  H1090   1.111   .     S
C1072  H1092   1.110   .     S
C1072  N1099   1.447   .     S
C1072  H1091   1.111   .     S
C1073  H1088   1.080   .     S
C1074  N1100   1.158   .     T
C1075  N471    1.157   1_556 S
C1076  N1102   1.158   .     T
C1076  C1083   1.454   .     S
C1077  N1103   1.446   .     S
C1077  H1085   1.111   .     S
C1077  H1094   1.111   .     S
C1077  H1226   1.111   1_455 S
C1078  C1079   1.419   .     A
C1078  C443    1.409   1_556 S
C1078  C450    1.421   1_556 S
C1079  C1083   1.422   .     A
C1081  C1082   1.410   .     A
C1081  C450    1.419   1_556 S
C1081  C435    1.407   1_556 S
C1082  C1083   1.404   .     A
H1084  C1127   1.086   .     S
H1086  C1147   1.111   .     S
H1087  C435    1.084   1_556 S
H1089  N1099   1.031   .     S
H1093  N1103   1.031   .     S
N1103  C1196   1.431   1_455 S
O1104  Zn1120  1.930   .     S
O1104  Zn1119  1.940   .     S
O1104  Zn1118  1.935   .     S
O1104  Zn1117  1.976   .     S
O1105  Zn1118  1.932   .     S
O1106  Zn1120  1.944   .     S
O1107  Zn1119  1.929   .     S
O1108  Zn1117  1.920   .     S
O1109  Zn1117  1.935   .     S
O1110  Zn1120  1.946   .     S
O1111  Zn1118  1.926   .     S
O1112  Zn1119  1.939   .     S
O1113  Zn1120  1.929   .     S
O1114  Zn1117  1.921   .     S
O1115  Zn1118  1.956   .     S
O1116  Zn1119  1.941   .     S
C1121  O1183   1.269   .     A
C1121  C1127   1.439   .     S
C1121  O1181   1.265   .     A
C1122  N1169   1.430   .     S
C1122  C1136   1.406   .     A
C1122  C1150   1.420   .     A
C1123  C1135   1.392   .     A
C1123  C1136   1.405   .     A
C1123  C1138   1.445   .     S
C1124  O1184   1.288   .     A
C1124  O1182   1.288   .     A
C1124  C1126   1.462   .     S
C1125  C1134   1.487   .     S
C1125  C1149   1.428   .     A
C1125  C1137   1.425   .     A
C1126  C1197   1.344   .     S
C1126  N1243   1.431   .     S
C1128  C1131   1.458   .     S
C1128  C709    1.353   1_565 S
C1128  C719    1.454   1_565 S
C1129  C1130   1.431   .     S
C1130  O1179   1.277   .     A
C1130  O1185   1.271   .     A
C1131  O1186   1.273   .     A
C1131  O1180   1.267   .     A
C1132  C1137   1.400   .     A
C1132  C1145   1.448   .     S
C1132  C513    1.386   1_556 S
C1133  C1136   1.457   .     S
C1133  O1177   1.276   .     A
C1133  O1175   1.270   .     A
C1134  O1176   1.284   .     A
C1134  O1178   1.296   .     A
C1137  C1144   1.452   .     S
C1138  N1165   1.157   .     T
C1139  N1166   1.157   .     T
C1140  N1167   1.158   .     T
C1140  C709    1.450   1_565 S
C1141  N1168   1.157   .     T
C1141  C1152   1.452   .     S
C1142  H1160   1.111   .     S
C1142  H1162   1.110   .     S
C1142  N1169   1.447   .     S
C1142  H1161   1.111   .     S
C1143  H1158   1.080   .     S
C1144  N1170   1.158   .     T
C1145  N541    1.157   1_556 S
C1146  N1172   1.158   .     T
C1146  C1153   1.454   .     S
C1147  N1173   1.446   .     S
C1147  H1155   1.111   .     S
C1147  H1164   1.111   .     S
C1148  C1149   1.419   .     A
C1148  C513    1.409   1_556 S
C1148  C520    1.421   1_556 S
C1149  C1153   1.422   .     A
C1151  C1152   1.410   .     A
C1151  C520    1.419   1_556 S
C1151  C505    1.407   1_556 S
C1152  C1153   1.404   .     A
H1154  C1197   1.086   .     S
H1156  C1217   1.111   .     S
H1157  C505    1.084   1_556 S
H1159  N1169   1.031   .     S
H1163  N1173   1.031   .     S
O1174  Zn1190  1.930   .     S
O1174  Zn1189  1.940   .     S
O1174  Zn1188  1.935   .     S
O1174  Zn1187  1.976   .     S
O1175  Zn1188  1.932   .     S
O1176  Zn1190  1.944   .     S
O1177  Zn1189  1.929   .     S
O1178  Zn1187  1.920   .     S
O1179  Zn1187  1.935   .     S
O1180  Zn1190  1.946   .     S
O1181  Zn1188  1.926   .     S
O1182  Zn1189  1.939   .     S
O1183  Zn1190  1.929   .     S
O1184  Zn1187  1.921   .     S
O1185  Zn1188  1.956   .     S
O1186  Zn1189  1.941   .     S
C1191  O1253   1.269   .     A
C1191  C1197   1.439   .     S
C1191  O1251   1.265   .     A
C1192  N1239   1.430   .     S
C1192  C1206   1.406   .     A
C1192  C1220   1.420   .     A
C1193  C1205   1.392   .     A
C1193  C1206   1.405   .     A
C1193  C1208   1.445   .     S
C1194  O1254   1.288   .     A
C1194  O1252   1.288   .     A
C1194  C1196   1.462   .     S
C1195  C1204   1.487   .     S
C1195  C1219   1.428   .     A
C1195  C1207   1.425   .     A
C1196  C1057   1.344   1_655 S
C1196  N1103   1.431   1_655 S
C1198  C1201   1.458   .     S
C1198  C779    1.353   1_565 S
C1198  C789    1.454   1_565 S
C1199  C1200   1.431   .     S
C1200  O1249   1.277   .     A
C1200  O1255   1.271   .     A
C1201  O1256   1.273   .     A
C1201  O1250   1.267   .     A
C1202  C1207   1.400   .     A
C1202  C1215   1.448   .     S
C1202  C583    1.386   1_556 S
C1203  C1206   1.457   .     S
C1203  O1247   1.276   .     A
C1203  O1245   1.270   .     A
C1204  O1246   1.284   .     A
C1204  O1248   1.296   .     A
C1207  C1214   1.452   .     S
C1208  N1235   1.157   .     T
C1209  N1236   1.157   .     T
C1210  N1237   1.158   .     T
C1210  C779    1.450   1_565 S
C1211  N1238   1.157   .     T
C1211  C1222   1.452   .     S
C1212  H1230   1.111   .     S
C1212  H1232   1.110   .     S
C1212  N1239   1.447   .     S
C1212  H1231   1.111   .     S
C1213  H1228   1.080   .     S
C1214  N1240   1.158   .     T
C1215  N611    1.157   1_556 S
C1216  N1242   1.158   .     T
C1216  C1223   1.454   .     S
C1217  N1243   1.446   .     S
C1217  H1225   1.111   .     S
C1217  H1234   1.111   .     S
C1218  C1219   1.419   .     A
C1218  C583    1.409   1_556 S
C1218  C590    1.421   1_556 S
C1219  C1223   1.422   .     A
C1221  C1222   1.410   .     A
C1221  C590    1.419   1_556 S
C1221  C575    1.407   1_556 S
C1222  C1223   1.404   .     A
H1224  C1057   1.086   1_655 S
H1226  C1077   1.111   1_655 S
H1227  C575    1.084   1_556 S
H1229  N1239   1.031   .     S
H1233  N1243   1.031   .     S
O1244  Zn1260  1.930   .     S
O1244  Zn1259  1.940   .     S
O1244  Zn1258  1.935   .     S
O1244  Zn1257  1.976   .     S
O1245  Zn1258  1.932   .     S
O1246  Zn1260  1.944   .     S
O1247  Zn1259  1.929   .     S
O1248  Zn1257  1.920   .     S
O1249  Zn1257  1.935   .     S
O1250  Zn1260  1.946   .     S
O1251  Zn1258  1.926   .     S
O1252  Zn1259  1.939   .     S
O1253  Zn1260  1.929   .     S
O1254  Zn1257  1.921   .     S
O1255  Zn1258  1.956   .     S
O1256  Zn1259  1.941   .     S
