data_str_m2_o1_o17_pcu_sym.168
_audit_creation_date              2020-01-03
_audit_creation_method            'Materials Studio'
_symmetry_space_group_name_H-M    'P1'
_symmetry_Int_Tables_number       1
_symmetry_cell_setting            triclinic
loop_
_symmetry_equiv_pos_as_xyz
  x,y,z
_cell_length_a                    32.5276
_cell_length_b                    28.4826
_cell_length_c                    30.3026
_cell_angle_alpha                 89.9731
_cell_angle_beta                  90.0803
_cell_angle_gamma                 90.1105
loop_
_atom_site_label
_atom_site_type_symbol
_atom_site_fract_x
_atom_site_fract_y
_atom_site_fract_z
_atom_site_U_iso_or_equiv
_atom_site_adp_type
_atom_site_occupancy
C1     C     0.08742   0.16664   0.24941   0.00000  Uiso   1.00
C2     C     0.24592   0.16670   0.25059   0.00000  Uiso   1.00
C3     C     0.15000   0.08277   0.02200   0.00000  Uiso   1.00
C4     C     0.18334   0.25056   0.47800   0.00000  Uiso   1.00
C5     C     0.02164   0.13322   0.27527   0.00000  Uiso   1.00
C6     C     0.31169   0.20012   0.22473   0.00000  Uiso   1.00
C7     C     0.31214   0.13326   0.27575   0.00000  Uiso   1.00
C8     C     0.02119   0.20007   0.22426   0.00000  Uiso   1.00
C9     C     0.29051   0.16677   0.25053   0.00000  Uiso   1.00
C10    C     0.04283   0.16657   0.24948   0.00000  Uiso   1.00
C11    C     0.19151   0.02490   0.22188   0.00000  Uiso   1.00
C12    C     0.14183   0.30843   0.27812   0.00000  Uiso   1.00
C13    C     0.14182   0.02476   0.27811   0.00000  Uiso   1.00
C14    C     0.19151   0.30857   0.22189   0.00000  Uiso   1.00
C15    C     0.16616   0.16664   0.16425   0.00000  Uiso   1.00
C16    C     0.16718   0.16669   0.33575   0.00000  Uiso   1.00
C17    C     0.17900   0.20827   0.40750   0.00000  Uiso   1.00
C18    C     0.15433   0.12507   0.09250   0.00000  Uiso   1.00
C19    C     0.16877   0.16677   0.38422   0.00000  Uiso   1.00
C20    C     0.16456   0.16657   0.11578   0.00000  Uiso   1.00
C21    C     0.16013   0.12517   0.40740   0.00000  Uiso   1.00
C22    C     0.17320   0.20817   0.09260   0.00000  Uiso   1.00
C23    C     0.15979   0.12494   0.45335   0.00000  Uiso   1.00
C24    C     0.17355   0.20840   0.04665   0.00000  Uiso   1.00
C25    C     0.16745   0.16681   0.47677   0.00000  Uiso   1.00
C26    C     0.16589   0.16652   0.02323   0.00000  Uiso   1.00
C27    C     0.17666   0.20890   0.45388   0.00000  Uiso   1.00
C28    C     0.15667   0.12444   0.04612   0.00000  Uiso   1.00
C29    C     0.15141   0.08329   0.47621   0.00000  Uiso   1.00
C30    C     0.18193   0.25004   0.02379   0.00000  Uiso   1.00
Cu31   Cu    0.16667   0.21355   0.25000   0.00000  Uiso   1.00
Cu32   Cu    0.16667   0.11978   0.25000   0.00000  Uiso   1.00
H33    H     0.14587   0.05072   0.45870   0.00000  Uiso   1.00
H34    H     0.18747   0.28261   0.04130   0.00000  Uiso   1.00
H35    H     0.21139   0.04374   0.19938   0.00000  Uiso   1.00
H36    H     0.12195   0.28960   0.30062   0.00000  Uiso   1.00
H37    H     0.12193   0.04348   0.30058   0.00000  Uiso   1.00
H38    H     0.21140   0.28986   0.19942   0.00000  Uiso   1.00
N39    N     0.16667   0.28402   0.25000   0.00000  Uiso   1.00
N40    N     0.16667   0.04931   0.25000   0.00000  Uiso   1.00
O41    O     0.10655   0.20625   0.24999   0.00000  Uiso   1.00
O42    O     0.22679   0.12709   0.25001   0.00000  Uiso   1.00
O43    O     0.22679   0.20625   0.25000   0.00000  Uiso   1.00
O44    O     0.10655   0.12709   0.24999   0.00000  Uiso   1.00
O45    O     0.16666   0.20627   0.18513   0.00000  Uiso   1.00
O46    O     0.16668   0.12707   0.31487   0.00000  Uiso   1.00
O47    O     0.16668   0.20627   0.31487   0.00000  Uiso   1.00
O48    O     0.16666   0.12707   0.18513   0.00000  Uiso   1.00
O49    O     0.18989   0.24868   0.38488   0.00000  Uiso   1.00
C50    C     0.23272   0.24794   0.37749   0.00000  Uiso   1.00
H51    H     0.24163   0.28098   0.36059   0.00000  Uiso   1.00
H52    H     0.24162   0.21834   0.35562   0.00000  Uiso   1.00
H53    H     0.25022   0.24614   0.40905   0.00000  Uiso   1.00
O54    O     0.14345   0.08466   0.11512   0.00000  Uiso   1.00
C55    C     0.10061   0.08539   0.12251   0.00000  Uiso   1.00
H56    H     0.09171   0.11500   0.14439   0.00000  Uiso   1.00
H57    H     0.09170   0.05236   0.13941   0.00000  Uiso   1.00
H58    H     0.08312   0.08720   0.09095   0.00000  Uiso   1.00
F59    F     0.15144   0.08471   0.38540   0.00000  Uiso   1.00
F60    F     0.18190   0.24862   0.11460   0.00000  Uiso   1.00
F61    F     0.14250   0.04108   0.04222   0.00000  Uiso   1.00
F62    F     0.19084   0.29226   0.45778   0.00000  Uiso   1.00
O63    O     0.04247   0.09852   0.29824   0.00000  Uiso   1.00
C64    C     0.05503   0.11636   0.33958   0.00000  Uiso   1.00
H65    H     0.07450   0.14830   0.33634   0.00000  Uiso   1.00
H66    H     0.07369   0.08921   0.35645   0.00000  Uiso   1.00
H67    H     0.02828   0.12387   0.36106   0.00000  Uiso   1.00
O68    O     0.29087   0.23480   0.20176   0.00000  Uiso   1.00
C69    C     0.27831   0.21695   0.16042   0.00000  Uiso   1.00
H70    H     0.25967   0.24411   0.14352   0.00000  Uiso   1.00
H71    H     0.25882   0.18503   0.16366   0.00000  Uiso   1.00
H72    H     0.30506   0.20942   0.13895   0.00000  Uiso   1.00
O73    O     0.29197   0.09927   0.30029   0.00000  Uiso   1.00
C74    C     0.27779   0.11890   0.34032   0.00000  Uiso   1.00
H75    H     0.28078   0.09213   0.36673   0.00000  Uiso   1.00
H76    H     0.24484   0.12764   0.33732   0.00000  Uiso   1.00
H77    H     0.29486   0.15084   0.35132   0.00000  Uiso   1.00
O78    O     0.04136   0.23407   0.19973   0.00000  Uiso   1.00
C79    C     0.05553   0.21445   0.15968   0.00000  Uiso   1.00
H80    H     0.08850   0.20579   0.16266   0.00000  Uiso   1.00
H81    H     0.05248   0.24120   0.13327   0.00000  Uiso   1.00
H82    H     0.03852   0.18247   0.14871   0.00000  Uiso   1.00
C83    C     0.42075   0.16664   0.24941   0.00000  Uiso   1.00
C84    C     0.57925   0.16670   0.25059   0.00000  Uiso   1.00
C85    C     0.48333   0.08277   0.02200   0.00000  Uiso   1.00
C86    C     0.51667   0.25056   0.47800   0.00000  Uiso   1.00
C87    C     0.35497   0.13322   0.27527   0.00000  Uiso   1.00
C88    C     0.64503   0.20012   0.22473   0.00000  Uiso   1.00
C89    C     0.64547   0.13326   0.27575   0.00000  Uiso   1.00
C90    C     0.35453   0.20007   0.22426   0.00000  Uiso   1.00
C91    C     0.62384   0.16677   0.25053   0.00000  Uiso   1.00
C92    C     0.37616   0.16657   0.24948   0.00000  Uiso   1.00
C93    C     0.52484   0.02490   0.22188   0.00000  Uiso   1.00
C94    C     0.47516   0.30843   0.27812   0.00000  Uiso   1.00
C95    C     0.47515   0.02476   0.27811   0.00000  Uiso   1.00
C96    C     0.52485   0.30857   0.22189   0.00000  Uiso   1.00
C97    C     0.49949   0.16664   0.16425   0.00000  Uiso   1.00
C98    C     0.50051   0.16669   0.33575   0.00000  Uiso   1.00
C99    C     0.51233   0.20827   0.40750   0.00000  Uiso   1.00
C100   C     0.48767   0.12507   0.09250   0.00000  Uiso   1.00
C101   C     0.50211   0.16677   0.38422   0.00000  Uiso   1.00
C102   C     0.49789   0.16657   0.11578   0.00000  Uiso   1.00
C103   C     0.49347   0.12517   0.40740   0.00000  Uiso   1.00
C104   C     0.50654   0.20817   0.09260   0.00000  Uiso   1.00
C105   C     0.49312   0.12494   0.45335   0.00000  Uiso   1.00
C106   C     0.50688   0.20840   0.04665   0.00000  Uiso   1.00
C107   C     0.50078   0.16681   0.47677   0.00000  Uiso   1.00
C108   C     0.49922   0.16652   0.02323   0.00000  Uiso   1.00
C109   C     0.51000   0.20890   0.45388   0.00000  Uiso   1.00
C110   C     0.49001   0.12444   0.04612   0.00000  Uiso   1.00
C111   C     0.48474   0.08329   0.47621   0.00000  Uiso   1.00
C112   C     0.51526   0.25004   0.02379   0.00000  Uiso   1.00
Cu113  Cu    0.50000   0.21355   0.25000   0.00000  Uiso   1.00
Cu114  Cu    0.50000   0.11978   0.25000   0.00000  Uiso   1.00
H115   H     0.47920   0.05072   0.45870   0.00000  Uiso   1.00
H116   H     0.52080   0.28261   0.04130   0.00000  Uiso   1.00
H117   H     0.54472   0.04374   0.19938   0.00000  Uiso   1.00
H118   H     0.45528   0.28960   0.30062   0.00000  Uiso   1.00
H119   H     0.45527   0.04348   0.30058   0.00000  Uiso   1.00
H120   H     0.54473   0.28986   0.19942   0.00000  Uiso   1.00
N121   N     0.50000   0.28402   0.25000   0.00000  Uiso   1.00
N122   N     0.50000   0.04931   0.25000   0.00000  Uiso   1.00
O123   O     0.43988   0.20625   0.24999   0.00000  Uiso   1.00
O124   O     0.56012   0.12709   0.25001   0.00000  Uiso   1.00
O125   O     0.56012   0.20625   0.25000   0.00000  Uiso   1.00
O126   O     0.43988   0.12709   0.24999   0.00000  Uiso   1.00
O127   O     0.49999   0.20627   0.18513   0.00000  Uiso   1.00
O128   O     0.50001   0.12707   0.31487   0.00000  Uiso   1.00
O129   O     0.50001   0.20627   0.31487   0.00000  Uiso   1.00
O130   O     0.49999   0.12707   0.18513   0.00000  Uiso   1.00
O131   O     0.52322   0.24868   0.38488   0.00000  Uiso   1.00
C132   C     0.56606   0.24794   0.37749   0.00000  Uiso   1.00
H133   H     0.57496   0.28098   0.36059   0.00000  Uiso   1.00
H134   H     0.57495   0.21834   0.35562   0.00000  Uiso   1.00
H135   H     0.58355   0.24614   0.40905   0.00000  Uiso   1.00
O136   O     0.47678   0.08466   0.11512   0.00000  Uiso   1.00
C137   C     0.43394   0.08539   0.12251   0.00000  Uiso   1.00
H138   H     0.42505   0.11500   0.14439   0.00000  Uiso   1.00
H139   H     0.42504   0.05236   0.13941   0.00000  Uiso   1.00
H140   H     0.41645   0.08720   0.09095   0.00000  Uiso   1.00
F141   F     0.48478   0.08471   0.38540   0.00000  Uiso   1.00
F142   F     0.51523   0.24862   0.11460   0.00000  Uiso   1.00
F143   F     0.47583   0.04108   0.04222   0.00000  Uiso   1.00
F144   F     0.52417   0.29226   0.45778   0.00000  Uiso   1.00
O145   O     0.37580   0.09852   0.29824   0.00000  Uiso   1.00
C146   C     0.38836   0.11636   0.33958   0.00000  Uiso   1.00
H147   H     0.40784   0.14830   0.33634   0.00000  Uiso   1.00
H148   H     0.40702   0.08921   0.35645   0.00000  Uiso   1.00
H149   H     0.36162   0.12387   0.36106   0.00000  Uiso   1.00
O150   O     0.62420   0.23480   0.20176   0.00000  Uiso   1.00
C151   C     0.61165   0.21695   0.16042   0.00000  Uiso   1.00
H152   H     0.59301   0.24411   0.14352   0.00000  Uiso   1.00
H153   H     0.59215   0.18503   0.16366   0.00000  Uiso   1.00
H154   H     0.63839   0.20942   0.13895   0.00000  Uiso   1.00
O155   O     0.62531   0.09927   0.30029   0.00000  Uiso   1.00
C156   C     0.61113   0.11890   0.34032   0.00000  Uiso   1.00
H157   H     0.61411   0.09213   0.36673   0.00000  Uiso   1.00
H158   H     0.57817   0.12764   0.33732   0.00000  Uiso   1.00
H159   H     0.62819   0.15084   0.35132   0.00000  Uiso   1.00
O160   O     0.37469   0.23407   0.19973   0.00000  Uiso   1.00
C161   C     0.38887   0.21445   0.15968   0.00000  Uiso   1.00
H162   H     0.42184   0.20579   0.16266   0.00000  Uiso   1.00
H163   H     0.38582   0.24120   0.13327   0.00000  Uiso   1.00
H164   H     0.37185   0.18247   0.14871   0.00000  Uiso   1.00
C165   C     0.75408   0.16664   0.24941   0.00000  Uiso   1.00
C166   C     0.91258   0.16670   0.25059   0.00000  Uiso   1.00
C167   C     0.81666   0.08277   0.02200   0.00000  Uiso   1.00
C168   C     0.85000   0.25056   0.47800   0.00000  Uiso   1.00
C169   C     0.68830   0.13322   0.27527   0.00000  Uiso   1.00
C170   C     0.97836   0.20012   0.22473   0.00000  Uiso   1.00
C171   C     0.97881   0.13326   0.27575   0.00000  Uiso   1.00
C172   C     0.68786   0.20007   0.22426   0.00000  Uiso   1.00
C173   C     0.95717   0.16677   0.25053   0.00000  Uiso   1.00
C174   C     0.70949   0.16657   0.24948   0.00000  Uiso   1.00
C175   C     0.85817   0.02490   0.22188   0.00000  Uiso   1.00
C176   C     0.80849   0.30843   0.27812   0.00000  Uiso   1.00
C177   C     0.80849   0.02476   0.27811   0.00000  Uiso   1.00
C178   C     0.85818   0.30857   0.22189   0.00000  Uiso   1.00
C179   C     0.83282   0.16664   0.16425   0.00000  Uiso   1.00
C180   C     0.83384   0.16669   0.33575   0.00000  Uiso   1.00
C181   C     0.84567   0.20827   0.40750   0.00000  Uiso   1.00
C182   C     0.82100   0.12507   0.09250   0.00000  Uiso   1.00
C183   C     0.83544   0.16677   0.38422   0.00000  Uiso   1.00
C184   C     0.83123   0.16657   0.11578   0.00000  Uiso   1.00
C185   C     0.82680   0.12517   0.40740   0.00000  Uiso   1.00
C186   C     0.83987   0.20817   0.09260   0.00000  Uiso   1.00
C187   C     0.82645   0.12494   0.45335   0.00000  Uiso   1.00
C188   C     0.84022   0.20840   0.04665   0.00000  Uiso   1.00
C189   C     0.83411   0.16681   0.47677   0.00000  Uiso   1.00
C190   C     0.83255   0.16652   0.02323   0.00000  Uiso   1.00
C191   C     0.84333   0.20890   0.45388   0.00000  Uiso   1.00
C192   C     0.82334   0.12444   0.04612   0.00000  Uiso   1.00
C193   C     0.81808   0.08329   0.47621   0.00000  Uiso   1.00
C194   C     0.84859   0.25004   0.02379   0.00000  Uiso   1.00
Cu195  Cu    0.83333   0.21355   0.25000   0.00000  Uiso   1.00
Cu196  Cu    0.83333   0.11978   0.25000   0.00000  Uiso   1.00
H197   H     0.81253   0.05072   0.45870   0.00000  Uiso   1.00
H198   H     0.85414   0.28261   0.04130   0.00000  Uiso   1.00
H199   H     0.87805   0.04374   0.19938   0.00000  Uiso   1.00
H200   H     0.78861   0.28960   0.30062   0.00000  Uiso   1.00
H201   H     0.78860   0.04348   0.30058   0.00000  Uiso   1.00
H202   H     0.87807   0.28986   0.19942   0.00000  Uiso   1.00
N203   N     0.83333   0.28402   0.25000   0.00000  Uiso   1.00
N204   N     0.83333   0.04931   0.25000   0.00000  Uiso   1.00
O205   O     0.77321   0.20625   0.24999   0.00000  Uiso   1.00
O206   O     0.89345   0.12709   0.25001   0.00000  Uiso   1.00
O207   O     0.89345   0.20625   0.25000   0.00000  Uiso   1.00
O208   O     0.77321   0.12709   0.24999   0.00000  Uiso   1.00
O209   O     0.83332   0.20627   0.18513   0.00000  Uiso   1.00
O210   O     0.83334   0.12707   0.31487   0.00000  Uiso   1.00
O211   O     0.83334   0.20627   0.31487   0.00000  Uiso   1.00
O212   O     0.83332   0.12707   0.18513   0.00000  Uiso   1.00
O213   O     0.85655   0.24868   0.38488   0.00000  Uiso   1.00
C214   C     0.89939   0.24794   0.37749   0.00000  Uiso   1.00
H215   H     0.90829   0.28098   0.36059   0.00000  Uiso   1.00
H216   H     0.90829   0.21834   0.35562   0.00000  Uiso   1.00
H217   H     0.91688   0.24614   0.40905   0.00000  Uiso   1.00
O218   O     0.81011   0.08466   0.11512   0.00000  Uiso   1.00
C219   C     0.76728   0.08539   0.12251   0.00000  Uiso   1.00
H220   H     0.75838   0.11500   0.14439   0.00000  Uiso   1.00
H221   H     0.75837   0.05236   0.13941   0.00000  Uiso   1.00
H222   H     0.74978   0.08720   0.09095   0.00000  Uiso   1.00
F223   F     0.81811   0.08471   0.38540   0.00000  Uiso   1.00
F224   F     0.84856   0.24862   0.11460   0.00000  Uiso   1.00
F225   F     0.80917   0.04108   0.04222   0.00000  Uiso   1.00
F226   F     0.85750   0.29226   0.45778   0.00000  Uiso   1.00
O227   O     0.70913   0.09852   0.29824   0.00000  Uiso   1.00
C228   C     0.72169   0.11636   0.33958   0.00000  Uiso   1.00
H229   H     0.74117   0.14830   0.33634   0.00000  Uiso   1.00
H230   H     0.74035   0.08921   0.35645   0.00000  Uiso   1.00
H231   H     0.69495   0.12387   0.36106   0.00000  Uiso   1.00
O232   O     0.95753   0.23480   0.20176   0.00000  Uiso   1.00
C233   C     0.94498   0.21695   0.16042   0.00000  Uiso   1.00
H234   H     0.92634   0.24411   0.14352   0.00000  Uiso   1.00
H235   H     0.92549   0.18503   0.16366   0.00000  Uiso   1.00
H236   H     0.97173   0.20942   0.13895   0.00000  Uiso   1.00
O237   O     0.95864   0.09927   0.30029   0.00000  Uiso   1.00
C238   C     0.94446   0.11890   0.34032   0.00000  Uiso   1.00
H239   H     0.94744   0.09213   0.36673   0.00000  Uiso   1.00
H240   H     0.91151   0.12764   0.33732   0.00000  Uiso   1.00
H241   H     0.96152   0.15084   0.35132   0.00000  Uiso   1.00
O242   O     0.70803   0.23407   0.19973   0.00000  Uiso   1.00
C243   C     0.72220   0.21445   0.15968   0.00000  Uiso   1.00
H244   H     0.75517   0.20579   0.16266   0.00000  Uiso   1.00
H245   H     0.71915   0.24120   0.13327   0.00000  Uiso   1.00
H246   H     0.70518   0.18247   0.14871   0.00000  Uiso   1.00
C247   C     0.08742   0.49997   0.24941   0.00000  Uiso   1.00
C248   C     0.24592   0.50003   0.25059   0.00000  Uiso   1.00
C249   C     0.15000   0.41611   0.02200   0.00000  Uiso   1.00
C250   C     0.18334   0.58389   0.47800   0.00000  Uiso   1.00
C251   C     0.02164   0.46655   0.27527   0.00000  Uiso   1.00
C252   C     0.31169   0.53345   0.22473   0.00000  Uiso   1.00
C253   C     0.31214   0.46660   0.27575   0.00000  Uiso   1.00
C254   C     0.02119   0.53341   0.22426   0.00000  Uiso   1.00
C255   C     0.29051   0.50010   0.25053   0.00000  Uiso   1.00
C256   C     0.04283   0.49990   0.24948   0.00000  Uiso   1.00
C257   C     0.19151   0.35824   0.22188   0.00000  Uiso   1.00
C258   C     0.14183   0.64176   0.27812   0.00000  Uiso   1.00
C259   C     0.14182   0.35810   0.27811   0.00000  Uiso   1.00
C260   C     0.19151   0.64190   0.22189   0.00000  Uiso   1.00
C261   C     0.16616   0.49997   0.16425   0.00000  Uiso   1.00
C262   C     0.16718   0.50003   0.33575   0.00000  Uiso   1.00
C263   C     0.17900   0.54160   0.40750   0.00000  Uiso   1.00
C264   C     0.15433   0.45840   0.09250   0.00000  Uiso   1.00
C265   C     0.16877   0.50010   0.38422   0.00000  Uiso   1.00
C266   C     0.16456   0.49990   0.11578   0.00000  Uiso   1.00
C267   C     0.16013   0.45850   0.40740   0.00000  Uiso   1.00
C268   C     0.17320   0.54150   0.09260   0.00000  Uiso   1.00
C269   C     0.15979   0.45827   0.45335   0.00000  Uiso   1.00
C270   C     0.17355   0.54173   0.04665   0.00000  Uiso   1.00
C271   C     0.16745   0.50014   0.47677   0.00000  Uiso   1.00
C272   C     0.16589   0.49986   0.02323   0.00000  Uiso   1.00
C273   C     0.17666   0.54223   0.45388   0.00000  Uiso   1.00
C274   C     0.15667   0.45777   0.04612   0.00000  Uiso   1.00
C275   C     0.15141   0.41663   0.47621   0.00000  Uiso   1.00
C276   C     0.18193   0.58337   0.02379   0.00000  Uiso   1.00
Cu277  Cu    0.16667   0.54689   0.25000   0.00000  Uiso   1.00
Cu278  Cu    0.16667   0.45311   0.25000   0.00000  Uiso   1.00
H279   H     0.14587   0.38406   0.45870   0.00000  Uiso   1.00
H280   H     0.18747   0.61594   0.04130   0.00000  Uiso   1.00
H281   H     0.21139   0.37707   0.19938   0.00000  Uiso   1.00
H282   H     0.12195   0.62293   0.30062   0.00000  Uiso   1.00
H283   H     0.12193   0.37681   0.30058   0.00000  Uiso   1.00
H284   H     0.21140   0.62319   0.19942   0.00000  Uiso   1.00
N285   N     0.16667   0.61736   0.25000   0.00000  Uiso   1.00
N286   N     0.16667   0.38264   0.25000   0.00000  Uiso   1.00
O287   O     0.10655   0.53958   0.24999   0.00000  Uiso   1.00
O288   O     0.22679   0.46042   0.25001   0.00000  Uiso   1.00
O289   O     0.22679   0.53958   0.25000   0.00000  Uiso   1.00
O290   O     0.10655   0.46042   0.24999   0.00000  Uiso   1.00
O291   O     0.16666   0.53960   0.18513   0.00000  Uiso   1.00
O292   O     0.16668   0.46040   0.31487   0.00000  Uiso   1.00
O293   O     0.16668   0.53960   0.31487   0.00000  Uiso   1.00
O294   O     0.16666   0.46040   0.18513   0.00000  Uiso   1.00
O295   O     0.18989   0.58201   0.38488   0.00000  Uiso   1.00
C296   C     0.23272   0.58128   0.37749   0.00000  Uiso   1.00
H297   H     0.24163   0.61431   0.36059   0.00000  Uiso   1.00
H298   H     0.24162   0.55167   0.35562   0.00000  Uiso   1.00
H299   H     0.25022   0.57947   0.40905   0.00000  Uiso   1.00
O300   O     0.14345   0.41799   0.11512   0.00000  Uiso   1.00
C301   C     0.10061   0.41873   0.12251   0.00000  Uiso   1.00
H302   H     0.09171   0.44833   0.14439   0.00000  Uiso   1.00
H303   H     0.09170   0.38569   0.13941   0.00000  Uiso   1.00
H304   H     0.08312   0.42053   0.09095   0.00000  Uiso   1.00
F305   F     0.15144   0.41804   0.38540   0.00000  Uiso   1.00
F306   F     0.18190   0.58196   0.11460   0.00000  Uiso   1.00
F307   F     0.14250   0.37441   0.04222   0.00000  Uiso   1.00
F308   F     0.19084   0.62559   0.45778   0.00000  Uiso   1.00
O309   O     0.04247   0.43186   0.29824   0.00000  Uiso   1.00
C310   C     0.05503   0.44969   0.33958   0.00000  Uiso   1.00
H311   H     0.07450   0.48163   0.33634   0.00000  Uiso   1.00
H312   H     0.07369   0.42254   0.35645   0.00000  Uiso   1.00
H313   H     0.02828   0.45720   0.36106   0.00000  Uiso   1.00
O314   O     0.29087   0.56814   0.20176   0.00000  Uiso   1.00
C315   C     0.27831   0.55029   0.16042   0.00000  Uiso   1.00
H316   H     0.25967   0.57744   0.14352   0.00000  Uiso   1.00
H317   H     0.25882   0.51836   0.16366   0.00000  Uiso   1.00
H318   H     0.30506   0.54275   0.13895   0.00000  Uiso   1.00
O319   O     0.29197   0.43261   0.30029   0.00000  Uiso   1.00
C320   C     0.27779   0.45223   0.34032   0.00000  Uiso   1.00
H321   H     0.28078   0.42546   0.36673   0.00000  Uiso   1.00
H322   H     0.24484   0.46097   0.33732   0.00000  Uiso   1.00
H323   H     0.29486   0.48417   0.35132   0.00000  Uiso   1.00
O324   O     0.04136   0.56740   0.19973   0.00000  Uiso   1.00
C325   C     0.05553   0.54779   0.15968   0.00000  Uiso   1.00
H326   H     0.08850   0.53912   0.16266   0.00000  Uiso   1.00
H327   H     0.05248   0.57454   0.13327   0.00000  Uiso   1.00
H328   H     0.03852   0.51580   0.14871   0.00000  Uiso   1.00
C329   C     0.42075   0.49997   0.24941   0.00000  Uiso   1.00
C330   C     0.57925   0.50003   0.25059   0.00000  Uiso   1.00
C331   C     0.48333   0.41611   0.02200   0.00000  Uiso   1.00
C332   C     0.51667   0.58389   0.47800   0.00000  Uiso   1.00
C333   C     0.35497   0.46655   0.27527   0.00000  Uiso   1.00
C334   C     0.64503   0.53345   0.22473   0.00000  Uiso   1.00
C335   C     0.64547   0.46660   0.27575   0.00000  Uiso   1.00
C336   C     0.35453   0.53341   0.22426   0.00000  Uiso   1.00
C337   C     0.62384   0.50010   0.25053   0.00000  Uiso   1.00
C338   C     0.37616   0.49990   0.24948   0.00000  Uiso   1.00
C339   C     0.52484   0.35824   0.22188   0.00000  Uiso   1.00
C340   C     0.47516   0.64176   0.27812   0.00000  Uiso   1.00
C341   C     0.47515   0.35810   0.27811   0.00000  Uiso   1.00
C342   C     0.52485   0.64190   0.22189   0.00000  Uiso   1.00
C343   C     0.49949   0.49997   0.16425   0.00000  Uiso   1.00
C344   C     0.50051   0.50003   0.33575   0.00000  Uiso   1.00
C345   C     0.51233   0.54160   0.40750   0.00000  Uiso   1.00
C346   C     0.48767   0.45840   0.09250   0.00000  Uiso   1.00
C347   C     0.50211   0.50010   0.38422   0.00000  Uiso   1.00
C348   C     0.49789   0.49990   0.11578   0.00000  Uiso   1.00
C349   C     0.49347   0.45850   0.40740   0.00000  Uiso   1.00
C350   C     0.50654   0.54150   0.09260   0.00000  Uiso   1.00
C351   C     0.49312   0.45827   0.45335   0.00000  Uiso   1.00
C352   C     0.50688   0.54173   0.04665   0.00000  Uiso   1.00
C353   C     0.50078   0.50014   0.47677   0.00000  Uiso   1.00
C354   C     0.49922   0.49986   0.02323   0.00000  Uiso   1.00
C355   C     0.51000   0.54223   0.45388   0.00000  Uiso   1.00
C356   C     0.49001   0.45777   0.04612   0.00000  Uiso   1.00
C357   C     0.48474   0.41663   0.47621   0.00000  Uiso   1.00
C358   C     0.51526   0.58337   0.02379   0.00000  Uiso   1.00
Cu359  Cu    0.50000   0.54689   0.25000   0.00000  Uiso   1.00
Cu360  Cu    0.50000   0.45311   0.25000   0.00000  Uiso   1.00
H361   H     0.47920   0.38406   0.45870   0.00000  Uiso   1.00
H362   H     0.52080   0.61594   0.04130   0.00000  Uiso   1.00
H363   H     0.54472   0.37707   0.19938   0.00000  Uiso   1.00
H364   H     0.45528   0.62293   0.30062   0.00000  Uiso   1.00
H365   H     0.45527   0.37681   0.30058   0.00000  Uiso   1.00
H366   H     0.54473   0.62319   0.19942   0.00000  Uiso   1.00
N367   N     0.50000   0.61736   0.25000   0.00000  Uiso   1.00
N368   N     0.50000   0.38264   0.25000   0.00000  Uiso   1.00
O369   O     0.43988   0.53958   0.24999   0.00000  Uiso   1.00
O370   O     0.56012   0.46042   0.25001   0.00000  Uiso   1.00
O371   O     0.56012   0.53958   0.25000   0.00000  Uiso   1.00
O372   O     0.43988   0.46042   0.24999   0.00000  Uiso   1.00
O373   O     0.49999   0.53960   0.18513   0.00000  Uiso   1.00
O374   O     0.50001   0.46040   0.31487   0.00000  Uiso   1.00
O375   O     0.50001   0.53960   0.31487   0.00000  Uiso   1.00
O376   O     0.49999   0.46040   0.18513   0.00000  Uiso   1.00
O377   O     0.52322   0.58201   0.38488   0.00000  Uiso   1.00
C378   C     0.56606   0.58128   0.37749   0.00000  Uiso   1.00
H379   H     0.57496   0.61431   0.36059   0.00000  Uiso   1.00
H380   H     0.57495   0.55167   0.35562   0.00000  Uiso   1.00
H381   H     0.58355   0.57947   0.40905   0.00000  Uiso   1.00
O382   O     0.47678   0.41799   0.11512   0.00000  Uiso   1.00
C383   C     0.43394   0.41873   0.12251   0.00000  Uiso   1.00
H384   H     0.42505   0.44833   0.14439   0.00000  Uiso   1.00
H385   H     0.42504   0.38569   0.13941   0.00000  Uiso   1.00
H386   H     0.41645   0.42053   0.09095   0.00000  Uiso   1.00
F387   F     0.48478   0.41804   0.38540   0.00000  Uiso   1.00
F388   F     0.51523   0.58196   0.11460   0.00000  Uiso   1.00
F389   F     0.47583   0.37441   0.04222   0.00000  Uiso   1.00
F390   F     0.52417   0.62559   0.45778   0.00000  Uiso   1.00
O391   O     0.37580   0.43186   0.29824   0.00000  Uiso   1.00
C392   C     0.38836   0.44969   0.33958   0.00000  Uiso   1.00
H393   H     0.40784   0.48163   0.33634   0.00000  Uiso   1.00
H394   H     0.40702   0.42254   0.35645   0.00000  Uiso   1.00
H395   H     0.36162   0.45720   0.36106   0.00000  Uiso   1.00
O396   O     0.62420   0.56814   0.20176   0.00000  Uiso   1.00
C397   C     0.61165   0.55029   0.16042   0.00000  Uiso   1.00
H398   H     0.59301   0.57744   0.14352   0.00000  Uiso   1.00
H399   H     0.59215   0.51836   0.16366   0.00000  Uiso   1.00
H400   H     0.63839   0.54275   0.13895   0.00000  Uiso   1.00
O401   O     0.62531   0.43261   0.30029   0.00000  Uiso   1.00
C402   C     0.61113   0.45223   0.34032   0.00000  Uiso   1.00
H403   H     0.61411   0.42546   0.36673   0.00000  Uiso   1.00
H404   H     0.57817   0.46097   0.33732   0.00000  Uiso   1.00
H405   H     0.62819   0.48417   0.35132   0.00000  Uiso   1.00
O406   O     0.37469   0.56740   0.19973   0.00000  Uiso   1.00
C407   C     0.38887   0.54779   0.15968   0.00000  Uiso   1.00
H408   H     0.42184   0.53912   0.16266   0.00000  Uiso   1.00
H409   H     0.38582   0.57454   0.13327   0.00000  Uiso   1.00
H410   H     0.37185   0.51580   0.14871   0.00000  Uiso   1.00
C411   C     0.75408   0.49997   0.24941   0.00000  Uiso   1.00
C412   C     0.91258   0.50003   0.25059   0.00000  Uiso   1.00
C413   C     0.81666   0.41611   0.02200   0.00000  Uiso   1.00
C414   C     0.85000   0.58389   0.47800   0.00000  Uiso   1.00
C415   C     0.68830   0.46655   0.27527   0.00000  Uiso   1.00
C416   C     0.97836   0.53345   0.22473   0.00000  Uiso   1.00
C417   C     0.97881   0.46660   0.27575   0.00000  Uiso   1.00
C418   C     0.68786   0.53341   0.22426   0.00000  Uiso   1.00
C419   C     0.95717   0.50010   0.25053   0.00000  Uiso   1.00
C420   C     0.70949   0.49990   0.24948   0.00000  Uiso   1.00
C421   C     0.85817   0.35824   0.22188   0.00000  Uiso   1.00
C422   C     0.80849   0.64176   0.27812   0.00000  Uiso   1.00
C423   C     0.80849   0.35810   0.27811   0.00000  Uiso   1.00
C424   C     0.85818   0.64190   0.22189   0.00000  Uiso   1.00
C425   C     0.83282   0.49997   0.16425   0.00000  Uiso   1.00
C426   C     0.83384   0.50003   0.33575   0.00000  Uiso   1.00
C427   C     0.84567   0.54160   0.40750   0.00000  Uiso   1.00
C428   C     0.82100   0.45840   0.09250   0.00000  Uiso   1.00
C429   C     0.83544   0.50010   0.38422   0.00000  Uiso   1.00
C430   C     0.83123   0.49990   0.11578   0.00000  Uiso   1.00
C431   C     0.82680   0.45850   0.40740   0.00000  Uiso   1.00
C432   C     0.83987   0.54150   0.09260   0.00000  Uiso   1.00
C433   C     0.82645   0.45827   0.45335   0.00000  Uiso   1.00
C434   C     0.84022   0.54173   0.04665   0.00000  Uiso   1.00
C435   C     0.83411   0.50014   0.47677   0.00000  Uiso   1.00
C436   C     0.83255   0.49986   0.02323   0.00000  Uiso   1.00
C437   C     0.84333   0.54223   0.45388   0.00000  Uiso   1.00
C438   C     0.82334   0.45777   0.04612   0.00000  Uiso   1.00
C439   C     0.81808   0.41663   0.47621   0.00000  Uiso   1.00
C440   C     0.84859   0.58337   0.02379   0.00000  Uiso   1.00
Cu441  Cu    0.83333   0.54689   0.25000   0.00000  Uiso   1.00
Cu442  Cu    0.83333   0.45311   0.25000   0.00000  Uiso   1.00
H443   H     0.81253   0.38406   0.45870   0.00000  Uiso   1.00
H444   H     0.85414   0.61594   0.04130   0.00000  Uiso   1.00
H445   H     0.87805   0.37707   0.19938   0.00000  Uiso   1.00
H446   H     0.78861   0.62293   0.30062   0.00000  Uiso   1.00
H447   H     0.78860   0.37681   0.30058   0.00000  Uiso   1.00
H448   H     0.87807   0.62319   0.19942   0.00000  Uiso   1.00
N449   N     0.83333   0.61736   0.25000   0.00000  Uiso   1.00
N450   N     0.83333   0.38264   0.25000   0.00000  Uiso   1.00
O451   O     0.77321   0.53958   0.24999   0.00000  Uiso   1.00
O452   O     0.89345   0.46042   0.25001   0.00000  Uiso   1.00
O453   O     0.89345   0.53958   0.25000   0.00000  Uiso   1.00
O454   O     0.77321   0.46042   0.24999   0.00000  Uiso   1.00
O455   O     0.83332   0.53960   0.18513   0.00000  Uiso   1.00
O456   O     0.83334   0.46040   0.31487   0.00000  Uiso   1.00
O457   O     0.83334   0.53960   0.31487   0.00000  Uiso   1.00
O458   O     0.83332   0.46040   0.18513   0.00000  Uiso   1.00
O459   O     0.85655   0.58201   0.38488   0.00000  Uiso   1.00
C460   C     0.89939   0.58128   0.37749   0.00000  Uiso   1.00
H461   H     0.90829   0.61431   0.36059   0.00000  Uiso   1.00
H462   H     0.90829   0.55167   0.35562   0.00000  Uiso   1.00
H463   H     0.91688   0.57947   0.40905   0.00000  Uiso   1.00
O464   O     0.81011   0.41799   0.11512   0.00000  Uiso   1.00
C465   C     0.76728   0.41873   0.12251   0.00000  Uiso   1.00
H466   H     0.75838   0.44833   0.14439   0.00000  Uiso   1.00
H467   H     0.75837   0.38569   0.13941   0.00000  Uiso   1.00
H468   H     0.74978   0.42053   0.09095   0.00000  Uiso   1.00
F469   F     0.81811   0.41804   0.38540   0.00000  Uiso   1.00
F470   F     0.84856   0.58196   0.11460   0.00000  Uiso   1.00
F471   F     0.80917   0.37441   0.04222   0.00000  Uiso   1.00
F472   F     0.85750   0.62559   0.45778   0.00000  Uiso   1.00
O473   O     0.70913   0.43186   0.29824   0.00000  Uiso   1.00
C474   C     0.72169   0.44969   0.33958   0.00000  Uiso   1.00
H475   H     0.74117   0.48163   0.33634   0.00000  Uiso   1.00
H476   H     0.74035   0.42254   0.35645   0.00000  Uiso   1.00
H477   H     0.69495   0.45720   0.36106   0.00000  Uiso   1.00
O478   O     0.95753   0.56814   0.20176   0.00000  Uiso   1.00
C479   C     0.94498   0.55029   0.16042   0.00000  Uiso   1.00
H480   H     0.92634   0.57744   0.14352   0.00000  Uiso   1.00
H481   H     0.92549   0.51836   0.16366   0.00000  Uiso   1.00
H482   H     0.97173   0.54275   0.13895   0.00000  Uiso   1.00
O483   O     0.95864   0.43261   0.30029   0.00000  Uiso   1.00
C484   C     0.94446   0.45223   0.34032   0.00000  Uiso   1.00
H485   H     0.94744   0.42546   0.36673   0.00000  Uiso   1.00
H486   H     0.91151   0.46097   0.33732   0.00000  Uiso   1.00
H487   H     0.96152   0.48417   0.35132   0.00000  Uiso   1.00
O488   O     0.70803   0.56740   0.19973   0.00000  Uiso   1.00
C489   C     0.72220   0.54779   0.15968   0.00000  Uiso   1.00
H490   H     0.75517   0.53912   0.16266   0.00000  Uiso   1.00
H491   H     0.71915   0.57454   0.13327   0.00000  Uiso   1.00
H492   H     0.70518   0.51580   0.14871   0.00000  Uiso   1.00
C493   C     0.08742   0.83330   0.24941   0.00000  Uiso   1.00
C494   C     0.24592   0.83336   0.25059   0.00000  Uiso   1.00
C495   C     0.15000   0.74944   0.02200   0.00000  Uiso   1.00
C496   C     0.18334   0.91723   0.47800   0.00000  Uiso   1.00
C497   C     0.02164   0.79988   0.27527   0.00000  Uiso   1.00
C498   C     0.31169   0.86678   0.22473   0.00000  Uiso   1.00
C499   C     0.31214   0.79993   0.27575   0.00000  Uiso   1.00
C500   C     0.02119   0.86674   0.22426   0.00000  Uiso   1.00
C501   C     0.29051   0.83343   0.25053   0.00000  Uiso   1.00
C502   C     0.04283   0.83323   0.24948   0.00000  Uiso   1.00
C503   C     0.19151   0.69157   0.22188   0.00000  Uiso   1.00
C504   C     0.14183   0.97510   0.27812   0.00000  Uiso   1.00
C505   C     0.14182   0.69143   0.27811   0.00000  Uiso   1.00
C506   C     0.19151   0.97524   0.22189   0.00000  Uiso   1.00
C507   C     0.16616   0.83331   0.16425   0.00000  Uiso   1.00
C508   C     0.16718   0.83336   0.33575   0.00000  Uiso   1.00
C509   C     0.17900   0.87493   0.40750   0.00000  Uiso   1.00
C510   C     0.15433   0.79173   0.09250   0.00000  Uiso   1.00
C511   C     0.16877   0.83343   0.38422   0.00000  Uiso   1.00
C512   C     0.16456   0.83323   0.11578   0.00000  Uiso   1.00
C513   C     0.16013   0.79183   0.40740   0.00000  Uiso   1.00
C514   C     0.17320   0.87483   0.09260   0.00000  Uiso   1.00
C515   C     0.15979   0.79160   0.45335   0.00000  Uiso   1.00
C516   C     0.17355   0.87506   0.04665   0.00000  Uiso   1.00
C517   C     0.16745   0.83348   0.47677   0.00000  Uiso   1.00
C518   C     0.16589   0.83319   0.02323   0.00000  Uiso   1.00
C519   C     0.17666   0.87556   0.45388   0.00000  Uiso   1.00
C520   C     0.15667   0.79111   0.04612   0.00000  Uiso   1.00
C521   C     0.15141   0.74996   0.47621   0.00000  Uiso   1.00
C522   C     0.18193   0.91671   0.02379   0.00000  Uiso   1.00
Cu523  Cu    0.16667   0.88022   0.25000   0.00000  Uiso   1.00
Cu524  Cu    0.16667   0.78645   0.25000   0.00000  Uiso   1.00
H525   H     0.14587   0.71739   0.45870   0.00000  Uiso   1.00
H526   H     0.18747   0.94928   0.04130   0.00000  Uiso   1.00
H527   H     0.21139   0.71040   0.19938   0.00000  Uiso   1.00
H528   H     0.12195   0.95626   0.30062   0.00000  Uiso   1.00
H529   H     0.12193   0.71014   0.30058   0.00000  Uiso   1.00
H530   H     0.21140   0.95652   0.19942   0.00000  Uiso   1.00
N531   N     0.16667   0.95069   0.25000   0.00000  Uiso   1.00
N532   N     0.16667   0.71598   0.25000   0.00000  Uiso   1.00
O533   O     0.10655   0.87291   0.24999   0.00000  Uiso   1.00
O534   O     0.22679   0.79375   0.25001   0.00000  Uiso   1.00
O535   O     0.22679   0.87291   0.25000   0.00000  Uiso   1.00
O536   O     0.10655   0.79375   0.24999   0.00000  Uiso   1.00
O537   O     0.16666   0.87293   0.18513   0.00000  Uiso   1.00
O538   O     0.16668   0.79373   0.31487   0.00000  Uiso   1.00
O539   O     0.16668   0.87293   0.31487   0.00000  Uiso   1.00
O540   O     0.16666   0.79373   0.18513   0.00000  Uiso   1.00
O541   O     0.18989   0.91534   0.38488   0.00000  Uiso   1.00
C542   C     0.23272   0.91461   0.37749   0.00000  Uiso   1.00
H543   H     0.24163   0.94765   0.36059   0.00000  Uiso   1.00
H544   H     0.24162   0.88501   0.35562   0.00000  Uiso   1.00
H545   H     0.25022   0.91281   0.40905   0.00000  Uiso   1.00
O546   O     0.14345   0.75132   0.11512   0.00000  Uiso   1.00
C547   C     0.10061   0.75206   0.12251   0.00000  Uiso   1.00
H548   H     0.09171   0.78167   0.14439   0.00000  Uiso   1.00
H549   H     0.09170   0.71903   0.13941   0.00000  Uiso   1.00
H550   H     0.08312   0.75387   0.09095   0.00000  Uiso   1.00
F551   F     0.15144   0.75137   0.38540   0.00000  Uiso   1.00
F552   F     0.18190   0.91529   0.11460   0.00000  Uiso   1.00
F553   F     0.14250   0.70774   0.04222   0.00000  Uiso   1.00
F554   F     0.19084   0.95892   0.45778   0.00000  Uiso   1.00
O555   O     0.04247   0.76519   0.29824   0.00000  Uiso   1.00
C556   C     0.05503   0.78303   0.33958   0.00000  Uiso   1.00
H557   H     0.07450   0.81497   0.33634   0.00000  Uiso   1.00
H558   H     0.07369   0.75587   0.35645   0.00000  Uiso   1.00
H559   H     0.02828   0.79053   0.36106   0.00000  Uiso   1.00
O560   O     0.29087   0.90147   0.20176   0.00000  Uiso   1.00
C561   C     0.27831   0.88362   0.16042   0.00000  Uiso   1.00
H562   H     0.25967   0.91078   0.14352   0.00000  Uiso   1.00
H563   H     0.25882   0.85170   0.16366   0.00000  Uiso   1.00
H564   H     0.30506   0.87609   0.13895   0.00000  Uiso   1.00
O565   O     0.29197   0.76594   0.30029   0.00000  Uiso   1.00
C566   C     0.27779   0.78556   0.34032   0.00000  Uiso   1.00
H567   H     0.28078   0.75879   0.36673   0.00000  Uiso   1.00
H568   H     0.24484   0.79430   0.33732   0.00000  Uiso   1.00
H569   H     0.29486   0.81750   0.35132   0.00000  Uiso   1.00
O570   O     0.04136   0.90073   0.19973   0.00000  Uiso   1.00
C571   C     0.05553   0.88112   0.15968   0.00000  Uiso   1.00
H572   H     0.08850   0.87245   0.16266   0.00000  Uiso   1.00
H573   H     0.05248   0.90787   0.13327   0.00000  Uiso   1.00
H574   H     0.03852   0.84914   0.14871   0.00000  Uiso   1.00
C575   C     0.42075   0.83330   0.24941   0.00000  Uiso   1.00
C576   C     0.57925   0.83336   0.25059   0.00000  Uiso   1.00
C577   C     0.48333   0.74944   0.02200   0.00000  Uiso   1.00
C578   C     0.51667   0.91723   0.47800   0.00000  Uiso   1.00
C579   C     0.35497   0.79988   0.27527   0.00000  Uiso   1.00
C580   C     0.64503   0.86678   0.22473   0.00000  Uiso   1.00
C581   C     0.64547   0.79993   0.27575   0.00000  Uiso   1.00
C582   C     0.35453   0.86674   0.22426   0.00000  Uiso   1.00
C583   C     0.62384   0.83343   0.25053   0.00000  Uiso   1.00
C584   C     0.37616   0.83323   0.24948   0.00000  Uiso   1.00
C585   C     0.52484   0.69157   0.22188   0.00000  Uiso   1.00
C586   C     0.47516   0.97510   0.27812   0.00000  Uiso   1.00
C587   C     0.47515   0.69143   0.27811   0.00000  Uiso   1.00
C588   C     0.52485   0.97524   0.22189   0.00000  Uiso   1.00
C589   C     0.49949   0.83331   0.16425   0.00000  Uiso   1.00
C590   C     0.50051   0.83336   0.33575   0.00000  Uiso   1.00
C591   C     0.51233   0.87493   0.40750   0.00000  Uiso   1.00
C592   C     0.48767   0.79173   0.09250   0.00000  Uiso   1.00
C593   C     0.50211   0.83343   0.38422   0.00000  Uiso   1.00
C594   C     0.49789   0.83323   0.11578   0.00000  Uiso   1.00
C595   C     0.49347   0.79183   0.40740   0.00000  Uiso   1.00
C596   C     0.50654   0.87483   0.09260   0.00000  Uiso   1.00
C597   C     0.49312   0.79160   0.45335   0.00000  Uiso   1.00
C598   C     0.50688   0.87506   0.04665   0.00000  Uiso   1.00
C599   C     0.50078   0.83348   0.47677   0.00000  Uiso   1.00
C600   C     0.49922   0.83319   0.02323   0.00000  Uiso   1.00
C601   C     0.51000   0.87556   0.45388   0.00000  Uiso   1.00
C602   C     0.49001   0.79111   0.04612   0.00000  Uiso   1.00
C603   C     0.48474   0.74996   0.47621   0.00000  Uiso   1.00
C604   C     0.51526   0.91671   0.02379   0.00000  Uiso   1.00
Cu605  Cu    0.50000   0.88022   0.25000   0.00000  Uiso   1.00
Cu606  Cu    0.50000   0.78645   0.25000   0.00000  Uiso   1.00
H607   H     0.47920   0.71739   0.45870   0.00000  Uiso   1.00
H608   H     0.52080   0.94928   0.04130   0.00000  Uiso   1.00
H609   H     0.54472   0.71040   0.19938   0.00000  Uiso   1.00
H610   H     0.45528   0.95626   0.30062   0.00000  Uiso   1.00
H611   H     0.45527   0.71014   0.30058   0.00000  Uiso   1.00
H612   H     0.54473   0.95652   0.19942   0.00000  Uiso   1.00
N613   N     0.50000   0.95069   0.25000   0.00000  Uiso   1.00
N614   N     0.50000   0.71598   0.25000   0.00000  Uiso   1.00
O615   O     0.43988   0.87291   0.24999   0.00000  Uiso   1.00
O616   O     0.56012   0.79375   0.25001   0.00000  Uiso   1.00
O617   O     0.56012   0.87291   0.25000   0.00000  Uiso   1.00
O618   O     0.43988   0.79375   0.24999   0.00000  Uiso   1.00
O619   O     0.49999   0.87293   0.18513   0.00000  Uiso   1.00
O620   O     0.50001   0.79373   0.31487   0.00000  Uiso   1.00
O621   O     0.50001   0.87293   0.31487   0.00000  Uiso   1.00
O622   O     0.49999   0.79373   0.18513   0.00000  Uiso   1.00
O623   O     0.52322   0.91534   0.38488   0.00000  Uiso   1.00
C624   C     0.56606   0.91461   0.37749   0.00000  Uiso   1.00
H625   H     0.57496   0.94765   0.36059   0.00000  Uiso   1.00
H626   H     0.57495   0.88501   0.35562   0.00000  Uiso   1.00
H627   H     0.58355   0.91281   0.40905   0.00000  Uiso   1.00
O628   O     0.47678   0.75132   0.11512   0.00000  Uiso   1.00
C629   C     0.43394   0.75206   0.12251   0.00000  Uiso   1.00
H630   H     0.42505   0.78167   0.14439   0.00000  Uiso   1.00
H631   H     0.42504   0.71903   0.13941   0.00000  Uiso   1.00
H632   H     0.41645   0.75387   0.09095   0.00000  Uiso   1.00
F633   F     0.48478   0.75137   0.38540   0.00000  Uiso   1.00
F634   F     0.51523   0.91529   0.11460   0.00000  Uiso   1.00
F635   F     0.47583   0.70774   0.04222   0.00000  Uiso   1.00
F636   F     0.52417   0.95892   0.45778   0.00000  Uiso   1.00
O637   O     0.37580   0.76519   0.29824   0.00000  Uiso   1.00
C638   C     0.38836   0.78303   0.33958   0.00000  Uiso   1.00
H639   H     0.40784   0.81497   0.33634   0.00000  Uiso   1.00
H640   H     0.40702   0.75587   0.35645   0.00000  Uiso   1.00
H641   H     0.36162   0.79053   0.36106   0.00000  Uiso   1.00
O642   O     0.62420   0.90147   0.20176   0.00000  Uiso   1.00
C643   C     0.61165   0.88362   0.16042   0.00000  Uiso   1.00
H644   H     0.59301   0.91078   0.14352   0.00000  Uiso   1.00
H645   H     0.59215   0.85170   0.16366   0.00000  Uiso   1.00
H646   H     0.63839   0.87609   0.13895   0.00000  Uiso   1.00
O647   O     0.62531   0.76594   0.30029   0.00000  Uiso   1.00
C648   C     0.61113   0.78556   0.34032   0.00000  Uiso   1.00
H649   H     0.61411   0.75879   0.36673   0.00000  Uiso   1.00
H650   H     0.57817   0.79430   0.33732   0.00000  Uiso   1.00
H651   H     0.62819   0.81750   0.35132   0.00000  Uiso   1.00
O652   O     0.37469   0.90073   0.19973   0.00000  Uiso   1.00
C653   C     0.38887   0.88112   0.15968   0.00000  Uiso   1.00
H654   H     0.42184   0.87245   0.16266   0.00000  Uiso   1.00
H655   H     0.38582   0.90787   0.13327   0.00000  Uiso   1.00
H656   H     0.37185   0.84914   0.14871   0.00000  Uiso   1.00
C657   C     0.75408   0.83330   0.24941   0.00000  Uiso   1.00
C658   C     0.91258   0.83336   0.25059   0.00000  Uiso   1.00
C659   C     0.81666   0.74944   0.02200   0.00000  Uiso   1.00
C660   C     0.85000   0.91723   0.47800   0.00000  Uiso   1.00
C661   C     0.68830   0.79988   0.27527   0.00000  Uiso   1.00
C662   C     0.97836   0.86678   0.22473   0.00000  Uiso   1.00
C663   C     0.97881   0.79993   0.27575   0.00000  Uiso   1.00
C664   C     0.68786   0.86674   0.22426   0.00000  Uiso   1.00
C665   C     0.95717   0.83343   0.25053   0.00000  Uiso   1.00
C666   C     0.70949   0.83323   0.24948   0.00000  Uiso   1.00
C667   C     0.85817   0.69157   0.22188   0.00000  Uiso   1.00
C668   C     0.80849   0.97510   0.27812   0.00000  Uiso   1.00
C669   C     0.80849   0.69143   0.27811   0.00000  Uiso   1.00
C670   C     0.85818   0.97524   0.22189   0.00000  Uiso   1.00
C671   C     0.83282   0.83331   0.16425   0.00000  Uiso   1.00
C672   C     0.83384   0.83336   0.33575   0.00000  Uiso   1.00
C673   C     0.84567   0.87493   0.40750   0.00000  Uiso   1.00
C674   C     0.82100   0.79173   0.09250   0.00000  Uiso   1.00
C675   C     0.83544   0.83343   0.38422   0.00000  Uiso   1.00
C676   C     0.83123   0.83323   0.11578   0.00000  Uiso   1.00
C677   C     0.82680   0.79183   0.40740   0.00000  Uiso   1.00
C678   C     0.83987   0.87483   0.09260   0.00000  Uiso   1.00
C679   C     0.82645   0.79160   0.45335   0.00000  Uiso   1.00
C680   C     0.84022   0.87506   0.04665   0.00000  Uiso   1.00
C681   C     0.83411   0.83348   0.47677   0.00000  Uiso   1.00
C682   C     0.83255   0.83319   0.02323   0.00000  Uiso   1.00
C683   C     0.84333   0.87556   0.45388   0.00000  Uiso   1.00
C684   C     0.82334   0.79111   0.04612   0.00000  Uiso   1.00
C685   C     0.81808   0.74996   0.47621   0.00000  Uiso   1.00
C686   C     0.84859   0.91671   0.02379   0.00000  Uiso   1.00
Cu687  Cu    0.83333   0.88022   0.25000   0.00000  Uiso   1.00
Cu688  Cu    0.83333   0.78645   0.25000   0.00000  Uiso   1.00
H689   H     0.81253   0.71739   0.45870   0.00000  Uiso   1.00
H690   H     0.85414   0.94928   0.04130   0.00000  Uiso   1.00
H691   H     0.87805   0.71040   0.19938   0.00000  Uiso   1.00
H692   H     0.78861   0.95626   0.30062   0.00000  Uiso   1.00
H693   H     0.78860   0.71014   0.30058   0.00000  Uiso   1.00
H694   H     0.87807   0.95652   0.19942   0.00000  Uiso   1.00
N695   N     0.83333   0.95069   0.25000   0.00000  Uiso   1.00
N696   N     0.83333   0.71598   0.25000   0.00000  Uiso   1.00
O697   O     0.77321   0.87291   0.24999   0.00000  Uiso   1.00
O698   O     0.89345   0.79375   0.25001   0.00000  Uiso   1.00
O699   O     0.89345   0.87291   0.25000   0.00000  Uiso   1.00
O700   O     0.77321   0.79375   0.24999   0.00000  Uiso   1.00
O701   O     0.83332   0.87293   0.18513   0.00000  Uiso   1.00
O702   O     0.83334   0.79373   0.31487   0.00000  Uiso   1.00
O703   O     0.83334   0.87293   0.31487   0.00000  Uiso   1.00
O704   O     0.83332   0.79373   0.18513   0.00000  Uiso   1.00
O705   O     0.85655   0.91534   0.38488   0.00000  Uiso   1.00
C706   C     0.89939   0.91461   0.37749   0.00000  Uiso   1.00
H707   H     0.90829   0.94765   0.36059   0.00000  Uiso   1.00
H708   H     0.90829   0.88501   0.35562   0.00000  Uiso   1.00
H709   H     0.91688   0.91281   0.40905   0.00000  Uiso   1.00
O710   O     0.81011   0.75132   0.11512   0.00000  Uiso   1.00
C711   C     0.76728   0.75206   0.12251   0.00000  Uiso   1.00
H712   H     0.75838   0.78167   0.14439   0.00000  Uiso   1.00
H713   H     0.75837   0.71903   0.13941   0.00000  Uiso   1.00
H714   H     0.74978   0.75387   0.09095   0.00000  Uiso   1.00
F715   F     0.81811   0.75137   0.38540   0.00000  Uiso   1.00
F716   F     0.84856   0.91529   0.11460   0.00000  Uiso   1.00
F717   F     0.80917   0.70774   0.04222   0.00000  Uiso   1.00
F718   F     0.85750   0.95892   0.45778   0.00000  Uiso   1.00
O719   O     0.70913   0.76519   0.29824   0.00000  Uiso   1.00
C720   C     0.72169   0.78303   0.33958   0.00000  Uiso   1.00
H721   H     0.74117   0.81497   0.33634   0.00000  Uiso   1.00
H722   H     0.74035   0.75587   0.35645   0.00000  Uiso   1.00
H723   H     0.69495   0.79053   0.36106   0.00000  Uiso   1.00
O724   O     0.95753   0.90147   0.20176   0.00000  Uiso   1.00
C725   C     0.94498   0.88362   0.16042   0.00000  Uiso   1.00
H726   H     0.92634   0.91078   0.14352   0.00000  Uiso   1.00
H727   H     0.92549   0.85170   0.16366   0.00000  Uiso   1.00
H728   H     0.97173   0.87609   0.13895   0.00000  Uiso   1.00
O729   O     0.95864   0.76594   0.30029   0.00000  Uiso   1.00
C730   C     0.94446   0.78556   0.34032   0.00000  Uiso   1.00
H731   H     0.94744   0.75879   0.36673   0.00000  Uiso   1.00
H732   H     0.91151   0.79430   0.33732   0.00000  Uiso   1.00
H733   H     0.96152   0.81750   0.35132   0.00000  Uiso   1.00
O734   O     0.70803   0.90073   0.19973   0.00000  Uiso   1.00
C735   C     0.72220   0.88112   0.15968   0.00000  Uiso   1.00
H736   H     0.75517   0.87245   0.16266   0.00000  Uiso   1.00
H737   H     0.71915   0.90787   0.13327   0.00000  Uiso   1.00
H738   H     0.70518   0.84914   0.14871   0.00000  Uiso   1.00
C739   C     0.08742   0.16664   0.74941   0.00000  Uiso   1.00
C740   C     0.24592   0.16670   0.75059   0.00000  Uiso   1.00
C741   C     0.15000   0.08277   0.52200   0.00000  Uiso   1.00
C742   C     0.18334   0.25056   0.97800   0.00000  Uiso   1.00
C743   C     0.02164   0.13322   0.77527   0.00000  Uiso   1.00
C744   C     0.31169   0.20012   0.72473   0.00000  Uiso   1.00
C745   C     0.31214   0.13326   0.77575   0.00000  Uiso   1.00
C746   C     0.02119   0.20007   0.72426   0.00000  Uiso   1.00
C747   C     0.29051   0.16677   0.75053   0.00000  Uiso   1.00
C748   C     0.04283   0.16657   0.74948   0.00000  Uiso   1.00
C749   C     0.19151   0.02490   0.72188   0.00000  Uiso   1.00
C750   C     0.14183   0.30843   0.77812   0.00000  Uiso   1.00
C751   C     0.14182   0.02476   0.77811   0.00000  Uiso   1.00
C752   C     0.19151   0.30857   0.72189   0.00000  Uiso   1.00
C753   C     0.16616   0.16664   0.66425   0.00000  Uiso   1.00
C754   C     0.16718   0.16669   0.83575   0.00000  Uiso   1.00
C755   C     0.17900   0.20827   0.90750   0.00000  Uiso   1.00
C756   C     0.15433   0.12507   0.59250   0.00000  Uiso   1.00
C757   C     0.16877   0.16677   0.88422   0.00000  Uiso   1.00
C758   C     0.16456   0.16657   0.61578   0.00000  Uiso   1.00
C759   C     0.16013   0.12517   0.90740   0.00000  Uiso   1.00
C760   C     0.17320   0.20817   0.59260   0.00000  Uiso   1.00
C761   C     0.15979   0.12494   0.95335   0.00000  Uiso   1.00
C762   C     0.17355   0.20840   0.54665   0.00000  Uiso   1.00
C763   C     0.16745   0.16681   0.97677   0.00000  Uiso   1.00
C764   C     0.16589   0.16652   0.52323   0.00000  Uiso   1.00
C765   C     0.17666   0.20890   0.95388   0.00000  Uiso   1.00
C766   C     0.15667   0.12444   0.54612   0.00000  Uiso   1.00
C767   C     0.15141   0.08329   0.97621   0.00000  Uiso   1.00
C768   C     0.18193   0.25004   0.52379   0.00000  Uiso   1.00
Cu769  Cu    0.16667   0.21355   0.75000   0.00000  Uiso   1.00
Cu770  Cu    0.16667   0.11978   0.75000   0.00000  Uiso   1.00
H771   H     0.14587   0.05072   0.95870   0.00000  Uiso   1.00
H772   H     0.18747   0.28261   0.54130   0.00000  Uiso   1.00
H773   H     0.21139   0.04374   0.69938   0.00000  Uiso   1.00
H774   H     0.12195   0.28960   0.80062   0.00000  Uiso   1.00
H775   H     0.12193   0.04348   0.80058   0.00000  Uiso   1.00
H776   H     0.21140   0.28986   0.69942   0.00000  Uiso   1.00
N777   N     0.16667   0.28402   0.75000   0.00000  Uiso   1.00
N778   N     0.16667   0.04931   0.75000   0.00000  Uiso   1.00
O779   O     0.10655   0.20625   0.74999   0.00000  Uiso   1.00
O780   O     0.22679   0.12709   0.75001   0.00000  Uiso   1.00
O781   O     0.22679   0.20625   0.75000   0.00000  Uiso   1.00
O782   O     0.10655   0.12709   0.74999   0.00000  Uiso   1.00
O783   O     0.16666   0.20627   0.68513   0.00000  Uiso   1.00
O784   O     0.16668   0.12707   0.81487   0.00000  Uiso   1.00
O785   O     0.16668   0.20627   0.81487   0.00000  Uiso   1.00
O786   O     0.16666   0.12707   0.68513   0.00000  Uiso   1.00
O787   O     0.18989   0.24868   0.88488   0.00000  Uiso   1.00
C788   C     0.23272   0.24794   0.87749   0.00000  Uiso   1.00
H789   H     0.24163   0.28098   0.86059   0.00000  Uiso   1.00
H790   H     0.24162   0.21834   0.85562   0.00000  Uiso   1.00
H791   H     0.25022   0.24614   0.90905   0.00000  Uiso   1.00
O792   O     0.14345   0.08466   0.61512   0.00000  Uiso   1.00
C793   C     0.10061   0.08539   0.62251   0.00000  Uiso   1.00
H794   H     0.09171   0.11500   0.64439   0.00000  Uiso   1.00
H795   H     0.09170   0.05236   0.63941   0.00000  Uiso   1.00
H796   H     0.08312   0.08720   0.59095   0.00000  Uiso   1.00
F797   F     0.15144   0.08471   0.88540   0.00000  Uiso   1.00
F798   F     0.18190   0.24862   0.61460   0.00000  Uiso   1.00
F799   F     0.14250   0.04108   0.54222   0.00000  Uiso   1.00
F800   F     0.19084   0.29226   0.95778   0.00000  Uiso   1.00
O801   O     0.04247   0.09852   0.79824   0.00000  Uiso   1.00
C802   C     0.05503   0.11636   0.83958   0.00000  Uiso   1.00
H803   H     0.07450   0.14830   0.83634   0.00000  Uiso   1.00
H804   H     0.07369   0.08921   0.85645   0.00000  Uiso   1.00
H805   H     0.02828   0.12387   0.86106   0.00000  Uiso   1.00
O806   O     0.29087   0.23480   0.70176   0.00000  Uiso   1.00
C807   C     0.27831   0.21695   0.66042   0.00000  Uiso   1.00
H808   H     0.25967   0.24411   0.64352   0.00000  Uiso   1.00
H809   H     0.25882   0.18503   0.66366   0.00000  Uiso   1.00
H810   H     0.30506   0.20942   0.63895   0.00000  Uiso   1.00
O811   O     0.29197   0.09927   0.80029   0.00000  Uiso   1.00
C812   C     0.27779   0.11890   0.84032   0.00000  Uiso   1.00
H813   H     0.28078   0.09213   0.86673   0.00000  Uiso   1.00
H814   H     0.24484   0.12764   0.83732   0.00000  Uiso   1.00
H815   H     0.29486   0.15084   0.85132   0.00000  Uiso   1.00
O816   O     0.04136   0.23407   0.69973   0.00000  Uiso   1.00
C817   C     0.05553   0.21445   0.65968   0.00000  Uiso   1.00
H818   H     0.08850   0.20579   0.66266   0.00000  Uiso   1.00
H819   H     0.05248   0.24120   0.63327   0.00000  Uiso   1.00
H820   H     0.03852   0.18247   0.64871   0.00000  Uiso   1.00
C821   C     0.42075   0.16664   0.74941   0.00000  Uiso   1.00
C822   C     0.57925   0.16670   0.75059   0.00000  Uiso   1.00
C823   C     0.48333   0.08277   0.52200   0.00000  Uiso   1.00
C824   C     0.51667   0.25056   0.97800   0.00000  Uiso   1.00
C825   C     0.35497   0.13322   0.77527   0.00000  Uiso   1.00
C826   C     0.64503   0.20012   0.72473   0.00000  Uiso   1.00
C827   C     0.64547   0.13326   0.77575   0.00000  Uiso   1.00
C828   C     0.35453   0.20007   0.72426   0.00000  Uiso   1.00
C829   C     0.62384   0.16677   0.75053   0.00000  Uiso   1.00
C830   C     0.37616   0.16657   0.74948   0.00000  Uiso   1.00
C831   C     0.52484   0.02490   0.72188   0.00000  Uiso   1.00
C832   C     0.47516   0.30843   0.77812   0.00000  Uiso   1.00
C833   C     0.47515   0.02476   0.77811   0.00000  Uiso   1.00
C834   C     0.52485   0.30857   0.72189   0.00000  Uiso   1.00
C835   C     0.49949   0.16664   0.66425   0.00000  Uiso   1.00
C836   C     0.50051   0.16669   0.83575   0.00000  Uiso   1.00
C837   C     0.51233   0.20827   0.90750   0.00000  Uiso   1.00
C838   C     0.48767   0.12507   0.59250   0.00000  Uiso   1.00
C839   C     0.50211   0.16677   0.88422   0.00000  Uiso   1.00
C840   C     0.49789   0.16657   0.61578   0.00000  Uiso   1.00
C841   C     0.49347   0.12517   0.90740   0.00000  Uiso   1.00
C842   C     0.50654   0.20817   0.59260   0.00000  Uiso   1.00
C843   C     0.49312   0.12494   0.95335   0.00000  Uiso   1.00
C844   C     0.50688   0.20840   0.54665   0.00000  Uiso   1.00
C845   C     0.50078   0.16681   0.97677   0.00000  Uiso   1.00
C846   C     0.49922   0.16652   0.52323   0.00000  Uiso   1.00
C847   C     0.51000   0.20890   0.95388   0.00000  Uiso   1.00
C848   C     0.49001   0.12444   0.54612   0.00000  Uiso   1.00
C849   C     0.48474   0.08329   0.97621   0.00000  Uiso   1.00
C850   C     0.51526   0.25004   0.52379   0.00000  Uiso   1.00
Cu851  Cu    0.50000   0.21355   0.75000   0.00000  Uiso   1.00
Cu852  Cu    0.50000   0.11978   0.75000   0.00000  Uiso   1.00
H853   H     0.47920   0.05072   0.95870   0.00000  Uiso   1.00
H854   H     0.52080   0.28261   0.54130   0.00000  Uiso   1.00
H855   H     0.54472   0.04374   0.69938   0.00000  Uiso   1.00
H856   H     0.45528   0.28960   0.80062   0.00000  Uiso   1.00
H857   H     0.45527   0.04348   0.80058   0.00000  Uiso   1.00
H858   H     0.54473   0.28986   0.69942   0.00000  Uiso   1.00
N859   N     0.50000   0.28402   0.75000   0.00000  Uiso   1.00
N860   N     0.50000   0.04931   0.75000   0.00000  Uiso   1.00
O861   O     0.43988   0.20625   0.74999   0.00000  Uiso   1.00
O862   O     0.56012   0.12709   0.75001   0.00000  Uiso   1.00
O863   O     0.56012   0.20625   0.75000   0.00000  Uiso   1.00
O864   O     0.43988   0.12709   0.74999   0.00000  Uiso   1.00
O865   O     0.49999   0.20627   0.68513   0.00000  Uiso   1.00
O866   O     0.50001   0.12707   0.81487   0.00000  Uiso   1.00
O867   O     0.50001   0.20627   0.81487   0.00000  Uiso   1.00
O868   O     0.49999   0.12707   0.68513   0.00000  Uiso   1.00
O869   O     0.52322   0.24868   0.88488   0.00000  Uiso   1.00
C870   C     0.56606   0.24794   0.87749   0.00000  Uiso   1.00
H871   H     0.57496   0.28098   0.86059   0.00000  Uiso   1.00
H872   H     0.57495   0.21834   0.85562   0.00000  Uiso   1.00
H873   H     0.58355   0.24614   0.90905   0.00000  Uiso   1.00
O874   O     0.47678   0.08466   0.61512   0.00000  Uiso   1.00
C875   C     0.43394   0.08539   0.62251   0.00000  Uiso   1.00
H876   H     0.42505   0.11500   0.64439   0.00000  Uiso   1.00
H877   H     0.42504   0.05236   0.63941   0.00000  Uiso   1.00
H878   H     0.41645   0.08720   0.59095   0.00000  Uiso   1.00
F879   F     0.48478   0.08471   0.88540   0.00000  Uiso   1.00
F880   F     0.51523   0.24862   0.61460   0.00000  Uiso   1.00
F881   F     0.47583   0.04108   0.54222   0.00000  Uiso   1.00
F882   F     0.52417   0.29226   0.95778   0.00000  Uiso   1.00
O883   O     0.37580   0.09852   0.79824   0.00000  Uiso   1.00
C884   C     0.38836   0.11636   0.83958   0.00000  Uiso   1.00
H885   H     0.40784   0.14830   0.83634   0.00000  Uiso   1.00
H886   H     0.40702   0.08921   0.85645   0.00000  Uiso   1.00
H887   H     0.36162   0.12387   0.86106   0.00000  Uiso   1.00
O888   O     0.62420   0.23480   0.70176   0.00000  Uiso   1.00
C889   C     0.61165   0.21695   0.66042   0.00000  Uiso   1.00
H890   H     0.59301   0.24411   0.64352   0.00000  Uiso   1.00
H891   H     0.59215   0.18503   0.66366   0.00000  Uiso   1.00
H892   H     0.63839   0.20942   0.63895   0.00000  Uiso   1.00
O893   O     0.62531   0.09927   0.80029   0.00000  Uiso   1.00
C894   C     0.61113   0.11890   0.84032   0.00000  Uiso   1.00
H895   H     0.61411   0.09213   0.86673   0.00000  Uiso   1.00
H896   H     0.57817   0.12764   0.83732   0.00000  Uiso   1.00
H897   H     0.62819   0.15084   0.85132   0.00000  Uiso   1.00
O898   O     0.37469   0.23407   0.69973   0.00000  Uiso   1.00
C899   C     0.38887   0.21445   0.65968   0.00000  Uiso   1.00
H900   H     0.42184   0.20579   0.66266   0.00000  Uiso   1.00
H901   H     0.38582   0.24120   0.63327   0.00000  Uiso   1.00
H902   H     0.37185   0.18247   0.64871   0.00000  Uiso   1.00
C903   C     0.75408   0.16664   0.74941   0.00000  Uiso   1.00
C904   C     0.91258   0.16670   0.75059   0.00000  Uiso   1.00
C905   C     0.81666   0.08277   0.52200   0.00000  Uiso   1.00
C906   C     0.85000   0.25056   0.97800   0.00000  Uiso   1.00
C907   C     0.68830   0.13322   0.77527   0.00000  Uiso   1.00
C908   C     0.97836   0.20012   0.72473   0.00000  Uiso   1.00
C909   C     0.97881   0.13326   0.77575   0.00000  Uiso   1.00
C910   C     0.68786   0.20007   0.72426   0.00000  Uiso   1.00
C911   C     0.95717   0.16677   0.75053   0.00000  Uiso   1.00
C912   C     0.70949   0.16657   0.74948   0.00000  Uiso   1.00
C913   C     0.85817   0.02490   0.72188   0.00000  Uiso   1.00
C914   C     0.80849   0.30843   0.77812   0.00000  Uiso   1.00
C915   C     0.80849   0.02476   0.77811   0.00000  Uiso   1.00
C916   C     0.85818   0.30857   0.72189   0.00000  Uiso   1.00
C917   C     0.83282   0.16664   0.66425   0.00000  Uiso   1.00
C918   C     0.83384   0.16669   0.83575   0.00000  Uiso   1.00
C919   C     0.84567   0.20827   0.90750   0.00000  Uiso   1.00
C920   C     0.82100   0.12507   0.59250   0.00000  Uiso   1.00
C921   C     0.83544   0.16677   0.88422   0.00000  Uiso   1.00
C922   C     0.83123   0.16657   0.61578   0.00000  Uiso   1.00
C923   C     0.82680   0.12517   0.90740   0.00000  Uiso   1.00
C924   C     0.83987   0.20817   0.59260   0.00000  Uiso   1.00
C925   C     0.82645   0.12494   0.95335   0.00000  Uiso   1.00
C926   C     0.84022   0.20840   0.54665   0.00000  Uiso   1.00
C927   C     0.83411   0.16681   0.97677   0.00000  Uiso   1.00
C928   C     0.83255   0.16652   0.52323   0.00000  Uiso   1.00
C929   C     0.84333   0.20890   0.95388   0.00000  Uiso   1.00
C930   C     0.82334   0.12444   0.54612   0.00000  Uiso   1.00
C931   C     0.81808   0.08329   0.97621   0.00000  Uiso   1.00
C932   C     0.84859   0.25004   0.52379   0.00000  Uiso   1.00
Cu933  Cu    0.83333   0.21355   0.75000   0.00000  Uiso   1.00
Cu934  Cu    0.83333   0.11978   0.75000   0.00000  Uiso   1.00
H935   H     0.81253   0.05072   0.95870   0.00000  Uiso   1.00
H936   H     0.85414   0.28261   0.54130   0.00000  Uiso   1.00
H937   H     0.87805   0.04374   0.69938   0.00000  Uiso   1.00
H938   H     0.78861   0.28960   0.80062   0.00000  Uiso   1.00
H939   H     0.78860   0.04348   0.80058   0.00000  Uiso   1.00
H940   H     0.87807   0.28986   0.69942   0.00000  Uiso   1.00
N941   N     0.83333   0.28402   0.75000   0.00000  Uiso   1.00
N942   N     0.83333   0.04931   0.75000   0.00000  Uiso   1.00
O943   O     0.77321   0.20625   0.74999   0.00000  Uiso   1.00
O944   O     0.89345   0.12709   0.75001   0.00000  Uiso   1.00
O945   O     0.89345   0.20625   0.75000   0.00000  Uiso   1.00
O946   O     0.77321   0.12709   0.74999   0.00000  Uiso   1.00
O947   O     0.83332   0.20627   0.68513   0.00000  Uiso   1.00
O948   O     0.83334   0.12707   0.81487   0.00000  Uiso   1.00
O949   O     0.83334   0.20627   0.81487   0.00000  Uiso   1.00
O950   O     0.83332   0.12707   0.68513   0.00000  Uiso   1.00
O951   O     0.85655   0.24868   0.88488   0.00000  Uiso   1.00
C952   C     0.89939   0.24794   0.87749   0.00000  Uiso   1.00
H953   H     0.90829   0.28098   0.86059   0.00000  Uiso   1.00
H954   H     0.90829   0.21834   0.85562   0.00000  Uiso   1.00
H955   H     0.91688   0.24614   0.90905   0.00000  Uiso   1.00
O956   O     0.81011   0.08466   0.61512   0.00000  Uiso   1.00
C957   C     0.76728   0.08539   0.62251   0.00000  Uiso   1.00
H958   H     0.75838   0.11500   0.64439   0.00000  Uiso   1.00
H959   H     0.75837   0.05236   0.63941   0.00000  Uiso   1.00
H960   H     0.74978   0.08720   0.59095   0.00000  Uiso   1.00
F961   F     0.81811   0.08471   0.88540   0.00000  Uiso   1.00
F962   F     0.84856   0.24862   0.61460   0.00000  Uiso   1.00
F963   F     0.80917   0.04108   0.54222   0.00000  Uiso   1.00
F964   F     0.85750   0.29226   0.95778   0.00000  Uiso   1.00
O965   O     0.70913   0.09852   0.79824   0.00000  Uiso   1.00
C966   C     0.72169   0.11636   0.83958   0.00000  Uiso   1.00
H967   H     0.74117   0.14830   0.83634   0.00000  Uiso   1.00
H968   H     0.74035   0.08921   0.85645   0.00000  Uiso   1.00
H969   H     0.69495   0.12387   0.86106   0.00000  Uiso   1.00
O970   O     0.95753   0.23480   0.70176   0.00000  Uiso   1.00
C971   C     0.94498   0.21695   0.66042   0.00000  Uiso   1.00
H972   H     0.92634   0.24411   0.64352   0.00000  Uiso   1.00
H973   H     0.92549   0.18503   0.66366   0.00000  Uiso   1.00
H974   H     0.97173   0.20942   0.63895   0.00000  Uiso   1.00
O975   O     0.95864   0.09927   0.80029   0.00000  Uiso   1.00
C976   C     0.94446   0.11890   0.84032   0.00000  Uiso   1.00
H977   H     0.94744   0.09213   0.86673   0.00000  Uiso   1.00
H978   H     0.91151   0.12764   0.83732   0.00000  Uiso   1.00
H979   H     0.96152   0.15084   0.85132   0.00000  Uiso   1.00
O980   O     0.70803   0.23407   0.69973   0.00000  Uiso   1.00
C981   C     0.72220   0.21445   0.65968   0.00000  Uiso   1.00
H982   H     0.75517   0.20579   0.66266   0.00000  Uiso   1.00
H983   H     0.71915   0.24120   0.63327   0.00000  Uiso   1.00
H984   H     0.70518   0.18247   0.64871   0.00000  Uiso   1.00
C985   C     0.08742   0.49997   0.74941   0.00000  Uiso   1.00
C986   C     0.24592   0.50003   0.75059   0.00000  Uiso   1.00
C987   C     0.15000   0.41611   0.52200   0.00000  Uiso   1.00
C988   C     0.18334   0.58389   0.97800   0.00000  Uiso   1.00
C989   C     0.02164   0.46655   0.77527   0.00000  Uiso   1.00
C990   C     0.31169   0.53345   0.72473   0.00000  Uiso   1.00
C991   C     0.31214   0.46660   0.77575   0.00000  Uiso   1.00
C992   C     0.02119   0.53341   0.72426   0.00000  Uiso   1.00
C993   C     0.29051   0.50010   0.75053   0.00000  Uiso   1.00
C994   C     0.04283   0.49990   0.74948   0.00000  Uiso   1.00
C995   C     0.19151   0.35824   0.72188   0.00000  Uiso   1.00
C996   C     0.14183   0.64176   0.77812   0.00000  Uiso   1.00
C997   C     0.14182   0.35810   0.77811   0.00000  Uiso   1.00
C998   C     0.19151   0.64190   0.72189   0.00000  Uiso   1.00
C999   C     0.16616   0.49997   0.66425   0.00000  Uiso   1.00
C1000  C     0.16718   0.50003   0.83575   0.00000  Uiso   1.00
C1001  C     0.17900   0.54160   0.90750   0.00000  Uiso   1.00
C1002  C     0.15433   0.45840   0.59250   0.00000  Uiso   1.00
C1003  C     0.16877   0.50010   0.88422   0.00000  Uiso   1.00
C1004  C     0.16456   0.49990   0.61578   0.00000  Uiso   1.00
C1005  C     0.16013   0.45850   0.90740   0.00000  Uiso   1.00
C1006  C     0.17320   0.54150   0.59260   0.00000  Uiso   1.00
C1007  C     0.15979   0.45827   0.95335   0.00000  Uiso   1.00
C1008  C     0.17355   0.54173   0.54665   0.00000  Uiso   1.00
C1009  C     0.16745   0.50014   0.97677   0.00000  Uiso   1.00
C1010  C     0.16589   0.49986   0.52323   0.00000  Uiso   1.00
C1011  C     0.17666   0.54223   0.95388   0.00000  Uiso   1.00
C1012  C     0.15667   0.45777   0.54612   0.00000  Uiso   1.00
C1013  C     0.15141   0.41663   0.97621   0.00000  Uiso   1.00
C1014  C     0.18193   0.58337   0.52379   0.00000  Uiso   1.00
Cu1015 Cu    0.16667   0.54689   0.75000   0.00000  Uiso   1.00
Cu1016 Cu    0.16667   0.45311   0.75000   0.00000  Uiso   1.00
H1017  H     0.14587   0.38406   0.95870   0.00000  Uiso   1.00
H1018  H     0.18747   0.61594   0.54130   0.00000  Uiso   1.00
H1019  H     0.21139   0.37707   0.69938   0.00000  Uiso   1.00
H1020  H     0.12195   0.62293   0.80062   0.00000  Uiso   1.00
H1021  H     0.12193   0.37681   0.80058   0.00000  Uiso   1.00
H1022  H     0.21140   0.62319   0.69942   0.00000  Uiso   1.00
N1023  N     0.16667   0.61736   0.75000   0.00000  Uiso   1.00
N1024  N     0.16667   0.38264   0.75000   0.00000  Uiso   1.00
O1025  O     0.10655   0.53958   0.74999   0.00000  Uiso   1.00
O1026  O     0.22679   0.46042   0.75001   0.00000  Uiso   1.00
O1027  O     0.22679   0.53958   0.75000   0.00000  Uiso   1.00
O1028  O     0.10655   0.46042   0.74999   0.00000  Uiso   1.00
O1029  O     0.16666   0.53960   0.68513   0.00000  Uiso   1.00
O1030  O     0.16668   0.46040   0.81487   0.00000  Uiso   1.00
O1031  O     0.16668   0.53960   0.81487   0.00000  Uiso   1.00
O1032  O     0.16666   0.46040   0.68513   0.00000  Uiso   1.00
O1033  O     0.18989   0.58201   0.88488   0.00000  Uiso   1.00
C1034  C     0.23272   0.58128   0.87749   0.00000  Uiso   1.00
H1035  H     0.24163   0.61431   0.86059   0.00000  Uiso   1.00
H1036  H     0.24162   0.55167   0.85562   0.00000  Uiso   1.00
H1037  H     0.25022   0.57947   0.90905   0.00000  Uiso   1.00
O1038  O     0.14345   0.41799   0.61512   0.00000  Uiso   1.00
C1039  C     0.10061   0.41873   0.62251   0.00000  Uiso   1.00
H1040  H     0.09171   0.44833   0.64439   0.00000  Uiso   1.00
H1041  H     0.09170   0.38569   0.63941   0.00000  Uiso   1.00
H1042  H     0.08312   0.42053   0.59095   0.00000  Uiso   1.00
F1043  F     0.15144   0.41804   0.88540   0.00000  Uiso   1.00
F1044  F     0.18190   0.58196   0.61460   0.00000  Uiso   1.00
F1045  F     0.14250   0.37441   0.54222   0.00000  Uiso   1.00
F1046  F     0.19084   0.62559   0.95778   0.00000  Uiso   1.00
O1047  O     0.04247   0.43186   0.79824   0.00000  Uiso   1.00
C1048  C     0.05503   0.44969   0.83958   0.00000  Uiso   1.00
H1049  H     0.07450   0.48163   0.83634   0.00000  Uiso   1.00
H1050  H     0.07369   0.42254   0.85645   0.00000  Uiso   1.00
H1051  H     0.02828   0.45720   0.86106   0.00000  Uiso   1.00
O1052  O     0.29087   0.56814   0.70176   0.00000  Uiso   1.00
C1053  C     0.27831   0.55029   0.66042   0.00000  Uiso   1.00
H1054  H     0.25967   0.57744   0.64352   0.00000  Uiso   1.00
H1055  H     0.25882   0.51836   0.66366   0.00000  Uiso   1.00
H1056  H     0.30506   0.54275   0.63895   0.00000  Uiso   1.00
O1057  O     0.29197   0.43261   0.80029   0.00000  Uiso   1.00
C1058  C     0.27779   0.45223   0.84032   0.00000  Uiso   1.00
H1059  H     0.28078   0.42546   0.86673   0.00000  Uiso   1.00
H1060  H     0.24484   0.46097   0.83732   0.00000  Uiso   1.00
H1061  H     0.29486   0.48417   0.85132   0.00000  Uiso   1.00
O1062  O     0.04136   0.56740   0.69973   0.00000  Uiso   1.00
C1063  C     0.05553   0.54779   0.65968   0.00000  Uiso   1.00
H1064  H     0.08850   0.53912   0.66266   0.00000  Uiso   1.00
H1065  H     0.05248   0.57454   0.63327   0.00000  Uiso   1.00
H1066  H     0.03852   0.51580   0.64871   0.00000  Uiso   1.00
C1067  C     0.42075   0.49997   0.74941   0.00000  Uiso   1.00
C1068  C     0.57925   0.50003   0.75059   0.00000  Uiso   1.00
C1069  C     0.48333   0.41611   0.52200   0.00000  Uiso   1.00
C1070  C     0.51667   0.58389   0.97800   0.00000  Uiso   1.00
C1071  C     0.35497   0.46655   0.77527   0.00000  Uiso   1.00
C1072  C     0.64503   0.53345   0.72473   0.00000  Uiso   1.00
C1073  C     0.64547   0.46660   0.77575   0.00000  Uiso   1.00
C1074  C     0.35453   0.53341   0.72426   0.00000  Uiso   1.00
C1075  C     0.62384   0.50010   0.75053   0.00000  Uiso   1.00
C1076  C     0.37616   0.49990   0.74948   0.00000  Uiso   1.00
C1077  C     0.52484   0.35824   0.72188   0.00000  Uiso   1.00
C1078  C     0.47516   0.64176   0.77812   0.00000  Uiso   1.00
C1079  C     0.47515   0.35810   0.77811   0.00000  Uiso   1.00
C1080  C     0.52485   0.64190   0.72189   0.00000  Uiso   1.00
C1081  C     0.49949   0.49997   0.66425   0.00000  Uiso   1.00
C1082  C     0.50051   0.50003   0.83575   0.00000  Uiso   1.00
C1083  C     0.51233   0.54160   0.90750   0.00000  Uiso   1.00
C1084  C     0.48767   0.45840   0.59250   0.00000  Uiso   1.00
C1085  C     0.50211   0.50010   0.88422   0.00000  Uiso   1.00
C1086  C     0.49789   0.49990   0.61578   0.00000  Uiso   1.00
C1087  C     0.49347   0.45850   0.90740   0.00000  Uiso   1.00
C1088  C     0.50654   0.54150   0.59260   0.00000  Uiso   1.00
C1089  C     0.49312   0.45827   0.95335   0.00000  Uiso   1.00
C1090  C     0.50688   0.54173   0.54665   0.00000  Uiso   1.00
C1091  C     0.50078   0.50014   0.97677   0.00000  Uiso   1.00
C1092  C     0.49922   0.49986   0.52323   0.00000  Uiso   1.00
C1093  C     0.51000   0.54223   0.95388   0.00000  Uiso   1.00
C1094  C     0.49001   0.45777   0.54612   0.00000  Uiso   1.00
C1095  C     0.48474   0.41663   0.97621   0.00000  Uiso   1.00
C1096  C     0.51526   0.58337   0.52379   0.00000  Uiso   1.00
Cu1097 Cu    0.50000   0.54689   0.75000   0.00000  Uiso   1.00
Cu1098 Cu    0.50000   0.45311   0.75000   0.00000  Uiso   1.00
H1099  H     0.47920   0.38406   0.95870   0.00000  Uiso   1.00
H1100  H     0.52080   0.61594   0.54130   0.00000  Uiso   1.00
H1101  H     0.54472   0.37707   0.69938   0.00000  Uiso   1.00
H1102  H     0.45528   0.62293   0.80062   0.00000  Uiso   1.00
H1103  H     0.45527   0.37681   0.80058   0.00000  Uiso   1.00
H1104  H     0.54473   0.62319   0.69942   0.00000  Uiso   1.00
N1105  N     0.50000   0.61736   0.75000   0.00000  Uiso   1.00
N1106  N     0.50000   0.38264   0.75000   0.00000  Uiso   1.00
O1107  O     0.43988   0.53958   0.74999   0.00000  Uiso   1.00
O1108  O     0.56012   0.46042   0.75001   0.00000  Uiso   1.00
O1109  O     0.56012   0.53958   0.75000   0.00000  Uiso   1.00
O1110  O     0.43988   0.46042   0.74999   0.00000  Uiso   1.00
O1111  O     0.49999   0.53960   0.68513   0.00000  Uiso   1.00
O1112  O     0.50001   0.46040   0.81487   0.00000  Uiso   1.00
O1113  O     0.50001   0.53960   0.81487   0.00000  Uiso   1.00
O1114  O     0.49999   0.46040   0.68513   0.00000  Uiso   1.00
O1115  O     0.52322   0.58201   0.88488   0.00000  Uiso   1.00
C1116  C     0.56606   0.58128   0.87749   0.00000  Uiso   1.00
H1117  H     0.57496   0.61431   0.86059   0.00000  Uiso   1.00
H1118  H     0.57495   0.55167   0.85562   0.00000  Uiso   1.00
H1119  H     0.58355   0.57947   0.90905   0.00000  Uiso   1.00
O1120  O     0.47678   0.41799   0.61512   0.00000  Uiso   1.00
C1121  C     0.43394   0.41873   0.62251   0.00000  Uiso   1.00
H1122  H     0.42505   0.44833   0.64439   0.00000  Uiso   1.00
H1123  H     0.42504   0.38569   0.63941   0.00000  Uiso   1.00
H1124  H     0.41645   0.42053   0.59095   0.00000  Uiso   1.00
F1125  F     0.48478   0.41804   0.88540   0.00000  Uiso   1.00
F1126  F     0.51523   0.58196   0.61460   0.00000  Uiso   1.00
F1127  F     0.47583   0.37441   0.54222   0.00000  Uiso   1.00
F1128  F     0.52417   0.62559   0.95778   0.00000  Uiso   1.00
O1129  O     0.37580   0.43186   0.79824   0.00000  Uiso   1.00
C1130  C     0.38836   0.44969   0.83958   0.00000  Uiso   1.00
H1131  H     0.40784   0.48163   0.83634   0.00000  Uiso   1.00
H1132  H     0.40702   0.42254   0.85645   0.00000  Uiso   1.00
H1133  H     0.36162   0.45720   0.86106   0.00000  Uiso   1.00
O1134  O     0.62420   0.56814   0.70176   0.00000  Uiso   1.00
C1135  C     0.61165   0.55029   0.66042   0.00000  Uiso   1.00
H1136  H     0.59301   0.57744   0.64352   0.00000  Uiso   1.00
H1137  H     0.59215   0.51836   0.66366   0.00000  Uiso   1.00
H1138  H     0.63839   0.54275   0.63895   0.00000  Uiso   1.00
O1139  O     0.62531   0.43261   0.80029   0.00000  Uiso   1.00
C1140  C     0.61113   0.45223   0.84032   0.00000  Uiso   1.00
H1141  H     0.61411   0.42546   0.86673   0.00000  Uiso   1.00
H1142  H     0.57817   0.46097   0.83732   0.00000  Uiso   1.00
H1143  H     0.62819   0.48417   0.85132   0.00000  Uiso   1.00
O1144  O     0.37469   0.56740   0.69973   0.00000  Uiso   1.00
C1145  C     0.38887   0.54779   0.65968   0.00000  Uiso   1.00
H1146  H     0.42184   0.53912   0.66266   0.00000  Uiso   1.00
H1147  H     0.38582   0.57454   0.63327   0.00000  Uiso   1.00
H1148  H     0.37185   0.51580   0.64871   0.00000  Uiso   1.00
C1149  C     0.75408   0.49997   0.74941   0.00000  Uiso   1.00
C1150  C     0.91258   0.50003   0.75059   0.00000  Uiso   1.00
C1151  C     0.81666   0.41611   0.52200   0.00000  Uiso   1.00
C1152  C     0.85000   0.58389   0.97800   0.00000  Uiso   1.00
C1153  C     0.68830   0.46655   0.77527   0.00000  Uiso   1.00
C1154  C     0.97836   0.53345   0.72473   0.00000  Uiso   1.00
C1155  C     0.97881   0.46660   0.77575   0.00000  Uiso   1.00
C1156  C     0.68786   0.53341   0.72426   0.00000  Uiso   1.00
C1157  C     0.95717   0.50010   0.75053   0.00000  Uiso   1.00
C1158  C     0.70949   0.49990   0.74948   0.00000  Uiso   1.00
C1159  C     0.85817   0.35824   0.72188   0.00000  Uiso   1.00
C1160  C     0.80849   0.64176   0.77812   0.00000  Uiso   1.00
C1161  C     0.80849   0.35810   0.77811   0.00000  Uiso   1.00
C1162  C     0.85818   0.64190   0.72189   0.00000  Uiso   1.00
C1163  C     0.83282   0.49997   0.66425   0.00000  Uiso   1.00
C1164  C     0.83384   0.50003   0.83575   0.00000  Uiso   1.00
C1165  C     0.84567   0.54160   0.90750   0.00000  Uiso   1.00
C1166  C     0.82100   0.45840   0.59250   0.00000  Uiso   1.00
C1167  C     0.83544   0.50010   0.88422   0.00000  Uiso   1.00
C1168  C     0.83123   0.49990   0.61578   0.00000  Uiso   1.00
C1169  C     0.82680   0.45850   0.90740   0.00000  Uiso   1.00
C1170  C     0.83987   0.54150   0.59260   0.00000  Uiso   1.00
C1171  C     0.82645   0.45827   0.95335   0.00000  Uiso   1.00
C1172  C     0.84022   0.54173   0.54665   0.00000  Uiso   1.00
C1173  C     0.83411   0.50014   0.97677   0.00000  Uiso   1.00
C1174  C     0.83255   0.49986   0.52323   0.00000  Uiso   1.00
C1175  C     0.84333   0.54223   0.95388   0.00000  Uiso   1.00
C1176  C     0.82334   0.45777   0.54612   0.00000  Uiso   1.00
C1177  C     0.81808   0.41663   0.97621   0.00000  Uiso   1.00
C1178  C     0.84859   0.58337   0.52379   0.00000  Uiso   1.00
Cu1179 Cu    0.83333   0.54689   0.75000   0.00000  Uiso   1.00
Cu1180 Cu    0.83333   0.45311   0.75000   0.00000  Uiso   1.00
H1181  H     0.81253   0.38406   0.95870   0.00000  Uiso   1.00
H1182  H     0.85414   0.61594   0.54130   0.00000  Uiso   1.00
H1183  H     0.87805   0.37707   0.69938   0.00000  Uiso   1.00
H1184  H     0.78861   0.62293   0.80062   0.00000  Uiso   1.00
H1185  H     0.78860   0.37681   0.80058   0.00000  Uiso   1.00
H1186  H     0.87807   0.62319   0.69942   0.00000  Uiso   1.00
N1187  N     0.83333   0.61736   0.75000   0.00000  Uiso   1.00
N1188  N     0.83333   0.38264   0.75000   0.00000  Uiso   1.00
O1189  O     0.77321   0.53958   0.74999   0.00000  Uiso   1.00
O1190  O     0.89345   0.46042   0.75001   0.00000  Uiso   1.00
O1191  O     0.89345   0.53958   0.75000   0.00000  Uiso   1.00
O1192  O     0.77321   0.46042   0.74999   0.00000  Uiso   1.00
O1193  O     0.83332   0.53960   0.68513   0.00000  Uiso   1.00
O1194  O     0.83334   0.46040   0.81487   0.00000  Uiso   1.00
O1195  O     0.83334   0.53960   0.81487   0.00000  Uiso   1.00
O1196  O     0.83332   0.46040   0.68513   0.00000  Uiso   1.00
O1197  O     0.85655   0.58201   0.88488   0.00000  Uiso   1.00
C1198  C     0.89939   0.58128   0.87749   0.00000  Uiso   1.00
H1199  H     0.90829   0.61431   0.86059   0.00000  Uiso   1.00
H1200  H     0.90829   0.55167   0.85562   0.00000  Uiso   1.00
H1201  H     0.91688   0.57947   0.90905   0.00000  Uiso   1.00
O1202  O     0.81011   0.41799   0.61512   0.00000  Uiso   1.00
C1203  C     0.76728   0.41873   0.62251   0.00000  Uiso   1.00
H1204  H     0.75838   0.44833   0.64439   0.00000  Uiso   1.00
H1205  H     0.75837   0.38569   0.63941   0.00000  Uiso   1.00
H1206  H     0.74978   0.42053   0.59095   0.00000  Uiso   1.00
F1207  F     0.81811   0.41804   0.88540   0.00000  Uiso   1.00
F1208  F     0.84856   0.58196   0.61460   0.00000  Uiso   1.00
F1209  F     0.80917   0.37441   0.54222   0.00000  Uiso   1.00
F1210  F     0.85750   0.62559   0.95778   0.00000  Uiso   1.00
O1211  O     0.70913   0.43186   0.79824   0.00000  Uiso   1.00
C1212  C     0.72169   0.44969   0.83958   0.00000  Uiso   1.00
H1213  H     0.74117   0.48163   0.83634   0.00000  Uiso   1.00
H1214  H     0.74035   0.42254   0.85645   0.00000  Uiso   1.00
H1215  H     0.69495   0.45720   0.86106   0.00000  Uiso   1.00
O1216  O     0.95753   0.56814   0.70176   0.00000  Uiso   1.00
C1217  C     0.94498   0.55029   0.66042   0.00000  Uiso   1.00
H1218  H     0.92634   0.57744   0.64352   0.00000  Uiso   1.00
H1219  H     0.92549   0.51836   0.66366   0.00000  Uiso   1.00
H1220  H     0.97173   0.54275   0.63895   0.00000  Uiso   1.00
O1221  O     0.95864   0.43261   0.80029   0.00000  Uiso   1.00
C1222  C     0.94446   0.45223   0.84032   0.00000  Uiso   1.00
H1223  H     0.94744   0.42546   0.86673   0.00000  Uiso   1.00
H1224  H     0.91151   0.46097   0.83732   0.00000  Uiso   1.00
H1225  H     0.96152   0.48417   0.85132   0.00000  Uiso   1.00
O1226  O     0.70803   0.56740   0.69973   0.00000  Uiso   1.00
C1227  C     0.72220   0.54779   0.65968   0.00000  Uiso   1.00
H1228  H     0.75517   0.53912   0.66266   0.00000  Uiso   1.00
H1229  H     0.71915   0.57454   0.63327   0.00000  Uiso   1.00
H1230  H     0.70518   0.51580   0.64871   0.00000  Uiso   1.00
C1231  C     0.08742   0.83330   0.74941   0.00000  Uiso   1.00
C1232  C     0.24592   0.83336   0.75059   0.00000  Uiso   1.00
C1233  C     0.15000   0.74944   0.52200   0.00000  Uiso   1.00
C1234  C     0.18334   0.91723   0.97800   0.00000  Uiso   1.00
C1235  C     0.02164   0.79988   0.77527   0.00000  Uiso   1.00
C1236  C     0.31169   0.86678   0.72473   0.00000  Uiso   1.00
C1237  C     0.31214   0.79993   0.77575   0.00000  Uiso   1.00
C1238  C     0.02119   0.86674   0.72426   0.00000  Uiso   1.00
C1239  C     0.29051   0.83343   0.75053   0.00000  Uiso   1.00
C1240  C     0.04283   0.83323   0.74948   0.00000  Uiso   1.00
C1241  C     0.19151   0.69157   0.72188   0.00000  Uiso   1.00
C1242  C     0.14183   0.97510   0.77812   0.00000  Uiso   1.00
C1243  C     0.14182   0.69143   0.77811   0.00000  Uiso   1.00
C1244  C     0.19151   0.97524   0.72189   0.00000  Uiso   1.00
C1245  C     0.16616   0.83331   0.66425   0.00000  Uiso   1.00
C1246  C     0.16718   0.83336   0.83575   0.00000  Uiso   1.00
C1247  C     0.17900   0.87493   0.90750   0.00000  Uiso   1.00
C1248  C     0.15433   0.79173   0.59250   0.00000  Uiso   1.00
C1249  C     0.16877   0.83343   0.88422   0.00000  Uiso   1.00
C1250  C     0.16456   0.83323   0.61578   0.00000  Uiso   1.00
C1251  C     0.16013   0.79183   0.90740   0.00000  Uiso   1.00
C1252  C     0.17320   0.87483   0.59260   0.00000  Uiso   1.00
C1253  C     0.15979   0.79160   0.95335   0.00000  Uiso   1.00
C1254  C     0.17355   0.87506   0.54665   0.00000  Uiso   1.00
C1255  C     0.16745   0.83348   0.97677   0.00000  Uiso   1.00
C1256  C     0.16589   0.83319   0.52323   0.00000  Uiso   1.00
C1257  C     0.17666   0.87556   0.95388   0.00000  Uiso   1.00
C1258  C     0.15667   0.79111   0.54612   0.00000  Uiso   1.00
C1259  C     0.15141   0.74996   0.97621   0.00000  Uiso   1.00
C1260  C     0.18193   0.91671   0.52379   0.00000  Uiso   1.00
Cu1261 Cu    0.16667   0.88022   0.75000   0.00000  Uiso   1.00
Cu1262 Cu    0.16667   0.78645   0.75000   0.00000  Uiso   1.00
H1263  H     0.14587   0.71739   0.95870   0.00000  Uiso   1.00
H1264  H     0.18747   0.94928   0.54130   0.00000  Uiso   1.00
H1265  H     0.21139   0.71040   0.69938   0.00000  Uiso   1.00
H1266  H     0.12195   0.95626   0.80062   0.00000  Uiso   1.00
H1267  H     0.12193   0.71014   0.80058   0.00000  Uiso   1.00
H1268  H     0.21140   0.95652   0.69942   0.00000  Uiso   1.00
N1269  N     0.16667   0.95069   0.75000   0.00000  Uiso   1.00
N1270  N     0.16667   0.71598   0.75000   0.00000  Uiso   1.00
O1271  O     0.10655   0.87291   0.74999   0.00000  Uiso   1.00
O1272  O     0.22679   0.79375   0.75001   0.00000  Uiso   1.00
O1273  O     0.22679   0.87291   0.75000   0.00000  Uiso   1.00
O1274  O     0.10655   0.79375   0.74999   0.00000  Uiso   1.00
O1275  O     0.16666   0.87293   0.68513   0.00000  Uiso   1.00
O1276  O     0.16668   0.79373   0.81487   0.00000  Uiso   1.00
O1277  O     0.16668   0.87293   0.81487   0.00000  Uiso   1.00
O1278  O     0.16666   0.79373   0.68513   0.00000  Uiso   1.00
O1279  O     0.18989   0.91534   0.88488   0.00000  Uiso   1.00
C1280  C     0.23272   0.91461   0.87749   0.00000  Uiso   1.00
H1281  H     0.24163   0.94765   0.86059   0.00000  Uiso   1.00
H1282  H     0.24162   0.88501   0.85562   0.00000  Uiso   1.00
H1283  H     0.25022   0.91281   0.90905   0.00000  Uiso   1.00
O1284  O     0.14345   0.75132   0.61512   0.00000  Uiso   1.00
C1285  C     0.10061   0.75206   0.62251   0.00000  Uiso   1.00
H1286  H     0.09171   0.78167   0.64439   0.00000  Uiso   1.00
H1287  H     0.09170   0.71903   0.63941   0.00000  Uiso   1.00
H1288  H     0.08312   0.75387   0.59095   0.00000  Uiso   1.00
F1289  F     0.15144   0.75137   0.88540   0.00000  Uiso   1.00
F1290  F     0.18190   0.91529   0.61460   0.00000  Uiso   1.00
F1291  F     0.14250   0.70774   0.54222   0.00000  Uiso   1.00
F1292  F     0.19084   0.95892   0.95778   0.00000  Uiso   1.00
O1293  O     0.04247   0.76519   0.79824   0.00000  Uiso   1.00
C1294  C     0.05503   0.78303   0.83958   0.00000  Uiso   1.00
H1295  H     0.07450   0.81497   0.83634   0.00000  Uiso   1.00
H1296  H     0.07369   0.75587   0.85645   0.00000  Uiso   1.00
H1297  H     0.02828   0.79053   0.86106   0.00000  Uiso   1.00
O1298  O     0.29087   0.90147   0.70176   0.00000  Uiso   1.00
C1299  C     0.27831   0.88362   0.66042   0.00000  Uiso   1.00
H1300  H     0.25967   0.91078   0.64352   0.00000  Uiso   1.00
H1301  H     0.25882   0.85170   0.66366   0.00000  Uiso   1.00
H1302  H     0.30506   0.87609   0.63895   0.00000  Uiso   1.00
O1303  O     0.29197   0.76594   0.80029   0.00000  Uiso   1.00
C1304  C     0.27779   0.78556   0.84032   0.00000  Uiso   1.00
H1305  H     0.28078   0.75879   0.86673   0.00000  Uiso   1.00
H1306  H     0.24484   0.79430   0.83732   0.00000  Uiso   1.00
H1307  H     0.29486   0.81750   0.85132   0.00000  Uiso   1.00
O1308  O     0.04136   0.90073   0.69973   0.00000  Uiso   1.00
C1309  C     0.05553   0.88112   0.65968   0.00000  Uiso   1.00
H1310  H     0.08850   0.87245   0.66266   0.00000  Uiso   1.00
H1311  H     0.05248   0.90787   0.63327   0.00000  Uiso   1.00
H1312  H     0.03852   0.84914   0.64871   0.00000  Uiso   1.00
C1313  C     0.42075   0.83330   0.74941   0.00000  Uiso   1.00
C1314  C     0.57925   0.83336   0.75059   0.00000  Uiso   1.00
C1315  C     0.48333   0.74944   0.52200   0.00000  Uiso   1.00
C1316  C     0.51667   0.91723   0.97800   0.00000  Uiso   1.00
C1317  C     0.35497   0.79988   0.77527   0.00000  Uiso   1.00
C1318  C     0.64503   0.86678   0.72473   0.00000  Uiso   1.00
C1319  C     0.64547   0.79993   0.77575   0.00000  Uiso   1.00
C1320  C     0.35453   0.86674   0.72426   0.00000  Uiso   1.00
C1321  C     0.62384   0.83343   0.75053   0.00000  Uiso   1.00
C1322  C     0.37616   0.83323   0.74948   0.00000  Uiso   1.00
C1323  C     0.52484   0.69157   0.72188   0.00000  Uiso   1.00
C1324  C     0.47516   0.97510   0.77812   0.00000  Uiso   1.00
C1325  C     0.47515   0.69143   0.77811   0.00000  Uiso   1.00
C1326  C     0.52485   0.97524   0.72189   0.00000  Uiso   1.00
C1327  C     0.49949   0.83331   0.66425   0.00000  Uiso   1.00
C1328  C     0.50051   0.83336   0.83575   0.00000  Uiso   1.00
C1329  C     0.51233   0.87493   0.90750   0.00000  Uiso   1.00
C1330  C     0.48767   0.79173   0.59250   0.00000  Uiso   1.00
C1331  C     0.50211   0.83343   0.88422   0.00000  Uiso   1.00
C1332  C     0.49789   0.83323   0.61578   0.00000  Uiso   1.00
C1333  C     0.49347   0.79183   0.90740   0.00000  Uiso   1.00
C1334  C     0.50654   0.87483   0.59260   0.00000  Uiso   1.00
C1335  C     0.49312   0.79160   0.95335   0.00000  Uiso   1.00
C1336  C     0.50688   0.87506   0.54665   0.00000  Uiso   1.00
C1337  C     0.50078   0.83348   0.97677   0.00000  Uiso   1.00
C1338  C     0.49922   0.83319   0.52323   0.00000  Uiso   1.00
C1339  C     0.51000   0.87556   0.95388   0.00000  Uiso   1.00
C1340  C     0.49001   0.79111   0.54612   0.00000  Uiso   1.00
C1341  C     0.48474   0.74996   0.97621   0.00000  Uiso   1.00
C1342  C     0.51526   0.91671   0.52379   0.00000  Uiso   1.00
Cu1343 Cu    0.50000   0.88022   0.75000   0.00000  Uiso   1.00
Cu1344 Cu    0.50000   0.78645   0.75000   0.00000  Uiso   1.00
H1345  H     0.47920   0.71739   0.95870   0.00000  Uiso   1.00
H1346  H     0.52080   0.94928   0.54130   0.00000  Uiso   1.00
H1347  H     0.54472   0.71040   0.69938   0.00000  Uiso   1.00
H1348  H     0.45528   0.95626   0.80062   0.00000  Uiso   1.00
H1349  H     0.45527   0.71014   0.80058   0.00000  Uiso   1.00
H1350  H     0.54473   0.95652   0.69942   0.00000  Uiso   1.00
N1351  N     0.50000   0.95069   0.75000   0.00000  Uiso   1.00
N1352  N     0.50000   0.71598   0.75000   0.00000  Uiso   1.00
O1353  O     0.43988   0.87291   0.74999   0.00000  Uiso   1.00
O1354  O     0.56012   0.79375   0.75001   0.00000  Uiso   1.00
O1355  O     0.56012   0.87291   0.75000   0.00000  Uiso   1.00
O1356  O     0.43988   0.79375   0.74999   0.00000  Uiso   1.00
O1357  O     0.49999   0.87293   0.68513   0.00000  Uiso   1.00
O1358  O     0.50001   0.79373   0.81487   0.00000  Uiso   1.00
O1359  O     0.50001   0.87293   0.81487   0.00000  Uiso   1.00
O1360  O     0.49999   0.79373   0.68513   0.00000  Uiso   1.00
O1361  O     0.52322   0.91534   0.88488   0.00000  Uiso   1.00
C1362  C     0.56606   0.91461   0.87749   0.00000  Uiso   1.00
H1363  H     0.57496   0.94765   0.86059   0.00000  Uiso   1.00
H1364  H     0.57495   0.88501   0.85562   0.00000  Uiso   1.00
H1365  H     0.58355   0.91281   0.90905   0.00000  Uiso   1.00
O1366  O     0.47678   0.75132   0.61512   0.00000  Uiso   1.00
C1367  C     0.43394   0.75206   0.62251   0.00000  Uiso   1.00
H1368  H     0.42505   0.78167   0.64439   0.00000  Uiso   1.00
H1369  H     0.42504   0.71903   0.63941   0.00000  Uiso   1.00
H1370  H     0.41645   0.75387   0.59095   0.00000  Uiso   1.00
F1371  F     0.48478   0.75137   0.88540   0.00000  Uiso   1.00
F1372  F     0.51523   0.91529   0.61460   0.00000  Uiso   1.00
F1373  F     0.47583   0.70774   0.54222   0.00000  Uiso   1.00
F1374  F     0.52417   0.95892   0.95778   0.00000  Uiso   1.00
O1375  O     0.37580   0.76519   0.79824   0.00000  Uiso   1.00
C1376  C     0.38836   0.78303   0.83958   0.00000  Uiso   1.00
H1377  H     0.40784   0.81497   0.83634   0.00000  Uiso   1.00
H1378  H     0.40702   0.75587   0.85645   0.00000  Uiso   1.00
H1379  H     0.36162   0.79053   0.86106   0.00000  Uiso   1.00
O1380  O     0.62420   0.90147   0.70176   0.00000  Uiso   1.00
C1381  C     0.61165   0.88362   0.66042   0.00000  Uiso   1.00
H1382  H     0.59301   0.91078   0.64352   0.00000  Uiso   1.00
H1383  H     0.59215   0.85170   0.66366   0.00000  Uiso   1.00
H1384  H     0.63839   0.87609   0.63895   0.00000  Uiso   1.00
O1385  O     0.62531   0.76594   0.80029   0.00000  Uiso   1.00
C1386  C     0.61113   0.78556   0.84032   0.00000  Uiso   1.00
H1387  H     0.61411   0.75879   0.86673   0.00000  Uiso   1.00
H1388  H     0.57817   0.79430   0.83732   0.00000  Uiso   1.00
H1389  H     0.62819   0.81750   0.85132   0.00000  Uiso   1.00
O1390  O     0.37469   0.90073   0.69973   0.00000  Uiso   1.00
C1391  C     0.38887   0.88112   0.65968   0.00000  Uiso   1.00
H1392  H     0.42184   0.87245   0.66266   0.00000  Uiso   1.00
H1393  H     0.38582   0.90787   0.63327   0.00000  Uiso   1.00
H1394  H     0.37185   0.84914   0.64871   0.00000  Uiso   1.00
C1395  C     0.75408   0.83330   0.74941   0.00000  Uiso   1.00
C1396  C     0.91258   0.83336   0.75059   0.00000  Uiso   1.00
C1397  C     0.81666   0.74944   0.52200   0.00000  Uiso   1.00
C1398  C     0.85000   0.91723   0.97800   0.00000  Uiso   1.00
C1399  C     0.68830   0.79988   0.77527   0.00000  Uiso   1.00
C1400  C     0.97836   0.86678   0.72473   0.00000  Uiso   1.00
C1401  C     0.97881   0.79993   0.77575   0.00000  Uiso   1.00
C1402  C     0.68786   0.86674   0.72426   0.00000  Uiso   1.00
C1403  C     0.95717   0.83343   0.75053   0.00000  Uiso   1.00
C1404  C     0.70949   0.83323   0.74948   0.00000  Uiso   1.00
C1405  C     0.85817   0.69157   0.72188   0.00000  Uiso   1.00
C1406  C     0.80849   0.97510   0.77812   0.00000  Uiso   1.00
C1407  C     0.80849   0.69143   0.77811   0.00000  Uiso   1.00
C1408  C     0.85818   0.97524   0.72189   0.00000  Uiso   1.00
C1409  C     0.83282   0.83331   0.66425   0.00000  Uiso   1.00
C1410  C     0.83384   0.83336   0.83575   0.00000  Uiso   1.00
C1411  C     0.84567   0.87493   0.90750   0.00000  Uiso   1.00
C1412  C     0.82100   0.79173   0.59250   0.00000  Uiso   1.00
C1413  C     0.83544   0.83343   0.88422   0.00000  Uiso   1.00
C1414  C     0.83123   0.83323   0.61578   0.00000  Uiso   1.00
C1415  C     0.82680   0.79183   0.90740   0.00000  Uiso   1.00
C1416  C     0.83987   0.87483   0.59260   0.00000  Uiso   1.00
C1417  C     0.82645   0.79160   0.95335   0.00000  Uiso   1.00
C1418  C     0.84022   0.87506   0.54665   0.00000  Uiso   1.00
C1419  C     0.83411   0.83348   0.97677   0.00000  Uiso   1.00
C1420  C     0.83255   0.83319   0.52323   0.00000  Uiso   1.00
C1421  C     0.84333   0.87556   0.95388   0.00000  Uiso   1.00
C1422  C     0.82334   0.79111   0.54612   0.00000  Uiso   1.00
C1423  C     0.81808   0.74996   0.97621   0.00000  Uiso   1.00
C1424  C     0.84859   0.91671   0.52379   0.00000  Uiso   1.00
Cu1425 Cu    0.83333   0.88022   0.75000   0.00000  Uiso   1.00
Cu1426 Cu    0.83333   0.78645   0.75000   0.00000  Uiso   1.00
H1427  H     0.81253   0.71739   0.95870   0.00000  Uiso   1.00
H1428  H     0.85414   0.94928   0.54130   0.00000  Uiso   1.00
H1429  H     0.87805   0.71040   0.69938   0.00000  Uiso   1.00
H1430  H     0.78861   0.95626   0.80062   0.00000  Uiso   1.00
H1431  H     0.78860   0.71014   0.80058   0.00000  Uiso   1.00
H1432  H     0.87807   0.95652   0.69942   0.00000  Uiso   1.00
N1433  N     0.83333   0.95069   0.75000   0.00000  Uiso   1.00
N1434  N     0.83333   0.71598   0.75000   0.00000  Uiso   1.00
O1435  O     0.77321   0.87291   0.74999   0.00000  Uiso   1.00
O1436  O     0.89345   0.79375   0.75001   0.00000  Uiso   1.00
O1437  O     0.89345   0.87291   0.75000   0.00000  Uiso   1.00
O1438  O     0.77321   0.79375   0.74999   0.00000  Uiso   1.00
O1439  O     0.83332   0.87293   0.68513   0.00000  Uiso   1.00
O1440  O     0.83334   0.79373   0.81487   0.00000  Uiso   1.00
O1441  O     0.83334   0.87293   0.81487   0.00000  Uiso   1.00
O1442  O     0.83332   0.79373   0.68513   0.00000  Uiso   1.00
O1443  O     0.85655   0.91534   0.88488   0.00000  Uiso   1.00
C1444  C     0.89939   0.91461   0.87749   0.00000  Uiso   1.00
H1445  H     0.90829   0.94765   0.86059   0.00000  Uiso   1.00
H1446  H     0.90829   0.88501   0.85562   0.00000  Uiso   1.00
H1447  H     0.91688   0.91281   0.90905   0.00000  Uiso   1.00
O1448  O     0.81011   0.75132   0.61512   0.00000  Uiso   1.00
C1449  C     0.76728   0.75206   0.62251   0.00000  Uiso   1.00
H1450  H     0.75838   0.78167   0.64439   0.00000  Uiso   1.00
H1451  H     0.75837   0.71903   0.63941   0.00000  Uiso   1.00
H1452  H     0.74978   0.75387   0.59095   0.00000  Uiso   1.00
F1453  F     0.81811   0.75137   0.88540   0.00000  Uiso   1.00
F1454  F     0.84856   0.91529   0.61460   0.00000  Uiso   1.00
F1455  F     0.80917   0.70774   0.54222   0.00000  Uiso   1.00
F1456  F     0.85750   0.95892   0.95778   0.00000  Uiso   1.00
O1457  O     0.70913   0.76519   0.79824   0.00000  Uiso   1.00
C1458  C     0.72169   0.78303   0.83958   0.00000  Uiso   1.00
H1459  H     0.74117   0.81497   0.83634   0.00000  Uiso   1.00
H1460  H     0.74035   0.75587   0.85645   0.00000  Uiso   1.00
H1461  H     0.69495   0.79053   0.86106   0.00000  Uiso   1.00
O1462  O     0.95753   0.90147   0.70176   0.00000  Uiso   1.00
C1463  C     0.94498   0.88362   0.66042   0.00000  Uiso   1.00
H1464  H     0.92634   0.91078   0.64352   0.00000  Uiso   1.00
H1465  H     0.92549   0.85170   0.66366   0.00000  Uiso   1.00
H1466  H     0.97173   0.87609   0.63895   0.00000  Uiso   1.00
O1467  O     0.95864   0.76594   0.80029   0.00000  Uiso   1.00
C1468  C     0.94446   0.78556   0.84032   0.00000  Uiso   1.00
H1469  H     0.94744   0.75879   0.86673   0.00000  Uiso   1.00
H1470  H     0.91151   0.79430   0.83732   0.00000  Uiso   1.00
H1471  H     0.96152   0.81750   0.85132   0.00000  Uiso   1.00
O1472  O     0.70803   0.90073   0.69973   0.00000  Uiso   1.00
C1473  C     0.72220   0.88112   0.65968   0.00000  Uiso   1.00
H1474  H     0.75517   0.87245   0.66266   0.00000  Uiso   1.00
H1475  H     0.71915   0.90787   0.63327   0.00000  Uiso   1.00
H1476  H     0.70518   0.84914   0.64871   0.00000  Uiso   1.00
loop_
_geom_bond_atom_site_label_1
_geom_bond_atom_site_label_2
_geom_bond_distance
_geom_bond_site_symmetry_2
_ccdc_geom_bond_type
C1     O44     1.288   .     A
C1     O41     1.287   .     A
C1     C10     1.450   .     S
C2     O43     1.288   .     A
C2     O42     1.287   .     A
C2     C9      1.450   .     S
C3     C28     1.410   .     A
C3     F61     1.358   .     S
C3     C767    1.388   1_554 S
C4     F62     1.358   .     S
C4     C27     1.410   .     A
C4     C768    1.388   .     S
C5     O63     1.386   .     S
C5     C10     1.409   .     A
C5     C171    1.393   1_455 S
C6     C9      1.409   .     A
C6     O68     1.386   .     S
C6     C90     1.393   .     S
C7     O73     1.385   .     S
C7     C9      1.411   .     A
C7     C87     1.393   .     S
C8     O78     1.385   .     S
C8     C10     1.411   .     A
C8     C170    1.393   1_455 S
C11    N40     1.366   .     A
C11    H35     1.082   .     S
C11    C506    1.415   1_545 S
C12    H36     1.082   .     S
C12    N39     1.366   .     A
C12    C259    1.415   .     S
C13    N40     1.366   .     A
C13    H37     1.081   .     S
C13    C504    1.415   1_545 S
C14    N39     1.366   .     A
C14    H38     1.081   .     S
C14    C257    1.415   .     S
C15    O48     1.292   .     A
C15    C20     1.470   .     S
C15    O45     1.294   .     A
C16    O47     1.292   .     A
C16    O46     1.294   .     A
C16    C19     1.470   .     S
C17    C27     1.408   .     A
C17    O49     1.385   .     S
C17    C19     1.416   .     A
C18    C28     1.408   .     A
C18    C20     1.416   .     A
C18    O54     1.385   .     S
C19    C21     1.405   .     A
C20    C22     1.405   .     A
C21    F59     1.361   .     S
C21    C23     1.393   .     A
C22    F60     1.361   .     S
C22    C24     1.393   .     A
C23    C29     1.400   .     A
C23    C25     1.410   .     A
C24    C26     1.410   .     A
C24    C30     1.400   .     A
C25    C27     1.416   .     A
C25    C764    1.409   .     S
C26    C28     1.416   .     A
C26    C763    1.409   1_554 S
C29    H33     1.084   .     S
C29    C741    1.388   .     S
C30    H34     1.084   .     S
C30    C742    1.388   1_554 S
Cu31   O47     1.977   .     S
Cu31   Cu32    2.671   .     S
Cu31   O43     1.967   .     S
Cu31   O41     1.966   .     S
Cu31   N39     2.007   .     S
Cu31   O45     1.977   .     S
Cu32   O48     1.977   .     S
Cu32   O44     1.967   .     S
Cu32   O46     1.977   .     S
Cu32   N40     2.007   .     S
Cu32   O42     1.966   .     S
O49    C50     1.412   .     S
C50    H52     1.112   .     S
C50    H53     1.113   .     S
C50    H51     1.109   .     S
O54    C55     1.412   .     S
C55    H56     1.112   .     S
C55    H57     1.109   .     S
C55    H58     1.113   .     S
O63    C64     1.412   .     S
C64    H67     1.108   .     S
C64    H66     1.108   .     S
C64    H65     1.112   .     S
O68    C69     1.412   .     S
C69    H71     1.112   .     S
C69    H72     1.108   .     S
C69    H70     1.108   .     S
O73    C74     1.414   .     S
C74    H76     1.105   .     S
C74    H77     1.116   .     S
C74    H75     1.109   .     S
O78    C79     1.414   .     S
C79    H81     1.109   .     S
C79    H80     1.105   .     S
C79    H82     1.116   .     S
C83    O126    1.288   .     A
C83    O123    1.287   .     A
C83    C92     1.450   .     S
C84    O125    1.288   .     A
C84    O124    1.287   .     A
C84    C91     1.450   .     S
C85    C110    1.410   .     A
C85    F143    1.358   .     S
C85    C849    1.388   1_554 S
C86    F144    1.358   .     S
C86    C109    1.410   .     A
C86    C850    1.388   .     S
C87    O145    1.386   .     S
C87    C92     1.409   .     A
C88    C91     1.409   .     A
C88    O150    1.386   .     S
C88    C172    1.393   .     S
C89    O155    1.385   .     S
C89    C91     1.411   .     A
C89    C169    1.393   .     S
C90    O160    1.385   .     S
C90    C92     1.411   .     A
C93    N122    1.366   .     A
C93    H117    1.082   .     S
C93    C588    1.415   1_545 S
C94    H118    1.082   .     S
C94    N121    1.366   .     A
C94    C341    1.415   .     S
C95    N122    1.366   .     A
C95    H119    1.081   .     S
C95    C586    1.415   1_545 S
C96    N121    1.366   .     A
C96    H120    1.081   .     S
C96    C339    1.415   .     S
C97    O130    1.292   .     A
C97    C102    1.470   .     S
C97    O127    1.294   .     A
C98    O129    1.292   .     A
C98    O128    1.294   .     A
C98    C101    1.470   .     S
C99    C109    1.408   .     A
C99    O131    1.385   .     S
C99    C101    1.416   .     A
C100   C110    1.408   .     A
C100   C102    1.416   .     A
C100   O136    1.385   .     S
C101   C103    1.405   .     A
C102   C104    1.405   .     A
C103   F141    1.361   .     S
C103   C105    1.393   .     A
C104   F142    1.361   .     S
C104   C106    1.393   .     A
C105   C111    1.400   .     A
C105   C107    1.410   .     A
C106   C108    1.410   .     A
C106   C112    1.400   .     A
C107   C109    1.416   .     A
C107   C846    1.409   .     S
C108   C110    1.416   .     A
C108   C845    1.409   1_554 S
C111   H115    1.084   .     S
C111   C823    1.388   .     S
C112   H116    1.084   .     S
C112   C824    1.388   1_554 S
Cu113  O129    1.977   .     S
Cu113  Cu114   2.671   .     S
Cu113  O125    1.967   .     S
Cu113  O123    1.966   .     S
Cu113  N121    2.007   .     S
Cu113  O127    1.977   .     S
Cu114  O130    1.977   .     S
Cu114  O126    1.967   .     S
Cu114  O128    1.977   .     S
Cu114  N122    2.007   .     S
Cu114  O124    1.966   .     S
O131   C132    1.412   .     S
C132   H134    1.112   .     S
C132   H135    1.113   .     S
C132   H133    1.109   .     S
O136   C137    1.412   .     S
C137   H138    1.112   .     S
C137   H139    1.109   .     S
C137   H140    1.113   .     S
O145   C146    1.412   .     S
C146   H149    1.108   .     S
C146   H148    1.108   .     S
C146   H147    1.112   .     S
O150   C151    1.412   .     S
C151   H153    1.112   .     S
C151   H154    1.108   .     S
C151   H152    1.108   .     S
O155   C156    1.414   .     S
C156   H158    1.105   .     S
C156   H159    1.116   .     S
C156   H157    1.109   .     S
O160   C161    1.414   .     S
C161   H163    1.109   .     S
C161   H162    1.105   .     S
C161   H164    1.116   .     S
C165   O208    1.288   .     A
C165   O205    1.287   .     A
C165   C174    1.450   .     S
C166   O207    1.288   .     A
C166   O206    1.287   .     A
C166   C173    1.450   .     S
C167   C192    1.410   .     A
C167   F225    1.358   .     S
C167   C931    1.388   1_554 S
C168   F226    1.358   .     S
C168   C191    1.410   .     A
C168   C932    1.388   .     S
C169   O227    1.386   .     S
C169   C174    1.409   .     A
C170   C173    1.409   .     A
C170   O232    1.386   .     S
C170   C8      1.393   1_655 S
C171   O237    1.385   .     S
C171   C173    1.411   .     A
C171   C5      1.393   1_655 S
C172   O242    1.385   .     S
C172   C174    1.411   .     A
C175   N204    1.366   .     A
C175   H199    1.082   .     S
C175   C670    1.415   1_545 S
C176   H200    1.082   .     S
C176   N203    1.366   .     A
C176   C423    1.415   .     S
C177   N204    1.366   .     A
C177   H201    1.081   .     S
C177   C668    1.415   1_545 S
C178   N203    1.366   .     A
C178   H202    1.081   .     S
C178   C421    1.415   .     S
C179   O212    1.292   .     A
C179   C184    1.470   .     S
C179   O209    1.294   .     A
C180   O211    1.292   .     A
C180   O210    1.294   .     A
C180   C183    1.470   .     S
C181   C191    1.408   .     A
C181   O213    1.385   .     S
C181   C183    1.416   .     A
C182   C192    1.408   .     A
C182   C184    1.416   .     A
C182   O218    1.385   .     S
C183   C185    1.405   .     A
C184   C186    1.405   .     A
C185   F223    1.361   .     S
C185   C187    1.393   .     A
C186   F224    1.361   .     S
C186   C188    1.393   .     A
C187   C193    1.400   .     A
C187   C189    1.410   .     A
C188   C190    1.410   .     A
C188   C194    1.400   .     A
C189   C191    1.416   .     A
C189   C928    1.409   .     S
C190   C192    1.416   .     A
C190   C927    1.409   1_554 S
C193   H197    1.084   .     S
C193   C905    1.388   .     S
C194   H198    1.084   .     S
C194   C906    1.388   1_554 S
Cu195  O211    1.977   .     S
Cu195  Cu196   2.671   .     S
Cu195  O207    1.967   .     S
Cu195  O205    1.966   .     S
Cu195  N203    2.007   .     S
Cu195  O209    1.977   .     S
Cu196  O212    1.977   .     S
Cu196  O208    1.967   .     S
Cu196  O210    1.977   .     S
Cu196  N204    2.007   .     S
Cu196  O206    1.966   .     S
O213   C214    1.412   .     S
C214   H216    1.112   .     S
C214   H217    1.113   .     S
C214   H215    1.109   .     S
O218   C219    1.412   .     S
C219   H220    1.112   .     S
C219   H221    1.109   .     S
C219   H222    1.113   .     S
O227   C228    1.412   .     S
C228   H231    1.108   .     S
C228   H230    1.108   .     S
C228   H229    1.112   .     S
O232   C233    1.412   .     S
C233   H235    1.112   .     S
C233   H236    1.108   .     S
C233   H234    1.108   .     S
O237   C238    1.414   .     S
C238   H240    1.105   .     S
C238   H241    1.116   .     S
C238   H239    1.109   .     S
O242   C243    1.414   .     S
C243   H245    1.109   .     S
C243   H244    1.105   .     S
C243   H246    1.116   .     S
C247   O290    1.288   .     A
C247   O287    1.287   .     A
C247   C256    1.450   .     S
C248   O289    1.288   .     A
C248   O288    1.287   .     A
C248   C255    1.450   .     S
C249   C274    1.410   .     A
C249   F307    1.358   .     S
C249   C1013   1.388   1_554 S
C250   F308    1.358   .     S
C250   C273    1.410   .     A
C250   C1014   1.388   .     S
C251   O309    1.386   .     S
C251   C256    1.409   .     A
C251   C417    1.393   1_455 S
C252   C255    1.409   .     A
C252   O314    1.386   .     S
C252   C336    1.393   .     S
C253   O319    1.385   .     S
C253   C255    1.411   .     A
C253   C333    1.393   .     S
C254   O324    1.385   .     S
C254   C256    1.411   .     A
C254   C416    1.393   1_455 S
C257   N286    1.366   .     A
C257   H281    1.082   .     S
C258   H282    1.082   .     S
C258   N285    1.366   .     A
C258   C505    1.415   .     S
C259   N286    1.366   .     A
C259   H283    1.081   .     S
C260   N285    1.366   .     A
C260   H284    1.081   .     S
C260   C503    1.415   .     S
C261   O294    1.292   .     A
C261   C266    1.470   .     S
C261   O291    1.294   .     A
C262   O293    1.292   .     A
C262   O292    1.294   .     A
C262   C265    1.470   .     S
C263   C273    1.408   .     A
C263   O295    1.385   .     S
C263   C265    1.416   .     A
C264   C274    1.408   .     A
C264   C266    1.416   .     A
C264   O300    1.385   .     S
C265   C267    1.405   .     A
C266   C268    1.405   .     A
C267   F305    1.361   .     S
C267   C269    1.393   .     A
C268   F306    1.361   .     S
C268   C270    1.393   .     A
C269   C275    1.400   .     A
C269   C271    1.410   .     A
C270   C272    1.410   .     A
C270   C276    1.400   .     A
C271   C273    1.416   .     A
C271   C1010   1.409   .     S
C272   C274    1.416   .     A
C272   C1009   1.409   1_554 S
C275   H279    1.084   .     S
C275   C987    1.388   .     S
C276   H280    1.084   .     S
C276   C988    1.388   1_554 S
Cu277  O293    1.977   .     S
Cu277  Cu278   2.671   .     S
Cu277  O289    1.967   .     S
Cu277  O287    1.966   .     S
Cu277  N285    2.007   .     S
Cu277  O291    1.977   .     S
Cu278  O294    1.977   .     S
Cu278  O290    1.967   .     S
Cu278  O292    1.977   .     S
Cu278  N286    2.007   .     S
Cu278  O288    1.966   .     S
O295   C296    1.412   .     S
C296   H298    1.112   .     S
C296   H299    1.113   .     S
C296   H297    1.109   .     S
O300   C301    1.412   .     S
C301   H302    1.112   .     S
C301   H303    1.109   .     S
C301   H304    1.113   .     S
O309   C310    1.412   .     S
C310   H313    1.108   .     S
C310   H312    1.108   .     S
C310   H311    1.112   .     S
O314   C315    1.412   .     S
C315   H317    1.112   .     S
C315   H318    1.108   .     S
C315   H316    1.108   .     S
O319   C320    1.414   .     S
C320   H322    1.105   .     S
C320   H323    1.116   .     S
C320   H321    1.109   .     S
O324   C325    1.414   .     S
C325   H327    1.109   .     S
C325   H326    1.105   .     S
C325   H328    1.116   .     S
C329   O372    1.288   .     A
C329   O369    1.287   .     A
C329   C338    1.450   .     S
C330   O371    1.288   .     A
C330   O370    1.287   .     A
C330   C337    1.450   .     S
C331   C356    1.410   .     A
C331   F389    1.358   .     S
C331   C1095   1.388   1_554 S
C332   F390    1.358   .     S
C332   C355    1.410   .     A
C332   C1096   1.388   .     S
C333   O391    1.386   .     S
C333   C338    1.409   .     A
C334   C337    1.409   .     A
C334   O396    1.386   .     S
C334   C418    1.393   .     S
C335   O401    1.385   .     S
C335   C337    1.411   .     A
C335   C415    1.393   .     S
C336   O406    1.385   .     S
C336   C338    1.411   .     A
C339   N368    1.366   .     A
C339   H363    1.082   .     S
C340   H364    1.082   .     S
C340   N367    1.366   .     A
C340   C587    1.415   .     S
C341   N368    1.366   .     A
C341   H365    1.081   .     S
C342   N367    1.366   .     A
C342   H366    1.081   .     S
C342   C585    1.415   .     S
C343   O376    1.292   .     A
C343   C348    1.470   .     S
C343   O373    1.294   .     A
C344   O375    1.292   .     A
C344   O374    1.294   .     A
C344   C347    1.470   .     S
C345   C355    1.408   .     A
C345   O377    1.385   .     S
C345   C347    1.416   .     A
C346   C356    1.408   .     A
C346   C348    1.416   .     A
C346   O382    1.385   .     S
C347   C349    1.405   .     A
C348   C350    1.405   .     A
C349   F387    1.361   .     S
C349   C351    1.393   .     A
C350   F388    1.361   .     S
C350   C352    1.393   .     A
C351   C357    1.400   .     A
C351   C353    1.410   .     A
C352   C354    1.410   .     A
C352   C358    1.400   .     A
C353   C355    1.416   .     A
C353   C1092   1.409   .     S
C354   C356    1.416   .     A
C354   C1091   1.409   1_554 S
C357   H361    1.084   .     S
C357   C1069   1.388   .     S
C358   H362    1.084   .     S
C358   C1070   1.388   1_554 S
Cu359  O375    1.977   .     S
Cu359  Cu360   2.671   .     S
Cu359  O371    1.967   .     S
Cu359  O369    1.966   .     S
Cu359  N367    2.007   .     S
Cu359  O373    1.977   .     S
Cu360  O376    1.977   .     S
Cu360  O372    1.967   .     S
Cu360  O374    1.977   .     S
Cu360  N368    2.007   .     S
Cu360  O370    1.966   .     S
O377   C378    1.412   .     S
C378   H380    1.112   .     S
C378   H381    1.113   .     S
C378   H379    1.109   .     S
O382   C383    1.412   .     S
C383   H384    1.112   .     S
C383   H385    1.109   .     S
C383   H386    1.113   .     S
O391   C392    1.412   .     S
C392   H395    1.108   .     S
C392   H394    1.108   .     S
C392   H393    1.112   .     S
O396   C397    1.412   .     S
C397   H399    1.112   .     S
C397   H400    1.108   .     S
C397   H398    1.108   .     S
O401   C402    1.414   .     S
C402   H404    1.105   .     S
C402   H405    1.116   .     S
C402   H403    1.109   .     S
O406   C407    1.414   .     S
C407   H409    1.109   .     S
C407   H408    1.105   .     S
C407   H410    1.116   .     S
C411   O454    1.288   .     A
C411   O451    1.287   .     A
C411   C420    1.450   .     S
C412   O453    1.288   .     A
C412   O452    1.287   .     A
C412   C419    1.450   .     S
C413   C438    1.410   .     A
C413   F471    1.358   .     S
C413   C1177   1.388   1_554 S
C414   F472    1.358   .     S
C414   C437    1.410   .     A
C414   C1178   1.388   .     S
C415   O473    1.386   .     S
C415   C420    1.409   .     A
C416   C419    1.409   .     A
C416   O478    1.386   .     S
C416   C254    1.393   1_655 S
C417   O483    1.385   .     S
C417   C419    1.411   .     A
C417   C251    1.393   1_655 S
C418   O488    1.385   .     S
C418   C420    1.411   .     A
C421   N450    1.366   .     A
C421   H445    1.082   .     S
C422   H446    1.082   .     S
C422   N449    1.366   .     A
C422   C669    1.415   .     S
C423   N450    1.366   .     A
C423   H447    1.081   .     S
C424   N449    1.366   .     A
C424   H448    1.081   .     S
C424   C667    1.415   .     S
C425   O458    1.292   .     A
C425   C430    1.470   .     S
C425   O455    1.294   .     A
C426   O457    1.292   .     A
C426   O456    1.294   .     A
C426   C429    1.470   .     S
C427   C437    1.408   .     A
C427   O459    1.385   .     S
C427   C429    1.416   .     A
C428   C438    1.408   .     A
C428   C430    1.416   .     A
C428   O464    1.385   .     S
C429   C431    1.405   .     A
C430   C432    1.405   .     A
C431   F469    1.361   .     S
C431   C433    1.393   .     A
C432   F470    1.361   .     S
C432   C434    1.393   .     A
C433   C439    1.400   .     A
C433   C435    1.410   .     A
C434   C436    1.410   .     A
C434   C440    1.400   .     A
C435   C437    1.416   .     A
C435   C1174   1.409   .     S
C436   C438    1.416   .     A
C436   C1173   1.409   1_554 S
C439   H443    1.084   .     S
C439   C1151   1.388   .     S
C440   H444    1.084   .     S
C440   C1152   1.388   1_554 S
Cu441  O457    1.977   .     S
Cu441  Cu442   2.671   .     S
Cu441  O453    1.967   .     S
Cu441  O451    1.966   .     S
Cu441  N449    2.007   .     S
Cu441  O455    1.977   .     S
Cu442  O458    1.977   .     S
Cu442  O454    1.967   .     S
Cu442  O456    1.977   .     S
Cu442  N450    2.007   .     S
Cu442  O452    1.966   .     S
O459   C460    1.412   .     S
C460   H462    1.112   .     S
C460   H463    1.113   .     S
C460   H461    1.109   .     S
O464   C465    1.412   .     S
C465   H466    1.112   .     S
C465   H467    1.109   .     S
C465   H468    1.113   .     S
O473   C474    1.412   .     S
C474   H477    1.108   .     S
C474   H476    1.108   .     S
C474   H475    1.112   .     S
O478   C479    1.412   .     S
C479   H481    1.112   .     S
C479   H482    1.108   .     S
C479   H480    1.108   .     S
O483   C484    1.414   .     S
C484   H486    1.105   .     S
C484   H487    1.116   .     S
C484   H485    1.109   .     S
O488   C489    1.414   .     S
C489   H491    1.109   .     S
C489   H490    1.105   .     S
C489   H492    1.116   .     S
C493   O536    1.288   .     A
C493   O533    1.287   .     A
C493   C502    1.450   .     S
C494   O535    1.288   .     A
C494   O534    1.287   .     A
C494   C501    1.450   .     S
C495   C520    1.410   .     A
C495   F553    1.358   .     S
C495   C1259   1.388   1_554 S
C496   F554    1.358   .     S
C496   C519    1.410   .     A
C496   C1260   1.388   .     S
C497   O555    1.386   .     S
C497   C502    1.409   .     A
C497   C663    1.393   1_455 S
C498   C501    1.409   .     A
C498   O560    1.386   .     S
C498   C582    1.393   .     S
C499   O565    1.385   .     S
C499   C501    1.411   .     A
C499   C579    1.393   .     S
C500   O570    1.385   .     S
C500   C502    1.411   .     A
C500   C662    1.393   1_455 S
C503   N532    1.366   .     A
C503   H527    1.082   .     S
C504   H528    1.082   .     S
C504   N531    1.366   .     A
C504   C13     1.415   1_565 S
C505   N532    1.366   .     A
C505   H529    1.081   .     S
C506   N531    1.366   .     A
C506   H530    1.081   .     S
C506   C11     1.415   1_565 S
C507   O540    1.292   .     A
C507   C512    1.470   .     S
C507   O537    1.294   .     A
C508   O539    1.292   .     A
C508   O538    1.294   .     A
C508   C511    1.470   .     S
C509   C519    1.408   .     A
C509   O541    1.385   .     S
C509   C511    1.416   .     A
C510   C520    1.408   .     A
C510   C512    1.416   .     A
C510   O546    1.385   .     S
C511   C513    1.405   .     A
C512   C514    1.405   .     A
C513   F551    1.361   .     S
C513   C515    1.393   .     A
C514   F552    1.361   .     S
C514   C516    1.393   .     A
C515   C521    1.400   .     A
C515   C517    1.410   .     A
C516   C518    1.410   .     A
C516   C522    1.400   .     A
C517   C519    1.416   .     A
C517   C1256   1.409   .     S
C518   C520    1.416   .     A
C518   C1255   1.409   1_554 S
C521   H525    1.084   .     S
C521   C1233   1.388   .     S
C522   H526    1.084   .     S
C522   C1234   1.388   1_554 S
Cu523  O539    1.977   .     S
Cu523  Cu524   2.671   .     S
Cu523  O535    1.967   .     S
Cu523  O533    1.966   .     S
Cu523  N531    2.007   .     S
Cu523  O537    1.977   .     S
Cu524  O540    1.977   .     S
Cu524  O536    1.967   .     S
Cu524  O538    1.977   .     S
Cu524  N532    2.007   .     S
Cu524  O534    1.966   .     S
O541   C542    1.412   .     S
C542   H544    1.112   .     S
C542   H545    1.113   .     S
C542   H543    1.109   .     S
O546   C547    1.412   .     S
C547   H548    1.112   .     S
C547   H549    1.109   .     S
C547   H550    1.113   .     S
O555   C556    1.412   .     S
C556   H559    1.108   .     S
C556   H558    1.108   .     S
C556   H557    1.112   .     S
O560   C561    1.412   .     S
C561   H563    1.112   .     S
C561   H564    1.108   .     S
C561   H562    1.108   .     S
O565   C566    1.414   .     S
C566   H568    1.105   .     S
C566   H569    1.116   .     S
C566   H567    1.109   .     S
O570   C571    1.414   .     S
C571   H573    1.109   .     S
C571   H572    1.105   .     S
C571   H574    1.116   .     S
C575   O618    1.288   .     A
C575   O615    1.287   .     A
C575   C584    1.450   .     S
C576   O617    1.288   .     A
C576   O616    1.287   .     A
C576   C583    1.450   .     S
C577   C602    1.410   .     A
C577   F635    1.358   .     S
C577   C1341   1.388   1_554 S
C578   F636    1.358   .     S
C578   C601    1.410   .     A
C578   C1342   1.388   .     S
C579   O637    1.386   .     S
C579   C584    1.409   .     A
C580   C583    1.409   .     A
C580   O642    1.386   .     S
C580   C664    1.393   .     S
C581   O647    1.385   .     S
C581   C583    1.411   .     A
C581   C661    1.393   .     S
C582   O652    1.385   .     S
C582   C584    1.411   .     A
C585   N614    1.366   .     A
C585   H609    1.082   .     S
C586   H610    1.082   .     S
C586   N613    1.366   .     A
C586   C95     1.415   1_565 S
C587   N614    1.366   .     A
C587   H611    1.081   .     S
C588   N613    1.366   .     A
C588   H612    1.081   .     S
C588   C93     1.415   1_565 S
C589   O622    1.292   .     A
C589   C594    1.470   .     S
C589   O619    1.294   .     A
C590   O621    1.292   .     A
C590   O620    1.294   .     A
C590   C593    1.470   .     S
C591   C601    1.408   .     A
C591   O623    1.385   .     S
C591   C593    1.416   .     A
C592   C602    1.408   .     A
C592   C594    1.416   .     A
C592   O628    1.385   .     S
C593   C595    1.405   .     A
C594   C596    1.405   .     A
C595   F633    1.361   .     S
C595   C597    1.393   .     A
C596   F634    1.361   .     S
C596   C598    1.393   .     A
C597   C603    1.400   .     A
C597   C599    1.410   .     A
C598   C600    1.410   .     A
C598   C604    1.400   .     A
C599   C601    1.416   .     A
C599   C1338   1.409   .     S
C600   C602    1.416   .     A
C600   C1337   1.409   1_554 S
C603   H607    1.084   .     S
C603   C1315   1.388   .     S
C604   H608    1.084   .     S
C604   C1316   1.388   1_554 S
Cu605  O621    1.977   .     S
Cu605  Cu606   2.671   .     S
Cu605  O617    1.967   .     S
Cu605  O615    1.966   .     S
Cu605  N613    2.007   .     S
Cu605  O619    1.977   .     S
Cu606  O622    1.977   .     S
Cu606  O618    1.967   .     S
Cu606  O620    1.977   .     S
Cu606  N614    2.007   .     S
Cu606  O616    1.966   .     S
O623   C624    1.412   .     S
C624   H626    1.112   .     S
C624   H627    1.113   .     S
C624   H625    1.109   .     S
O628   C629    1.412   .     S
C629   H630    1.112   .     S
C629   H631    1.109   .     S
C629   H632    1.113   .     S
O637   C638    1.412   .     S
C638   H641    1.108   .     S
C638   H640    1.108   .     S
C638   H639    1.112   .     S
O642   C643    1.412   .     S
C643   H645    1.112   .     S
C643   H646    1.108   .     S
C643   H644    1.108   .     S
O647   C648    1.414   .     S
C648   H650    1.105   .     S
C648   H651    1.116   .     S
C648   H649    1.109   .     S
O652   C653    1.414   .     S
C653   H655    1.109   .     S
C653   H654    1.105   .     S
C653   H656    1.116   .     S
C657   O700    1.288   .     A
C657   O697    1.287   .     A
C657   C666    1.450   .     S
C658   O699    1.288   .     A
C658   O698    1.287   .     A
C658   C665    1.450   .     S
C659   C684    1.410   .     A
C659   F717    1.358   .     S
C659   C1423   1.388   1_554 S
C660   F718    1.358   .     S
C660   C683    1.410   .     A
C660   C1424   1.388   .     S
C661   O719    1.386   .     S
C661   C666    1.409   .     A
C662   C665    1.409   .     A
C662   O724    1.386   .     S
C662   C500    1.393   1_655 S
C663   O729    1.385   .     S
C663   C665    1.411   .     A
C663   C497    1.393   1_655 S
C664   O734    1.385   .     S
C664   C666    1.411   .     A
C667   N696    1.366   .     A
C667   H691    1.082   .     S
C668   H692    1.082   .     S
C668   N695    1.366   .     A
C668   C177    1.415   1_565 S
C669   N696    1.366   .     A
C669   H693    1.081   .     S
C670   N695    1.366   .     A
C670   H694    1.081   .     S
C670   C175    1.415   1_565 S
C671   O704    1.292   .     A
C671   C676    1.470   .     S
C671   O701    1.294   .     A
C672   O703    1.292   .     A
C672   O702    1.294   .     A
C672   C675    1.470   .     S
C673   C683    1.408   .     A
C673   O705    1.385   .     S
C673   C675    1.416   .     A
C674   C684    1.408   .     A
C674   C676    1.416   .     A
C674   O710    1.385   .     S
C675   C677    1.405   .     A
C676   C678    1.405   .     A
C677   F715    1.361   .     S
C677   C679    1.393   .     A
C678   F716    1.361   .     S
C678   C680    1.393   .     A
C679   C685    1.400   .     A
C679   C681    1.410   .     A
C680   C682    1.410   .     A
C680   C686    1.400   .     A
C681   C683    1.416   .     A
C681   C1420   1.409   .     S
C682   C684    1.416   .     A
C682   C1419   1.409   1_554 S
C685   H689    1.084   .     S
C685   C1397   1.388   .     S
C686   H690    1.084   .     S
C686   C1398   1.388   1_554 S
Cu687  O703    1.977   .     S
Cu687  Cu688   2.671   .     S
Cu687  O699    1.967   .     S
Cu687  O697    1.966   .     S
Cu687  N695    2.007   .     S
Cu687  O701    1.977   .     S
Cu688  O704    1.977   .     S
Cu688  O700    1.967   .     S
Cu688  O702    1.977   .     S
Cu688  N696    2.007   .     S
Cu688  O698    1.966   .     S
O705   C706    1.412   .     S
C706   H708    1.112   .     S
C706   H709    1.113   .     S
C706   H707    1.109   .     S
O710   C711    1.412   .     S
C711   H712    1.112   .     S
C711   H713    1.109   .     S
C711   H714    1.113   .     S
O719   C720    1.412   .     S
C720   H723    1.108   .     S
C720   H722    1.108   .     S
C720   H721    1.112   .     S
O724   C725    1.412   .     S
C725   H727    1.112   .     S
C725   H728    1.108   .     S
C725   H726    1.108   .     S
O729   C730    1.414   .     S
C730   H732    1.105   .     S
C730   H733    1.116   .     S
C730   H731    1.109   .     S
O734   C735    1.414   .     S
C735   H737    1.109   .     S
C735   H736    1.105   .     S
C735   H738    1.116   .     S
C739   O782    1.288   .     A
C739   O779    1.287   .     A
C739   C748    1.450   .     S
C740   O781    1.288   .     A
C740   O780    1.287   .     A
C740   C747    1.450   .     S
C741   C766    1.410   .     A
C741   F799    1.358   .     S
C742   F800    1.358   .     S
C742   C765    1.410   .     A
C742   C30     1.388   1_556 S
C743   O801    1.386   .     S
C743   C748    1.409   .     A
C743   C909    1.393   1_455 S
C744   C747    1.409   .     A
C744   O806    1.386   .     S
C744   C828    1.393   .     S
C745   O811    1.385   .     S
C745   C747    1.411   .     A
C745   C825    1.393   .     S
C746   O816    1.385   .     S
C746   C748    1.411   .     A
C746   C908    1.393   1_455 S
C749   N778    1.366   .     A
C749   H773    1.082   .     S
C749   C1244   1.415   1_545 S
C750   H774    1.082   .     S
C750   N777    1.366   .     A
C750   C997    1.415   .     S
C751   N778    1.366   .     A
C751   H775    1.081   .     S
C751   C1242   1.415   1_545 S
C752   N777    1.366   .     A
C752   H776    1.081   .     S
C752   C995    1.415   .     S
C753   O786    1.292   .     A
C753   C758    1.470   .     S
C753   O783    1.294   .     A
C754   O785    1.292   .     A
C754   O784    1.294   .     A
C754   C757    1.470   .     S
C755   C765    1.408   .     A
C755   O787    1.385   .     S
C755   C757    1.416   .     A
C756   C766    1.408   .     A
C756   C758    1.416   .     A
C756   O792    1.385   .     S
C757   C759    1.405   .     A
C758   C760    1.405   .     A
C759   F797    1.361   .     S
C759   C761    1.393   .     A
C760   F798    1.361   .     S
C760   C762    1.393   .     A
C761   C767    1.400   .     A
C761   C763    1.410   .     A
C762   C764    1.410   .     A
C762   C768    1.400   .     A
C763   C765    1.416   .     A
C763   C26     1.409   1_556 S
C764   C766    1.416   .     A
C767   H771    1.084   .     S
C767   C3      1.388   1_556 S
C768   H772    1.084   .     S
Cu769  O785    1.977   .     S
Cu769  Cu770   2.671   .     S
Cu769  O781    1.967   .     S
Cu769  O779    1.966   .     S
Cu769  N777    2.007   .     S
Cu769  O783    1.977   .     S
Cu770  O786    1.977   .     S
Cu770  O782    1.967   .     S
Cu770  O784    1.977   .     S
Cu770  N778    2.007   .     S
Cu770  O780    1.966   .     S
O787   C788    1.412   .     S
C788   H790    1.112   .     S
C788   H791    1.113   .     S
C788   H789    1.109   .     S
O792   C793    1.412   .     S
C793   H794    1.112   .     S
C793   H795    1.109   .     S
C793   H796    1.113   .     S
O801   C802    1.412   .     S
C802   H805    1.108   .     S
C802   H804    1.108   .     S
C802   H803    1.112   .     S
O806   C807    1.412   .     S
C807   H809    1.112   .     S
C807   H810    1.108   .     S
C807   H808    1.108   .     S
O811   C812    1.414   .     S
C812   H814    1.105   .     S
C812   H815    1.116   .     S
C812   H813    1.109   .     S
O816   C817    1.414   .     S
C817   H819    1.109   .     S
C817   H818    1.105   .     S
C817   H820    1.116   .     S
C821   O864    1.288   .     A
C821   O861    1.287   .     A
C821   C830    1.450   .     S
C822   O863    1.288   .     A
C822   O862    1.287   .     A
C822   C829    1.450   .     S
C823   C848    1.410   .     A
C823   F881    1.358   .     S
C824   F882    1.358   .     S
C824   C847    1.410   .     A
C824   C112    1.388   1_556 S
C825   O883    1.386   .     S
C825   C830    1.409   .     A
C826   C829    1.409   .     A
C826   O888    1.386   .     S
C826   C910    1.393   .     S
C827   O893    1.385   .     S
C827   C829    1.411   .     A
C827   C907    1.393   .     S
C828   O898    1.385   .     S
C828   C830    1.411   .     A
C831   N860    1.366   .     A
C831   H855    1.082   .     S
C831   C1326   1.415   1_545 S
C832   H856    1.082   .     S
C832   N859    1.366   .     A
C832   C1079   1.415   .     S
C833   N860    1.366   .     A
C833   H857    1.081   .     S
C833   C1324   1.415   1_545 S
C834   N859    1.366   .     A
C834   H858    1.081   .     S
C834   C1077   1.415   .     S
C835   O868    1.292   .     A
C835   C840    1.470   .     S
C835   O865    1.294   .     A
C836   O867    1.292   .     A
C836   O866    1.294   .     A
C836   C839    1.470   .     S
C837   C847    1.408   .     A
C837   O869    1.385   .     S
C837   C839    1.416   .     A
C838   C848    1.408   .     A
C838   C840    1.416   .     A
C838   O874    1.385   .     S
C839   C841    1.405   .     A
C840   C842    1.405   .     A
C841   F879    1.361   .     S
C841   C843    1.393   .     A
C842   F880    1.361   .     S
C842   C844    1.393   .     A
C843   C849    1.400   .     A
C843   C845    1.410   .     A
C844   C846    1.410   .     A
C844   C850    1.400   .     A
C845   C847    1.416   .     A
C845   C108    1.409   1_556 S
C846   C848    1.416   .     A
C849   H853    1.084   .     S
C849   C85     1.388   1_556 S
C850   H854    1.084   .     S
Cu851  O867    1.977   .     S
Cu851  Cu852   2.671   .     S
Cu851  O863    1.967   .     S
Cu851  O861    1.966   .     S
Cu851  N859    2.007   .     S
Cu851  O865    1.977   .     S
Cu852  O868    1.977   .     S
Cu852  O864    1.967   .     S
Cu852  O866    1.977   .     S
Cu852  N860    2.007   .     S
Cu852  O862    1.966   .     S
O869   C870    1.412   .     S
C870   H872    1.112   .     S
C870   H873    1.113   .     S
C870   H871    1.109   .     S
O874   C875    1.412   .     S
C875   H876    1.112   .     S
C875   H877    1.109   .     S
C875   H878    1.113   .     S
O883   C884    1.412   .     S
C884   H887    1.108   .     S
C884   H886    1.108   .     S
C884   H885    1.112   .     S
O888   C889    1.412   .     S
C889   H891    1.112   .     S
C889   H892    1.108   .     S
C889   H890    1.108   .     S
O893   C894    1.414   .     S
C894   H896    1.105   .     S
C894   H897    1.116   .     S
C894   H895    1.109   .     S
O898   C899    1.414   .     S
C899   H901    1.109   .     S
C899   H900    1.105   .     S
C899   H902    1.116   .     S
C903   O946    1.288   .     A
C903   O943    1.287   .     A
C903   C912    1.450   .     S
C904   O945    1.288   .     A
C904   O944    1.287   .     A
C904   C911    1.450   .     S
C905   C930    1.410   .     A
C905   F963    1.358   .     S
C906   F964    1.358   .     S
C906   C929    1.410   .     A
C906   C194    1.388   1_556 S
C907   O965    1.386   .     S
C907   C912    1.409   .     A
C908   C911    1.409   .     A
C908   O970    1.386   .     S
C908   C746    1.393   1_655 S
C909   O975    1.385   .     S
C909   C911    1.411   .     A
C909   C743    1.393   1_655 S
C910   O980    1.385   .     S
C910   C912    1.411   .     A
C913   N942    1.366   .     A
C913   H937    1.082   .     S
C913   C1408   1.415   1_545 S
C914   H938    1.082   .     S
C914   N941    1.366   .     A
C914   C1161   1.415   .     S
C915   N942    1.366   .     A
C915   H939    1.081   .     S
C915   C1406   1.415   1_545 S
C916   N941    1.366   .     A
C916   H940    1.081   .     S
C916   C1159   1.415   .     S
C917   O950    1.292   .     A
C917   C922    1.470   .     S
C917   O947    1.294   .     A
C918   O949    1.292   .     A
C918   O948    1.294   .     A
C918   C921    1.470   .     S
C919   C929    1.408   .     A
C919   O951    1.385   .     S
C919   C921    1.416   .     A
C920   C930    1.408   .     A
C920   C922    1.416   .     A
C920   O956    1.385   .     S
C921   C923    1.405   .     A
C922   C924    1.405   .     A
C923   F961    1.361   .     S
C923   C925    1.393   .     A
C924   F962    1.361   .     S
C924   C926    1.393   .     A
C925   C931    1.400   .     A
C925   C927    1.410   .     A
C926   C928    1.410   .     A
C926   C932    1.400   .     A
C927   C929    1.416   .     A
C927   C190    1.409   1_556 S
C928   C930    1.416   .     A
C931   H935    1.084   .     S
C931   C167    1.388   1_556 S
C932   H936    1.084   .     S
Cu933  O949    1.977   .     S
Cu933  Cu934   2.671   .     S
Cu933  O945    1.967   .     S
Cu933  O943    1.966   .     S
Cu933  N941    2.007   .     S
Cu933  O947    1.977   .     S
Cu934  O950    1.977   .     S
Cu934  O946    1.967   .     S
Cu934  O948    1.977   .     S
Cu934  N942    2.007   .     S
Cu934  O944    1.966   .     S
O951   C952    1.412   .     S
C952   H954    1.112   .     S
C952   H955    1.113   .     S
C952   H953    1.109   .     S
O956   C957    1.412   .     S
C957   H958    1.112   .     S
C957   H959    1.109   .     S
C957   H960    1.113   .     S
O965   C966    1.412   .     S
C966   H969    1.108   .     S
C966   H968    1.108   .     S
C966   H967    1.112   .     S
O970   C971    1.412   .     S
C971   H973    1.112   .     S
C971   H974    1.108   .     S
C971   H972    1.108   .     S
O975   C976    1.414   .     S
C976   H978    1.105   .     S
C976   H979    1.116   .     S
C976   H977    1.109   .     S
O980   C981    1.414   .     S
C981   H983    1.109   .     S
C981   H982    1.105   .     S
C981   H984    1.116   .     S
C985   O1028   1.288   .     A
C985   O1025   1.287   .     A
C985   C994    1.450   .     S
C986   O1027   1.288   .     A
C986   O1026   1.287   .     A
C986   C993    1.450   .     S
C987   C1012   1.410   .     A
C987   F1045   1.358   .     S
C988   F1046   1.358   .     S
C988   C1011   1.410   .     A
C988   C276    1.388   1_556 S
C989   O1047   1.386   .     S
C989   C994    1.409   .     A
C989   C1155   1.393   1_455 S
C990   C993    1.409   .     A
C990   O1052   1.386   .     S
C990   C1074   1.393   .     S
C991   O1057   1.385   .     S
C991   C993    1.411   .     A
C991   C1071   1.393   .     S
C992   O1062   1.385   .     S
C992   C994    1.411   .     A
C992   C1154   1.393   1_455 S
C995   N1024   1.366   .     A
C995   H1019   1.082   .     S
C996   H1020   1.082   .     S
C996   N1023   1.366   .     A
C996   C1243   1.415   .     S
C997   N1024   1.366   .     A
C997   H1021   1.081   .     S
C998   N1023   1.366   .     A
C998   H1022   1.081   .     S
C998   C1241   1.415   .     S
C999   O1032   1.292   .     A
C999   C1004   1.470   .     S
C999   O1029   1.294   .     A
C1000  O1031   1.292   .     A
C1000  O1030   1.294   .     A
C1000  C1003   1.470   .     S
C1001  C1011   1.408   .     A
C1001  O1033   1.385   .     S
C1001  C1003   1.416   .     A
C1002  C1012   1.408   .     A
C1002  C1004   1.416   .     A
C1002  O1038   1.385   .     S
C1003  C1005   1.405   .     A
C1004  C1006   1.405   .     A
C1005  F1043   1.361   .     S
C1005  C1007   1.393   .     A
C1006  F1044   1.361   .     S
C1006  C1008   1.393   .     A
C1007  C1013   1.400   .     A
C1007  C1009   1.410   .     A
C1008  C1010   1.410   .     A
C1008  C1014   1.400   .     A
C1009  C1011   1.416   .     A
C1009  C272    1.409   1_556 S
C1010  C1012   1.416   .     A
C1013  H1017   1.084   .     S
C1013  C249    1.388   1_556 S
C1014  H1018   1.084   .     S
Cu1015 O1031   1.977   .     S
Cu1015 Cu1016  2.671   .     S
Cu1015 O1027   1.967   .     S
Cu1015 O1025   1.966   .     S
Cu1015 N1023   2.007   .     S
Cu1015 O1029   1.977   .     S
Cu1016 O1032   1.977   .     S
Cu1016 O1028   1.967   .     S
Cu1016 O1030   1.977   .     S
Cu1016 N1024   2.007   .     S
Cu1016 O1026   1.966   .     S
O1033  C1034   1.412   .     S
C1034  H1036   1.112   .     S
C1034  H1037   1.113   .     S
C1034  H1035   1.109   .     S
O1038  C1039   1.412   .     S
C1039  H1040   1.112   .     S
C1039  H1041   1.109   .     S
C1039  H1042   1.113   .     S
O1047  C1048   1.412   .     S
C1048  H1051   1.108   .     S
C1048  H1050   1.108   .     S
C1048  H1049   1.112   .     S
O1052  C1053   1.412   .     S
C1053  H1055   1.112   .     S
C1053  H1056   1.108   .     S
C1053  H1054   1.108   .     S
O1057  C1058   1.414   .     S
C1058  H1060   1.105   .     S
C1058  H1061   1.116   .     S
C1058  H1059   1.109   .     S
O1062  C1063   1.414   .     S
C1063  H1065   1.109   .     S
C1063  H1064   1.105   .     S
C1063  H1066   1.116   .     S
C1067  O1110   1.288   .     A
C1067  O1107   1.287   .     A
C1067  C1076   1.450   .     S
C1068  O1109   1.288   .     A
C1068  O1108   1.287   .     A
C1068  C1075   1.450   .     S
C1069  C1094   1.410   .     A
C1069  F1127   1.358   .     S
C1070  F1128   1.358   .     S
C1070  C1093   1.410   .     A
C1070  C358    1.388   1_556 S
C1071  O1129   1.386   .     S
C1071  C1076   1.409   .     A
C1072  C1075   1.409   .     A
C1072  O1134   1.386   .     S
C1072  C1156   1.393   .     S
C1073  O1139   1.385   .     S
C1073  C1075   1.411   .     A
C1073  C1153   1.393   .     S
C1074  O1144   1.385   .     S
C1074  C1076   1.411   .     A
C1077  N1106   1.366   .     A
C1077  H1101   1.082   .     S
C1078  H1102   1.082   .     S
C1078  N1105   1.366   .     A
C1078  C1325   1.415   .     S
C1079  N1106   1.366   .     A
C1079  H1103   1.081   .     S
C1080  N1105   1.366   .     A
C1080  H1104   1.081   .     S
C1080  C1323   1.415   .     S
C1081  O1114   1.292   .     A
C1081  C1086   1.470   .     S
C1081  O1111   1.294   .     A
C1082  O1113   1.292   .     A
C1082  O1112   1.294   .     A
C1082  C1085   1.470   .     S
C1083  C1093   1.408   .     A
C1083  O1115   1.385   .     S
C1083  C1085   1.416   .     A
C1084  C1094   1.408   .     A
C1084  C1086   1.416   .     A
C1084  O1120   1.385   .     S
C1085  C1087   1.405   .     A
C1086  C1088   1.405   .     A
C1087  F1125   1.361   .     S
C1087  C1089   1.393   .     A
C1088  F1126   1.361   .     S
C1088  C1090   1.393   .     A
C1089  C1095   1.400   .     A
C1089  C1091   1.410   .     A
C1090  C1092   1.410   .     A
C1090  C1096   1.400   .     A
C1091  C1093   1.416   .     A
C1091  C354    1.409   1_556 S
C1092  C1094   1.416   .     A
C1095  H1099   1.084   .     S
C1095  C331    1.388   1_556 S
C1096  H1100   1.084   .     S
Cu1097 O1113   1.977   .     S
Cu1097 Cu1098  2.671   .     S
Cu1097 O1109   1.967   .     S
Cu1097 O1107   1.966   .     S
Cu1097 N1105   2.007   .     S
Cu1097 O1111   1.977   .     S
Cu1098 O1114   1.977   .     S
Cu1098 O1110   1.967   .     S
Cu1098 O1112   1.977   .     S
Cu1098 N1106   2.007   .     S
Cu1098 O1108   1.966   .     S
O1115  C1116   1.412   .     S
C1116  H1118   1.112   .     S
C1116  H1119   1.113   .     S
C1116  H1117   1.109   .     S
O1120  C1121   1.412   .     S
C1121  H1122   1.112   .     S
C1121  H1123   1.109   .     S
C1121  H1124   1.113   .     S
O1129  C1130   1.412   .     S
C1130  H1133   1.108   .     S
C1130  H1132   1.108   .     S
C1130  H1131   1.112   .     S
O1134  C1135   1.412   .     S
C1135  H1137   1.112   .     S
C1135  H1138   1.108   .     S
C1135  H1136   1.108   .     S
O1139  C1140   1.414   .     S
C1140  H1142   1.105   .     S
C1140  H1143   1.116   .     S
C1140  H1141   1.109   .     S
O1144  C1145   1.414   .     S
C1145  H1147   1.109   .     S
C1145  H1146   1.105   .     S
C1145  H1148   1.116   .     S
C1149  O1192   1.288   .     A
C1149  O1189   1.287   .     A
C1149  C1158   1.450   .     S
C1150  O1191   1.288   .     A
C1150  O1190   1.287   .     A
C1150  C1157   1.450   .     S
C1151  C1176   1.410   .     A
C1151  F1209   1.358   .     S
C1152  F1210   1.358   .     S
C1152  C1175   1.410   .     A
C1152  C440    1.388   1_556 S
C1153  O1211   1.386   .     S
C1153  C1158   1.409   .     A
C1154  C1157   1.409   .     A
C1154  O1216   1.386   .     S
C1154  C992    1.393   1_655 S
C1155  O1221   1.385   .     S
C1155  C1157   1.411   .     A
C1155  C989    1.393   1_655 S
C1156  O1226   1.385   .     S
C1156  C1158   1.411   .     A
C1159  N1188   1.366   .     A
C1159  H1183   1.082   .     S
C1160  H1184   1.082   .     S
C1160  N1187   1.366   .     A
C1160  C1407   1.415   .     S
C1161  N1188   1.366   .     A
C1161  H1185   1.081   .     S
C1162  N1187   1.366   .     A
C1162  H1186   1.081   .     S
C1162  C1405   1.415   .     S
C1163  O1196   1.292   .     A
C1163  C1168   1.470   .     S
C1163  O1193   1.294   .     A
C1164  O1195   1.292   .     A
C1164  O1194   1.294   .     A
C1164  C1167   1.470   .     S
C1165  C1175   1.408   .     A
C1165  O1197   1.385   .     S
C1165  C1167   1.416   .     A
C1166  C1176   1.408   .     A
C1166  C1168   1.416   .     A
C1166  O1202   1.385   .     S
C1167  C1169   1.405   .     A
C1168  C1170   1.405   .     A
C1169  F1207   1.361   .     S
C1169  C1171   1.393   .     A
C1170  F1208   1.361   .     S
C1170  C1172   1.393   .     A
C1171  C1177   1.400   .     A
C1171  C1173   1.410   .     A
C1172  C1174   1.410   .     A
C1172  C1178   1.400   .     A
C1173  C1175   1.416   .     A
C1173  C436    1.409   1_556 S
C1174  C1176   1.416   .     A
C1177  H1181   1.084   .     S
C1177  C413    1.388   1_556 S
C1178  H1182   1.084   .     S
Cu1179 O1195   1.977   .     S
Cu1179 Cu1180  2.671   .     S
Cu1179 O1191   1.967   .     S
Cu1179 O1189   1.966   .     S
Cu1179 N1187   2.007   .     S
Cu1179 O1193   1.977   .     S
Cu1180 O1196   1.977   .     S
Cu1180 O1192   1.967   .     S
Cu1180 O1194   1.977   .     S
Cu1180 N1188   2.007   .     S
Cu1180 O1190   1.966   .     S
O1197  C1198   1.412   .     S
C1198  H1200   1.112   .     S
C1198  H1201   1.113   .     S
C1198  H1199   1.109   .     S
O1202  C1203   1.412   .     S
C1203  H1204   1.112   .     S
C1203  H1205   1.109   .     S
C1203  H1206   1.113   .     S
O1211  C1212   1.412   .     S
C1212  H1215   1.108   .     S
C1212  H1214   1.108   .     S
C1212  H1213   1.112   .     S
O1216  C1217   1.412   .     S
C1217  H1219   1.112   .     S
C1217  H1220   1.108   .     S
C1217  H1218   1.108   .     S
O1221  C1222   1.414   .     S
C1222  H1224   1.105   .     S
C1222  H1225   1.116   .     S
C1222  H1223   1.109   .     S
O1226  C1227   1.414   .     S
C1227  H1229   1.109   .     S
C1227  H1228   1.105   .     S
C1227  H1230   1.116   .     S
C1231  O1274   1.288   .     A
C1231  O1271   1.287   .     A
C1231  C1240   1.450   .     S
C1232  O1273   1.288   .     A
C1232  O1272   1.287   .     A
C1232  C1239   1.450   .     S
C1233  C1258   1.410   .     A
C1233  F1291   1.358   .     S
C1234  F1292   1.358   .     S
C1234  C1257   1.410   .     A
C1234  C522    1.388   1_556 S
C1235  O1293   1.386   .     S
C1235  C1240   1.409   .     A
C1235  C1401   1.393   1_455 S
C1236  C1239   1.409   .     A
C1236  O1298   1.386   .     S
C1236  C1320   1.393   .     S
C1237  O1303   1.385   .     S
C1237  C1239   1.411   .     A
C1237  C1317   1.393   .     S
C1238  O1308   1.385   .     S
C1238  C1240   1.411   .     A
C1238  C1400   1.393   1_455 S
C1241  N1270   1.366   .     A
C1241  H1265   1.082   .     S
C1242  H1266   1.082   .     S
C1242  N1269   1.366   .     A
C1242  C751    1.415   1_565 S
C1243  N1270   1.366   .     A
C1243  H1267   1.081   .     S
C1244  N1269   1.366   .     A
C1244  H1268   1.081   .     S
C1244  C749    1.415   1_565 S
C1245  O1278   1.292   .     A
C1245  C1250   1.470   .     S
C1245  O1275   1.294   .     A
C1246  O1277   1.292   .     A
C1246  O1276   1.294   .     A
C1246  C1249   1.470   .     S
C1247  C1257   1.408   .     A
C1247  O1279   1.385   .     S
C1247  C1249   1.416   .     A
C1248  C1258   1.408   .     A
C1248  C1250   1.416   .     A
C1248  O1284   1.385   .     S
C1249  C1251   1.405   .     A
C1250  C1252   1.405   .     A
C1251  F1289   1.361   .     S
C1251  C1253   1.393   .     A
C1252  F1290   1.361   .     S
C1252  C1254   1.393   .     A
C1253  C1259   1.400   .     A
C1253  C1255   1.410   .     A
C1254  C1256   1.410   .     A
C1254  C1260   1.400   .     A
C1255  C1257   1.416   .     A
C1255  C518    1.409   1_556 S
C1256  C1258   1.416   .     A
C1259  H1263   1.084   .     S
C1259  C495    1.388   1_556 S
C1260  H1264   1.084   .     S
Cu1261 O1277   1.977   .     S
Cu1261 Cu1262  2.671   .     S
Cu1261 O1273   1.967   .     S
Cu1261 O1271   1.966   .     S
Cu1261 N1269   2.007   .     S
Cu1261 O1275   1.977   .     S
Cu1262 O1278   1.977   .     S
Cu1262 O1274   1.967   .     S
Cu1262 O1276   1.977   .     S
Cu1262 N1270   2.007   .     S
Cu1262 O1272   1.966   .     S
O1279  C1280   1.412   .     S
C1280  H1282   1.112   .     S
C1280  H1283   1.113   .     S
C1280  H1281   1.109   .     S
O1284  C1285   1.412   .     S
C1285  H1286   1.112   .     S
C1285  H1287   1.109   .     S
C1285  H1288   1.113   .     S
O1293  C1294   1.412   .     S
C1294  H1297   1.108   .     S
C1294  H1296   1.108   .     S
C1294  H1295   1.112   .     S
O1298  C1299   1.412   .     S
C1299  H1301   1.112   .     S
C1299  H1302   1.108   .     S
C1299  H1300   1.108   .     S
O1303  C1304   1.414   .     S
C1304  H1306   1.105   .     S
C1304  H1307   1.116   .     S
C1304  H1305   1.109   .     S
O1308  C1309   1.414   .     S
C1309  H1311   1.109   .     S
C1309  H1310   1.105   .     S
C1309  H1312   1.116   .     S
C1313  O1356   1.288   .     A
C1313  O1353   1.287   .     A
C1313  C1322   1.450   .     S
C1314  O1355   1.288   .     A
C1314  O1354   1.287   .     A
C1314  C1321   1.450   .     S
C1315  C1340   1.410   .     A
C1315  F1373   1.358   .     S
C1316  F1374   1.358   .     S
C1316  C1339   1.410   .     A
C1316  C604    1.388   1_556 S
C1317  O1375   1.386   .     S
C1317  C1322   1.409   .     A
C1318  C1321   1.409   .     A
C1318  O1380   1.386   .     S
C1318  C1402   1.393   .     S
C1319  O1385   1.385   .     S
C1319  C1321   1.411   .     A
C1319  C1399   1.393   .     S
C1320  O1390   1.385   .     S
C1320  C1322   1.411   .     A
C1323  N1352   1.366   .     A
C1323  H1347   1.082   .     S
C1324  H1348   1.082   .     S
C1324  N1351   1.366   .     A
C1324  C833    1.415   1_565 S
C1325  N1352   1.366   .     A
C1325  H1349   1.081   .     S
C1326  N1351   1.366   .     A
C1326  H1350   1.081   .     S
C1326  C831    1.415   1_565 S
C1327  O1360   1.292   .     A
C1327  C1332   1.470   .     S
C1327  O1357   1.294   .     A
C1328  O1359   1.292   .     A
C1328  O1358   1.294   .     A
C1328  C1331   1.470   .     S
C1329  C1339   1.408   .     A
C1329  O1361   1.385   .     S
C1329  C1331   1.416   .     A
C1330  C1340   1.408   .     A
C1330  C1332   1.416   .     A
C1330  O1366   1.385   .     S
C1331  C1333   1.405   .     A
C1332  C1334   1.405   .     A
C1333  F1371   1.361   .     S
C1333  C1335   1.393   .     A
C1334  F1372   1.361   .     S
C1334  C1336   1.393   .     A
C1335  C1341   1.400   .     A
C1335  C1337   1.410   .     A
C1336  C1338   1.410   .     A
C1336  C1342   1.400   .     A
C1337  C1339   1.416   .     A
C1337  C600    1.409   1_556 S
C1338  C1340   1.416   .     A
C1341  H1345   1.084   .     S
C1341  C577    1.388   1_556 S
C1342  H1346   1.084   .     S
Cu1343 O1359   1.977   .     S
Cu1343 Cu1344  2.671   .     S
Cu1343 O1355   1.967   .     S
Cu1343 O1353   1.966   .     S
Cu1343 N1351   2.007   .     S
Cu1343 O1357   1.977   .     S
Cu1344 O1360   1.977   .     S
Cu1344 O1356   1.967   .     S
Cu1344 O1358   1.977   .     S
Cu1344 N1352   2.007   .     S
Cu1344 O1354   1.966   .     S
O1361  C1362   1.412   .     S
C1362  H1364   1.112   .     S
C1362  H1365   1.113   .     S
C1362  H1363   1.109   .     S
O1366  C1367   1.412   .     S
C1367  H1368   1.112   .     S
C1367  H1369   1.109   .     S
C1367  H1370   1.113   .     S
O1375  C1376   1.412   .     S
C1376  H1379   1.108   .     S
C1376  H1378   1.108   .     S
C1376  H1377   1.112   .     S
O1380  C1381   1.412   .     S
C1381  H1383   1.112   .     S
C1381  H1384   1.108   .     S
C1381  H1382   1.108   .     S
O1385  C1386   1.414   .     S
C1386  H1388   1.105   .     S
C1386  H1389   1.116   .     S
C1386  H1387   1.109   .     S
O1390  C1391   1.414   .     S
C1391  H1393   1.109   .     S
C1391  H1392   1.105   .     S
C1391  H1394   1.116   .     S
C1395  O1438   1.288   .     A
C1395  O1435   1.287   .     A
C1395  C1404   1.450   .     S
C1396  O1437   1.288   .     A
C1396  O1436   1.287   .     A
C1396  C1403   1.450   .     S
C1397  C1422   1.410   .     A
C1397  F1455   1.358   .     S
C1398  F1456   1.358   .     S
C1398  C1421   1.410   .     A
C1398  C686    1.388   1_556 S
C1399  O1457   1.386   .     S
C1399  C1404   1.409   .     A
C1400  C1403   1.409   .     A
C1400  O1462   1.386   .     S
C1400  C1238   1.393   1_655 S
C1401  O1467   1.385   .     S
C1401  C1403   1.411   .     A
C1401  C1235   1.393   1_655 S
C1402  O1472   1.385   .     S
C1402  C1404   1.411   .     A
C1405  N1434   1.366   .     A
C1405  H1429   1.082   .     S
C1406  H1430   1.082   .     S
C1406  N1433   1.366   .     A
C1406  C915    1.415   1_565 S
C1407  N1434   1.366   .     A
C1407  H1431   1.081   .     S
C1408  N1433   1.366   .     A
C1408  H1432   1.081   .     S
C1408  C913    1.415   1_565 S
C1409  O1442   1.292   .     A
C1409  C1414   1.470   .     S
C1409  O1439   1.294   .     A
C1410  O1441   1.292   .     A
C1410  O1440   1.294   .     A
C1410  C1413   1.470   .     S
C1411  C1421   1.408   .     A
C1411  O1443   1.385   .     S
C1411  C1413   1.416   .     A
C1412  C1422   1.408   .     A
C1412  C1414   1.416   .     A
C1412  O1448   1.385   .     S
C1413  C1415   1.405   .     A
C1414  C1416   1.405   .     A
C1415  F1453   1.361   .     S
C1415  C1417   1.393   .     A
C1416  F1454   1.361   .     S
C1416  C1418   1.393   .     A
C1417  C1423   1.400   .     A
C1417  C1419   1.410   .     A
C1418  C1420   1.410   .     A
C1418  C1424   1.400   .     A
C1419  C1421   1.416   .     A
C1419  C682    1.409   1_556 S
C1420  C1422   1.416   .     A
C1423  H1427   1.084   .     S
C1423  C659    1.388   1_556 S
C1424  H1428   1.084   .     S
Cu1425 O1441   1.977   .     S
Cu1425 Cu1426  2.671   .     S
Cu1425 O1437   1.967   .     S
Cu1425 O1435   1.966   .     S
Cu1425 N1433   2.007   .     S
Cu1425 O1439   1.977   .     S
Cu1426 O1442   1.977   .     S
Cu1426 O1438   1.967   .     S
Cu1426 O1440   1.977   .     S
Cu1426 N1434   2.007   .     S
Cu1426 O1436   1.966   .     S
O1443  C1444   1.412   .     S
C1444  H1446   1.112   .     S
C1444  H1447   1.113   .     S
C1444  H1445   1.109   .     S
O1448  C1449   1.412   .     S
C1449  H1450   1.112   .     S
C1449  H1451   1.109   .     S
C1449  H1452   1.113   .     S
O1457  C1458   1.412   .     S
C1458  H1461   1.108   .     S
C1458  H1460   1.108   .     S
C1458  H1459   1.112   .     S
O1462  C1463   1.412   .     S
C1463  H1465   1.112   .     S
C1463  H1466   1.108   .     S
C1463  H1464   1.108   .     S
O1467  C1468   1.414   .     S
C1468  H1470   1.105   .     S
C1468  H1471   1.116   .     S
C1468  H1469   1.109   .     S
O1472  C1473   1.414   .     S
C1473  H1475   1.109   .     S
C1473  H1474   1.105   .     S
C1473  H1476   1.116   .     S
