data_str_m2_o1_o18_pcu_sym.80
_audit_creation_date              2020-01-03
_audit_creation_method            'Materials Studio'
_symmetry_space_group_name_H-M    'P1'
_symmetry_Int_Tables_number       1
_symmetry_cell_setting            triclinic
loop_
_symmetry_equiv_pos_as_xyz
  x,y,z
_cell_length_a                    28.5972
_cell_length_b                    32.4980
_cell_length_c                    30.9260
_cell_angle_alpha                 89.6404
_cell_angle_beta                  74.6447
_cell_angle_gamma                 89.8849
loop_
_atom_site_label
_atom_site_type_symbol
_atom_site_fract_x
_atom_site_fract_y
_atom_site_fract_z
_atom_site_U_iso_or_equiv
_atom_site_adp_type
_atom_site_occupancy
C1     C     0.00000   0.08737   0.25005   0.00000  Uiso   1.00
C2     C     0.04263   0.02121   0.24955   0.00000  Uiso   1.00
C3     C     0.33332   0.29059   0.24996   0.00000  Uiso   1.00
C4     C     0.00001   0.04275   0.25006   0.00000  Uiso   1.00
C5     C     0.18326   0.14239   0.27927   0.00000  Uiso   1.00
C6     C     0.15007   0.19095   0.22074   0.00000  Uiso   1.00
C7     C     0.13355   0.14231   0.27940   0.00000  Uiso   1.00
C8     C     0.19978   0.19103   0.22061   0.00000  Uiso   1.00
C9     C     0.30614   0.16707   0.33607   0.00000  Uiso   1.00
C10    C     0.02719   0.16662   0.16390   0.00000  Uiso   1.00
C11    C     0.29103   0.17093   0.38502   0.00000  Uiso   1.00
C12    C     0.33333   0.24596   0.24996   0.00000  Uiso   1.00
C13    C     0.04216   0.16579   0.11470   0.00000  Uiso   1.00
C14    C     0.30596   0.19325   0.45449   0.00000  Uiso   1.00
C15    C     0.02529   0.15287   0.04351   0.00000  Uiso   1.00
C16    C     0.32299   0.18515   0.40886   0.00000  Uiso   1.00
C17    C     0.00916   0.15659   0.08989   0.00000  Uiso   1.00
C18    C     0.24240   0.16380   0.40738   0.00000  Uiso   1.00
C19    C     0.09096   0.17264   0.09260   0.00000  Uiso   1.00
C20    C     0.22380   0.17326   0.45301   0.00000  Uiso   1.00
C21    C     0.10807   0.17002   0.04569   0.00000  Uiso   1.00
C22    C     0.25679   0.18750   0.47667   0.00000  Uiso   1.00
C23    C     0.19204   0.19095   0.04476   0.00000  Uiso   1.00
C24    C     0.07437   0.15911   0.02132   0.00000  Uiso   1.00
C25    C     0.17357   0.16919   0.47560   0.00000  Uiso   1.00
C26    C     0.15777   0.17663   0.02259   0.00000  Uiso   1.00
C27    C     0.13846   0.15885   0.45262   0.00000  Uiso   1.00
C28    C     0.24042   0.19637   0.02210   0.00000  Uiso   1.00
C29    C     0.08994   0.15412   0.47512   0.00000  Uiso   1.00
C30    C     0.29070   0.02136   0.25053   0.00000  Uiso   1.00
C31    C     0.04262   0.31197   0.24949   0.00000  Uiso   1.00
C32    C     0.29069   0.31212   0.25047   0.00000  Uiso   1.00
Cu33   Cu    0.04689   0.16667   0.25000   0.00000  Uiso   1.00
Cu34   Cu    0.28645   0.16666   0.25000   0.00000  Uiso   1.00
H35    H     0.26527   0.20766   0.04039   0.00000  Uiso   1.00
H36    H     0.14684   0.15497   0.41686   0.00000  Uiso   1.00
H37    H     0.25736   0.03742   0.25096   0.00000  Uiso   1.00
H38    H     0.07597   0.29591   0.24906   0.00000  Uiso   1.00
H39    H     0.25735   0.29618   0.25087   0.00000  Uiso   1.00
H40    H     0.07597   0.03715   0.24916   0.00000  Uiso   1.00
H41    H     0.19550   0.12292   0.30261   0.00000  Uiso   1.00
H42    H     0.13783   0.21043   0.19740   0.00000  Uiso   1.00
H43    H     0.10114   0.12468   0.34282   0.00000  Uiso   1.00
H44    H     0.11223   0.08616   0.30502   0.00000  Uiso   1.00
H45    H     0.22110   0.24721   0.19506   0.00000  Uiso   1.00
H46    H     0.06445   0.14599   0.45613   0.00000  Uiso   1.00
H47    H     0.23215   0.20874   0.15720   0.00000  Uiso   1.00
H48    H     0.11518   0.17878   0.11307   0.00000  Uiso   1.00
H49    H     0.21988   0.15084   0.38809   0.00000  Uiso   1.00
H50    H     0.30461   0.15109   0.10639   0.00000  Uiso   1.00
H51    H     0.02739   0.19104   0.39207   0.00000  Uiso   1.00
H52    H     0.33107   0.20488   0.47228   0.00000  Uiso   1.00
H53    H     0.33282   0.14440   0.02503   0.00000  Uiso   1.00
H54    H     0.18266   0.19946   0.07957   0.00000  Uiso   1.00
N55    N     0.11736   0.16668   0.24999   0.00000  Uiso   1.00
N56    N     0.21597   0.16666   0.25001   0.00000  Uiso   1.00
N57    N     0.10014   0.11655   0.31042   0.00000  Uiso   1.00
N58    N     0.23318   0.21682   0.18961   0.00000  Uiso   1.00
O59    O     0.03958   0.10655   0.25000   0.00000  Uiso   1.00
O60    O     0.29375   0.22678   0.25000   0.00000  Uiso   1.00
O61    O     0.29372   0.10654   0.25001   0.00000  Uiso   1.00
O62    O     0.03961   0.22679   0.25000   0.00000  Uiso   1.00
O63    O     0.01852   0.16668   0.31492   0.00000  Uiso   1.00
O64    O     0.31481   0.16666   0.18509   0.00000  Uiso   1.00
O65    O     0.27267   0.16667   0.31492   0.00000  Uiso   1.00
O66    O     0.06067   0.16667   0.18508   0.00000  Uiso   1.00
C67    C     0.33334   0.08737   0.25005   0.00000  Uiso   1.00
C68    C     0.37597   0.02121   0.24955   0.00000  Uiso   1.00
C69    C     0.66665   0.29059   0.24996   0.00000  Uiso   1.00
C70    C     0.33335   0.04275   0.25006   0.00000  Uiso   1.00
C71    C     0.51660   0.14239   0.27927   0.00000  Uiso   1.00
C72    C     0.48340   0.19095   0.22074   0.00000  Uiso   1.00
C73    C     0.46688   0.14231   0.27940   0.00000  Uiso   1.00
C74    C     0.53311   0.19103   0.22061   0.00000  Uiso   1.00
C75    C     0.63948   0.16707   0.33607   0.00000  Uiso   1.00
C76    C     0.36053   0.16662   0.16390   0.00000  Uiso   1.00
C77    C     0.62436   0.17093   0.38502   0.00000  Uiso   1.00
C78    C     0.66666   0.24596   0.24996   0.00000  Uiso   1.00
C79    C     0.37549   0.16579   0.11470   0.00000  Uiso   1.00
C80    C     0.63929   0.19325   0.45449   0.00000  Uiso   1.00
C81    C     0.35863   0.15287   0.04351   0.00000  Uiso   1.00
C82    C     0.65632   0.18515   0.40886   0.00000  Uiso   1.00
C83    C     0.34250   0.15659   0.08989   0.00000  Uiso   1.00
C84    C     0.57574   0.16380   0.40738   0.00000  Uiso   1.00
C85    C     0.42430   0.17264   0.09260   0.00000  Uiso   1.00
C86    C     0.55713   0.17326   0.45301   0.00000  Uiso   1.00
C87    C     0.44140   0.17002   0.04569   0.00000  Uiso   1.00
C88    C     0.59012   0.18750   0.47667   0.00000  Uiso   1.00
C89    C     0.52537   0.19095   0.04476   0.00000  Uiso   1.00
C90    C     0.40771   0.15911   0.02132   0.00000  Uiso   1.00
C91    C     0.50690   0.16919   0.47560   0.00000  Uiso   1.00
C92    C     0.49110   0.17663   0.02259   0.00000  Uiso   1.00
C93    C     0.47179   0.15885   0.45262   0.00000  Uiso   1.00
C94    C     0.57376   0.19637   0.02210   0.00000  Uiso   1.00
C95    C     0.42327   0.15412   0.47512   0.00000  Uiso   1.00
C96    C     0.62404   0.02136   0.25053   0.00000  Uiso   1.00
C97    C     0.37596   0.31197   0.24949   0.00000  Uiso   1.00
C98    C     0.62403   0.31212   0.25047   0.00000  Uiso   1.00
Cu99   Cu    0.38022   0.16667   0.25000   0.00000  Uiso   1.00
Cu100  Cu    0.61978   0.16666   0.25000   0.00000  Uiso   1.00
H101   H     0.59860   0.20766   0.04039   0.00000  Uiso   1.00
H102   H     0.48017   0.15497   0.41686   0.00000  Uiso   1.00
H103   H     0.59069   0.03742   0.25096   0.00000  Uiso   1.00
H104   H     0.40930   0.29591   0.24906   0.00000  Uiso   1.00
H105   H     0.59069   0.29618   0.25087   0.00000  Uiso   1.00
H106   H     0.40931   0.03715   0.24916   0.00000  Uiso   1.00
H107   H     0.52883   0.12292   0.30261   0.00000  Uiso   1.00
H108   H     0.47117   0.21043   0.19740   0.00000  Uiso   1.00
H109   H     0.43448   0.12468   0.34282   0.00000  Uiso   1.00
H110   H     0.44556   0.08616   0.30502   0.00000  Uiso   1.00
H111   H     0.55444   0.24721   0.19506   0.00000  Uiso   1.00
H112   H     0.39778   0.14599   0.45613   0.00000  Uiso   1.00
H113   H     0.56549   0.20874   0.15720   0.00000  Uiso   1.00
H114   H     0.44851   0.17878   0.11307   0.00000  Uiso   1.00
H115   H     0.55321   0.15084   0.38809   0.00000  Uiso   1.00
H116   H     0.63794   0.15109   0.10639   0.00000  Uiso   1.00
H117   H     0.36072   0.19104   0.39207   0.00000  Uiso   1.00
H118   H     0.66440   0.20488   0.47228   0.00000  Uiso   1.00
H119   H     0.66615   0.14440   0.02503   0.00000  Uiso   1.00
H120   H     0.51599   0.19946   0.07957   0.00000  Uiso   1.00
N121   N     0.45069   0.16668   0.24999   0.00000  Uiso   1.00
N122   N     0.54931   0.16666   0.25001   0.00000  Uiso   1.00
N123   N     0.43347   0.11655   0.31042   0.00000  Uiso   1.00
N124   N     0.56651   0.21682   0.18961   0.00000  Uiso   1.00
O125   O     0.37291   0.10655   0.25000   0.00000  Uiso   1.00
O126   O     0.62709   0.22678   0.25000   0.00000  Uiso   1.00
O127   O     0.62706   0.10654   0.25001   0.00000  Uiso   1.00
O128   O     0.37294   0.22679   0.25000   0.00000  Uiso   1.00
O129   O     0.35186   0.16668   0.31492   0.00000  Uiso   1.00
O130   O     0.64814   0.16666   0.18509   0.00000  Uiso   1.00
O131   O     0.60600   0.16667   0.31492   0.00000  Uiso   1.00
O132   O     0.39400   0.16667   0.18508   0.00000  Uiso   1.00
C133   C     0.66667   0.08737   0.25005   0.00000  Uiso   1.00
C134   C     0.70930   0.02121   0.24955   0.00000  Uiso   1.00
C135   C     0.99998   0.29059   0.24996   0.00000  Uiso   1.00
C136   C     0.66668   0.04275   0.25006   0.00000  Uiso   1.00
C137   C     0.84993   0.14239   0.27927   0.00000  Uiso   1.00
C138   C     0.81673   0.19095   0.22074   0.00000  Uiso   1.00
C139   C     0.80022   0.14231   0.27940   0.00000  Uiso   1.00
C140   C     0.86645   0.19103   0.22061   0.00000  Uiso   1.00
C141   C     0.97281   0.16707   0.33607   0.00000  Uiso   1.00
C142   C     0.69386   0.16662   0.16390   0.00000  Uiso   1.00
C143   C     0.95770   0.17093   0.38502   0.00000  Uiso   1.00
C144   C     1.00000   0.24596   0.24996   0.00000  Uiso   1.00
C145   C     0.70883   0.16579   0.11470   0.00000  Uiso   1.00
C146   C     0.97263   0.19325   0.45449   0.00000  Uiso   1.00
C147   C     0.69196   0.15287   0.04351   0.00000  Uiso   1.00
C148   C     0.98966   0.18515   0.40886   0.00000  Uiso   1.00
C149   C     0.67583   0.15659   0.08989   0.00000  Uiso   1.00
C150   C     0.90907   0.16380   0.40738   0.00000  Uiso   1.00
C151   C     0.75763   0.17264   0.09260   0.00000  Uiso   1.00
C152   C     0.89047   0.17326   0.45301   0.00000  Uiso   1.00
C153   C     0.77473   0.17002   0.04569   0.00000  Uiso   1.00
C154   C     0.92346   0.18750   0.47667   0.00000  Uiso   1.00
C155   C     0.85871   0.19095   0.04476   0.00000  Uiso   1.00
C156   C     0.74104   0.15911   0.02132   0.00000  Uiso   1.00
C157   C     0.84023   0.16919   0.47560   0.00000  Uiso   1.00
C158   C     0.82444   0.17663   0.02259   0.00000  Uiso   1.00
C159   C     0.80513   0.15885   0.45262   0.00000  Uiso   1.00
C160   C     0.90709   0.19637   0.02210   0.00000  Uiso   1.00
C161   C     0.75660   0.15412   0.47512   0.00000  Uiso   1.00
C162   C     0.95737   0.02136   0.25053   0.00000  Uiso   1.00
C163   C     0.70929   0.31197   0.24949   0.00000  Uiso   1.00
C164   C     0.95736   0.31212   0.25047   0.00000  Uiso   1.00
Cu165  Cu    0.71355   0.16667   0.25000   0.00000  Uiso   1.00
Cu166  Cu    0.95311   0.16666   0.25000   0.00000  Uiso   1.00
H167   H     0.93193   0.20766   0.04039   0.00000  Uiso   1.00
H168   H     0.81351   0.15497   0.41686   0.00000  Uiso   1.00
H169   H     0.92402   0.03742   0.25096   0.00000  Uiso   1.00
H170   H     0.74264   0.29591   0.24906   0.00000  Uiso   1.00
H171   H     0.92402   0.29618   0.25087   0.00000  Uiso   1.00
H172   H     0.74264   0.03715   0.24916   0.00000  Uiso   1.00
H173   H     0.86216   0.12292   0.30261   0.00000  Uiso   1.00
H174   H     0.80450   0.21043   0.19740   0.00000  Uiso   1.00
H175   H     0.76781   0.12468   0.34282   0.00000  Uiso   1.00
H176   H     0.77889   0.08616   0.30502   0.00000  Uiso   1.00
H177   H     0.88777   0.24721   0.19506   0.00000  Uiso   1.00
H178   H     0.73112   0.14599   0.45613   0.00000  Uiso   1.00
H179   H     0.89882   0.20874   0.15720   0.00000  Uiso   1.00
H180   H     0.78184   0.17878   0.11307   0.00000  Uiso   1.00
H181   H     0.88655   0.15084   0.38809   0.00000  Uiso   1.00
H182   H     0.97127   0.15109   0.10639   0.00000  Uiso   1.00
H183   H     0.69405   0.19104   0.39207   0.00000  Uiso   1.00
H184   H     0.99773   0.20488   0.47228   0.00000  Uiso   1.00
H185   H     0.99948   0.14440   0.02503   0.00000  Uiso   1.00
H186   H     0.84932   0.19946   0.07957   0.00000  Uiso   1.00
N187   N     0.78403   0.16668   0.24999   0.00000  Uiso   1.00
N188   N     0.88264   0.16666   0.25001   0.00000  Uiso   1.00
N189   N     0.76681   0.11655   0.31042   0.00000  Uiso   1.00
N190   N     0.89985   0.21682   0.18961   0.00000  Uiso   1.00
O191   O     0.70625   0.10655   0.25000   0.00000  Uiso   1.00
O192   O     0.96042   0.22678   0.25000   0.00000  Uiso   1.00
O193   O     0.96039   0.10654   0.25001   0.00000  Uiso   1.00
O194   O     0.70628   0.22679   0.25000   0.00000  Uiso   1.00
O195   O     0.68519   0.16668   0.31492   0.00000  Uiso   1.00
O196   O     0.98148   0.16666   0.18509   0.00000  Uiso   1.00
O197   O     0.93933   0.16667   0.31492   0.00000  Uiso   1.00
O198   O     0.72733   0.16667   0.18508   0.00000  Uiso   1.00
C199   C     0.00000   0.42070   0.25005   0.00000  Uiso   1.00
C200   C     0.04263   0.35454   0.24955   0.00000  Uiso   1.00
C201   C     0.33332   0.62392   0.24996   0.00000  Uiso   1.00
C202   C     0.00001   0.37608   0.25006   0.00000  Uiso   1.00
C203   C     0.18326   0.47572   0.27927   0.00000  Uiso   1.00
C204   C     0.15007   0.52429   0.22074   0.00000  Uiso   1.00
C205   C     0.13355   0.47564   0.27940   0.00000  Uiso   1.00
C206   C     0.19978   0.52437   0.22061   0.00000  Uiso   1.00
C207   C     0.30614   0.50041   0.33607   0.00000  Uiso   1.00
C208   C     0.02719   0.49995   0.16390   0.00000  Uiso   1.00
C209   C     0.29103   0.50426   0.38502   0.00000  Uiso   1.00
C210   C     0.33333   0.57930   0.24996   0.00000  Uiso   1.00
C211   C     0.04216   0.49913   0.11470   0.00000  Uiso   1.00
C212   C     0.30596   0.52658   0.45449   0.00000  Uiso   1.00
C213   C     0.02529   0.48621   0.04351   0.00000  Uiso   1.00
C214   C     0.32299   0.51848   0.40886   0.00000  Uiso   1.00
C215   C     0.00916   0.48993   0.08989   0.00000  Uiso   1.00
C216   C     0.24240   0.49714   0.40738   0.00000  Uiso   1.00
C217   C     0.09096   0.50598   0.09260   0.00000  Uiso   1.00
C218   C     0.22380   0.50659   0.45301   0.00000  Uiso   1.00
C219   C     0.10807   0.50335   0.04569   0.00000  Uiso   1.00
C220   C     0.25679   0.52083   0.47667   0.00000  Uiso   1.00
C221   C     0.19204   0.52428   0.04476   0.00000  Uiso   1.00
C222   C     0.07437   0.49245   0.02132   0.00000  Uiso   1.00
C223   C     0.17357   0.50252   0.47560   0.00000  Uiso   1.00
C224   C     0.15777   0.50996   0.02259   0.00000  Uiso   1.00
C225   C     0.13846   0.49218   0.45262   0.00000  Uiso   1.00
C226   C     0.24042   0.52970   0.02210   0.00000  Uiso   1.00
C227   C     0.08994   0.48745   0.47512   0.00000  Uiso   1.00
C228   C     0.29070   0.35469   0.25053   0.00000  Uiso   1.00
C229   C     0.04262   0.64531   0.24949   0.00000  Uiso   1.00
C230   C     0.29069   0.64545   0.25047   0.00000  Uiso   1.00
Cu231  Cu    0.04689   0.50001   0.25000   0.00000  Uiso   1.00
Cu232  Cu    0.28645   0.49999   0.25000   0.00000  Uiso   1.00
H233   H     0.26527   0.54099   0.04039   0.00000  Uiso   1.00
H234   H     0.14684   0.48830   0.41686   0.00000  Uiso   1.00
H235   H     0.25736   0.37076   0.25096   0.00000  Uiso   1.00
H236   H     0.07597   0.62924   0.24906   0.00000  Uiso   1.00
H237   H     0.25735   0.62951   0.25087   0.00000  Uiso   1.00
H238   H     0.07597   0.37049   0.24916   0.00000  Uiso   1.00
H239   H     0.19550   0.45625   0.30261   0.00000  Uiso   1.00
H240   H     0.13783   0.54377   0.19740   0.00000  Uiso   1.00
H241   H     0.10114   0.45802   0.34282   0.00000  Uiso   1.00
H242   H     0.11223   0.41949   0.30502   0.00000  Uiso   1.00
H243   H     0.22110   0.58054   0.19506   0.00000  Uiso   1.00
H244   H     0.06445   0.47933   0.45613   0.00000  Uiso   1.00
H245   H     0.23215   0.54208   0.15720   0.00000  Uiso   1.00
H246   H     0.11518   0.51211   0.11307   0.00000  Uiso   1.00
H247   H     0.21988   0.48417   0.38809   0.00000  Uiso   1.00
H248   H     0.30461   0.48442   0.10639   0.00000  Uiso   1.00
H249   H     0.02739   0.52437   0.39207   0.00000  Uiso   1.00
H250   H     0.33107   0.53821   0.47228   0.00000  Uiso   1.00
H251   H     0.33282   0.47773   0.02503   0.00000  Uiso   1.00
H252   H     0.18266   0.53280   0.07957   0.00000  Uiso   1.00
N253   N     0.11736   0.50001   0.24999   0.00000  Uiso   1.00
N254   N     0.21597   0.49999   0.25001   0.00000  Uiso   1.00
N255   N     0.10014   0.44989   0.31042   0.00000  Uiso   1.00
N256   N     0.23318   0.55015   0.18961   0.00000  Uiso   1.00
O257   O     0.03958   0.43989   0.25000   0.00000  Uiso   1.00
O258   O     0.29375   0.56011   0.25000   0.00000  Uiso   1.00
O259   O     0.29372   0.43988   0.25001   0.00000  Uiso   1.00
O260   O     0.03961   0.56012   0.25000   0.00000  Uiso   1.00
O261   O     0.01852   0.50001   0.31492   0.00000  Uiso   1.00
O262   O     0.31481   0.49999   0.18509   0.00000  Uiso   1.00
O263   O     0.27267   0.50000   0.31492   0.00000  Uiso   1.00
O264   O     0.06067   0.50000   0.18508   0.00000  Uiso   1.00
C265   C     0.33334   0.42070   0.25005   0.00000  Uiso   1.00
C266   C     0.37597   0.35454   0.24955   0.00000  Uiso   1.00
C267   C     0.66665   0.62392   0.24996   0.00000  Uiso   1.00
C268   C     0.33335   0.37608   0.25006   0.00000  Uiso   1.00
C269   C     0.51660   0.47572   0.27927   0.00000  Uiso   1.00
C270   C     0.48340   0.52429   0.22074   0.00000  Uiso   1.00
C271   C     0.46688   0.47564   0.27940   0.00000  Uiso   1.00
C272   C     0.53311   0.52437   0.22061   0.00000  Uiso   1.00
C273   C     0.63948   0.50041   0.33607   0.00000  Uiso   1.00
C274   C     0.36053   0.49995   0.16390   0.00000  Uiso   1.00
C275   C     0.62436   0.50426   0.38502   0.00000  Uiso   1.00
C276   C     0.66666   0.57930   0.24996   0.00000  Uiso   1.00
C277   C     0.37549   0.49913   0.11470   0.00000  Uiso   1.00
C278   C     0.63929   0.52658   0.45449   0.00000  Uiso   1.00
C279   C     0.35863   0.48621   0.04351   0.00000  Uiso   1.00
C280   C     0.65632   0.51848   0.40886   0.00000  Uiso   1.00
C281   C     0.34250   0.48993   0.08989   0.00000  Uiso   1.00
C282   C     0.57574   0.49714   0.40738   0.00000  Uiso   1.00
C283   C     0.42430   0.50598   0.09260   0.00000  Uiso   1.00
C284   C     0.55713   0.50659   0.45301   0.00000  Uiso   1.00
C285   C     0.44140   0.50335   0.04569   0.00000  Uiso   1.00
C286   C     0.59012   0.52083   0.47667   0.00000  Uiso   1.00
C287   C     0.52537   0.52428   0.04476   0.00000  Uiso   1.00
C288   C     0.40771   0.49245   0.02132   0.00000  Uiso   1.00
C289   C     0.50690   0.50252   0.47560   0.00000  Uiso   1.00
C290   C     0.49110   0.50996   0.02259   0.00000  Uiso   1.00
C291   C     0.47179   0.49218   0.45262   0.00000  Uiso   1.00
C292   C     0.57376   0.52970   0.02210   0.00000  Uiso   1.00
C293   C     0.42327   0.48745   0.47512   0.00000  Uiso   1.00
C294   C     0.62404   0.35469   0.25053   0.00000  Uiso   1.00
C295   C     0.37596   0.64531   0.24949   0.00000  Uiso   1.00
C296   C     0.62403   0.64545   0.25047   0.00000  Uiso   1.00
Cu297  Cu    0.38022   0.50001   0.25000   0.00000  Uiso   1.00
Cu298  Cu    0.61978   0.49999   0.25000   0.00000  Uiso   1.00
H299   H     0.59860   0.54099   0.04039   0.00000  Uiso   1.00
H300   H     0.48017   0.48830   0.41686   0.00000  Uiso   1.00
H301   H     0.59069   0.37076   0.25096   0.00000  Uiso   1.00
H302   H     0.40930   0.62924   0.24906   0.00000  Uiso   1.00
H303   H     0.59069   0.62951   0.25087   0.00000  Uiso   1.00
H304   H     0.40931   0.37049   0.24916   0.00000  Uiso   1.00
H305   H     0.52883   0.45625   0.30261   0.00000  Uiso   1.00
H306   H     0.47117   0.54377   0.19740   0.00000  Uiso   1.00
H307   H     0.43448   0.45802   0.34282   0.00000  Uiso   1.00
H308   H     0.44556   0.41949   0.30502   0.00000  Uiso   1.00
H309   H     0.55444   0.58054   0.19506   0.00000  Uiso   1.00
H310   H     0.39778   0.47933   0.45613   0.00000  Uiso   1.00
H311   H     0.56549   0.54208   0.15720   0.00000  Uiso   1.00
H312   H     0.44851   0.51211   0.11307   0.00000  Uiso   1.00
H313   H     0.55321   0.48417   0.38809   0.00000  Uiso   1.00
H314   H     0.63794   0.48442   0.10639   0.00000  Uiso   1.00
H315   H     0.36072   0.52437   0.39207   0.00000  Uiso   1.00
H316   H     0.66440   0.53821   0.47228   0.00000  Uiso   1.00
H317   H     0.66615   0.47773   0.02503   0.00000  Uiso   1.00
H318   H     0.51599   0.53280   0.07957   0.00000  Uiso   1.00
N319   N     0.45069   0.50001   0.24999   0.00000  Uiso   1.00
N320   N     0.54931   0.49999   0.25001   0.00000  Uiso   1.00
N321   N     0.43347   0.44989   0.31042   0.00000  Uiso   1.00
N322   N     0.56651   0.55015   0.18961   0.00000  Uiso   1.00
O323   O     0.37291   0.43989   0.25000   0.00000  Uiso   1.00
O324   O     0.62709   0.56011   0.25000   0.00000  Uiso   1.00
O325   O     0.62706   0.43988   0.25001   0.00000  Uiso   1.00
O326   O     0.37294   0.56012   0.25000   0.00000  Uiso   1.00
O327   O     0.35186   0.50001   0.31492   0.00000  Uiso   1.00
O328   O     0.64814   0.49999   0.18509   0.00000  Uiso   1.00
O329   O     0.60600   0.50000   0.31492   0.00000  Uiso   1.00
O330   O     0.39400   0.50000   0.18508   0.00000  Uiso   1.00
C331   C     0.66667   0.42070   0.25005   0.00000  Uiso   1.00
C332   C     0.70930   0.35454   0.24955   0.00000  Uiso   1.00
C333   C     0.99998   0.62392   0.24996   0.00000  Uiso   1.00
C334   C     0.66668   0.37608   0.25006   0.00000  Uiso   1.00
C335   C     0.84993   0.47572   0.27927   0.00000  Uiso   1.00
C336   C     0.81673   0.52429   0.22074   0.00000  Uiso   1.00
C337   C     0.80022   0.47564   0.27940   0.00000  Uiso   1.00
C338   C     0.86645   0.52437   0.22061   0.00000  Uiso   1.00
C339   C     0.97281   0.50041   0.33607   0.00000  Uiso   1.00
C340   C     0.69386   0.49995   0.16390   0.00000  Uiso   1.00
C341   C     0.95770   0.50426   0.38502   0.00000  Uiso   1.00
C342   C     1.00000   0.57930   0.24996   0.00000  Uiso   1.00
C343   C     0.70883   0.49913   0.11470   0.00000  Uiso   1.00
C344   C     0.97263   0.52658   0.45449   0.00000  Uiso   1.00
C345   C     0.69196   0.48621   0.04351   0.00000  Uiso   1.00
C346   C     0.98966   0.51848   0.40886   0.00000  Uiso   1.00
C347   C     0.67583   0.48993   0.08989   0.00000  Uiso   1.00
C348   C     0.90907   0.49714   0.40738   0.00000  Uiso   1.00
C349   C     0.75763   0.50598   0.09260   0.00000  Uiso   1.00
C350   C     0.89047   0.50659   0.45301   0.00000  Uiso   1.00
C351   C     0.77473   0.50335   0.04569   0.00000  Uiso   1.00
C352   C     0.92346   0.52083   0.47667   0.00000  Uiso   1.00
C353   C     0.85871   0.52428   0.04476   0.00000  Uiso   1.00
C354   C     0.74104   0.49245   0.02132   0.00000  Uiso   1.00
C355   C     0.84023   0.50252   0.47560   0.00000  Uiso   1.00
C356   C     0.82444   0.50996   0.02259   0.00000  Uiso   1.00
C357   C     0.80513   0.49218   0.45262   0.00000  Uiso   1.00
C358   C     0.90709   0.52970   0.02210   0.00000  Uiso   1.00
C359   C     0.75660   0.48745   0.47512   0.00000  Uiso   1.00
C360   C     0.95737   0.35469   0.25053   0.00000  Uiso   1.00
C361   C     0.70929   0.64531   0.24949   0.00000  Uiso   1.00
C362   C     0.95736   0.64545   0.25047   0.00000  Uiso   1.00
Cu363  Cu    0.71355   0.50001   0.25000   0.00000  Uiso   1.00
Cu364  Cu    0.95311   0.49999   0.25000   0.00000  Uiso   1.00
H365   H     0.93193   0.54099   0.04039   0.00000  Uiso   1.00
H366   H     0.81351   0.48830   0.41686   0.00000  Uiso   1.00
H367   H     0.92402   0.37076   0.25096   0.00000  Uiso   1.00
H368   H     0.74264   0.62924   0.24906   0.00000  Uiso   1.00
H369   H     0.92402   0.62951   0.25087   0.00000  Uiso   1.00
H370   H     0.74264   0.37049   0.24916   0.00000  Uiso   1.00
H371   H     0.86216   0.45625   0.30261   0.00000  Uiso   1.00
H372   H     0.80450   0.54377   0.19740   0.00000  Uiso   1.00
H373   H     0.76781   0.45802   0.34282   0.00000  Uiso   1.00
H374   H     0.77889   0.41949   0.30502   0.00000  Uiso   1.00
H375   H     0.88777   0.58054   0.19506   0.00000  Uiso   1.00
H376   H     0.73112   0.47933   0.45613   0.00000  Uiso   1.00
H377   H     0.89882   0.54208   0.15720   0.00000  Uiso   1.00
H378   H     0.78184   0.51211   0.11307   0.00000  Uiso   1.00
H379   H     0.88655   0.48417   0.38809   0.00000  Uiso   1.00
H380   H     0.97127   0.48442   0.10639   0.00000  Uiso   1.00
H381   H     0.69405   0.52437   0.39207   0.00000  Uiso   1.00
H382   H     0.99773   0.53821   0.47228   0.00000  Uiso   1.00
H383   H     0.99948   0.47773   0.02503   0.00000  Uiso   1.00
H384   H     0.84932   0.53280   0.07957   0.00000  Uiso   1.00
N385   N     0.78403   0.50001   0.24999   0.00000  Uiso   1.00
N386   N     0.88264   0.49999   0.25001   0.00000  Uiso   1.00
N387   N     0.76681   0.44989   0.31042   0.00000  Uiso   1.00
N388   N     0.89985   0.55015   0.18961   0.00000  Uiso   1.00
O389   O     0.70625   0.43989   0.25000   0.00000  Uiso   1.00
O390   O     0.96042   0.56011   0.25000   0.00000  Uiso   1.00
O391   O     0.96039   0.43988   0.25001   0.00000  Uiso   1.00
O392   O     0.70628   0.56012   0.25000   0.00000  Uiso   1.00
O393   O     0.68519   0.50001   0.31492   0.00000  Uiso   1.00
O394   O     0.98148   0.49999   0.18509   0.00000  Uiso   1.00
O395   O     0.93933   0.50000   0.31492   0.00000  Uiso   1.00
O396   O     0.72733   0.50000   0.18508   0.00000  Uiso   1.00
C397   C     0.00000   0.75404   0.25005   0.00000  Uiso   1.00
C398   C     0.04263   0.68788   0.24955   0.00000  Uiso   1.00
C399   C     0.33332   0.95725   0.24996   0.00000  Uiso   1.00
C400   C     0.00001   0.70941   0.25006   0.00000  Uiso   1.00
C401   C     0.18326   0.80906   0.27927   0.00000  Uiso   1.00
C402   C     0.15007   0.85762   0.22074   0.00000  Uiso   1.00
C403   C     0.13355   0.80898   0.27940   0.00000  Uiso   1.00
C404   C     0.19978   0.85770   0.22061   0.00000  Uiso   1.00
C405   C     0.30614   0.83374   0.33607   0.00000  Uiso   1.00
C406   C     0.02719   0.83329   0.16390   0.00000  Uiso   1.00
C407   C     0.29103   0.83760   0.38502   0.00000  Uiso   1.00
C408   C     0.33333   0.91263   0.24996   0.00000  Uiso   1.00
C409   C     0.04216   0.83246   0.11470   0.00000  Uiso   1.00
C410   C     0.30596   0.85992   0.45449   0.00000  Uiso   1.00
C411   C     0.02529   0.81954   0.04351   0.00000  Uiso   1.00
C412   C     0.32299   0.85181   0.40886   0.00000  Uiso   1.00
C413   C     0.00916   0.82326   0.08989   0.00000  Uiso   1.00
C414   C     0.24240   0.83047   0.40738   0.00000  Uiso   1.00
C415   C     0.09096   0.83931   0.09260   0.00000  Uiso   1.00
C416   C     0.22380   0.83993   0.45301   0.00000  Uiso   1.00
C417   C     0.10807   0.83669   0.04569   0.00000  Uiso   1.00
C418   C     0.25679   0.85417   0.47667   0.00000  Uiso   1.00
C419   C     0.19204   0.85761   0.04476   0.00000  Uiso   1.00
C420   C     0.07437   0.82578   0.02132   0.00000  Uiso   1.00
C421   C     0.17357   0.83585   0.47560   0.00000  Uiso   1.00
C422   C     0.15777   0.84329   0.02259   0.00000  Uiso   1.00
C423   C     0.13846   0.82551   0.45262   0.00000  Uiso   1.00
C424   C     0.24042   0.86304   0.02210   0.00000  Uiso   1.00
C425   C     0.08994   0.82079   0.47512   0.00000  Uiso   1.00
C426   C     0.29070   0.68803   0.25053   0.00000  Uiso   1.00
C427   C     0.04262   0.97864   0.24949   0.00000  Uiso   1.00
C428   C     0.29069   0.97879   0.25047   0.00000  Uiso   1.00
Cu429  Cu    0.04689   0.83334   0.25000   0.00000  Uiso   1.00
Cu430  Cu    0.28645   0.83333   0.25000   0.00000  Uiso   1.00
H431   H     0.26527   0.87432   0.04039   0.00000  Uiso   1.00
H432   H     0.14684   0.82164   0.41686   0.00000  Uiso   1.00
H433   H     0.25736   0.70409   0.25096   0.00000  Uiso   1.00
H434   H     0.07597   0.96257   0.24906   0.00000  Uiso   1.00
H435   H     0.25735   0.96284   0.25087   0.00000  Uiso   1.00
H436   H     0.07597   0.70382   0.24916   0.00000  Uiso   1.00
H437   H     0.19550   0.78958   0.30261   0.00000  Uiso   1.00
H438   H     0.13783   0.87710   0.19740   0.00000  Uiso   1.00
H439   H     0.10114   0.79135   0.34282   0.00000  Uiso   1.00
H440   H     0.11223   0.75283   0.30502   0.00000  Uiso   1.00
H441   H     0.22110   0.91388   0.19506   0.00000  Uiso   1.00
H442   H     0.06445   0.81266   0.45613   0.00000  Uiso   1.00
H443   H     0.23215   0.87541   0.15720   0.00000  Uiso   1.00
H444   H     0.11518   0.84545   0.11307   0.00000  Uiso   1.00
H445   H     0.21988   0.81751   0.38809   0.00000  Uiso   1.00
H446   H     0.30461   0.81775   0.10639   0.00000  Uiso   1.00
H447   H     0.02739   0.85771   0.39207   0.00000  Uiso   1.00
H448   H     0.33107   0.87154   0.47228   0.00000  Uiso   1.00
H449   H     0.33282   0.81107   0.02503   0.00000  Uiso   1.00
H450   H     0.18266   0.86613   0.07957   0.00000  Uiso   1.00
N451   N     0.11736   0.83334   0.24999   0.00000  Uiso   1.00
N452   N     0.21597   0.83332   0.25001   0.00000  Uiso   1.00
N453   N     0.10014   0.78322   0.31042   0.00000  Uiso   1.00
N454   N     0.23318   0.88349   0.18961   0.00000  Uiso   1.00
O455   O     0.03958   0.77322   0.25000   0.00000  Uiso   1.00
O456   O     0.29375   0.89345   0.25000   0.00000  Uiso   1.00
O457   O     0.29372   0.77321   0.25001   0.00000  Uiso   1.00
O458   O     0.03961   0.89346   0.25000   0.00000  Uiso   1.00
O459   O     0.01852   0.83334   0.31492   0.00000  Uiso   1.00
O460   O     0.31481   0.83332   0.18509   0.00000  Uiso   1.00
O461   O     0.27267   0.83333   0.31492   0.00000  Uiso   1.00
O462   O     0.06067   0.83333   0.18508   0.00000  Uiso   1.00
C463   C     0.33334   0.75404   0.25005   0.00000  Uiso   1.00
C464   C     0.37597   0.68788   0.24955   0.00000  Uiso   1.00
C465   C     0.66665   0.95725   0.24996   0.00000  Uiso   1.00
C466   C     0.33335   0.70941   0.25006   0.00000  Uiso   1.00
C467   C     0.51660   0.80906   0.27927   0.00000  Uiso   1.00
C468   C     0.48340   0.85762   0.22074   0.00000  Uiso   1.00
C469   C     0.46688   0.80898   0.27940   0.00000  Uiso   1.00
C470   C     0.53311   0.85770   0.22061   0.00000  Uiso   1.00
C471   C     0.63948   0.83374   0.33607   0.00000  Uiso   1.00
C472   C     0.36053   0.83329   0.16390   0.00000  Uiso   1.00
C473   C     0.62436   0.83760   0.38502   0.00000  Uiso   1.00
C474   C     0.66666   0.91263   0.24996   0.00000  Uiso   1.00
C475   C     0.37549   0.83246   0.11470   0.00000  Uiso   1.00
C476   C     0.63929   0.85992   0.45449   0.00000  Uiso   1.00
C477   C     0.35863   0.81954   0.04351   0.00000  Uiso   1.00
C478   C     0.65632   0.85181   0.40886   0.00000  Uiso   1.00
C479   C     0.34250   0.82326   0.08989   0.00000  Uiso   1.00
C480   C     0.57574   0.83047   0.40738   0.00000  Uiso   1.00
C481   C     0.42430   0.83931   0.09260   0.00000  Uiso   1.00
C482   C     0.55713   0.83993   0.45301   0.00000  Uiso   1.00
C483   C     0.44140   0.83669   0.04569   0.00000  Uiso   1.00
C484   C     0.59012   0.85417   0.47667   0.00000  Uiso   1.00
C485   C     0.52537   0.85761   0.04476   0.00000  Uiso   1.00
C486   C     0.40771   0.82578   0.02132   0.00000  Uiso   1.00
C487   C     0.50690   0.83585   0.47560   0.00000  Uiso   1.00
C488   C     0.49110   0.84329   0.02259   0.00000  Uiso   1.00
C489   C     0.47179   0.82551   0.45262   0.00000  Uiso   1.00
C490   C     0.57376   0.86304   0.02210   0.00000  Uiso   1.00
C491   C     0.42327   0.82079   0.47512   0.00000  Uiso   1.00
C492   C     0.62404   0.68803   0.25053   0.00000  Uiso   1.00
C493   C     0.37596   0.97864   0.24949   0.00000  Uiso   1.00
C494   C     0.62403   0.97879   0.25047   0.00000  Uiso   1.00
Cu495  Cu    0.38022   0.83334   0.25000   0.00000  Uiso   1.00
Cu496  Cu    0.61978   0.83333   0.25000   0.00000  Uiso   1.00
H497   H     0.59860   0.87432   0.04039   0.00000  Uiso   1.00
H498   H     0.48017   0.82164   0.41686   0.00000  Uiso   1.00
H499   H     0.59069   0.70409   0.25096   0.00000  Uiso   1.00
H500   H     0.40930   0.96257   0.24906   0.00000  Uiso   1.00
H501   H     0.59069   0.96284   0.25087   0.00000  Uiso   1.00
H502   H     0.40931   0.70382   0.24916   0.00000  Uiso   1.00
H503   H     0.52883   0.78958   0.30261   0.00000  Uiso   1.00
H504   H     0.47117   0.87710   0.19740   0.00000  Uiso   1.00
H505   H     0.43448   0.79135   0.34282   0.00000  Uiso   1.00
H506   H     0.44556   0.75283   0.30502   0.00000  Uiso   1.00
H507   H     0.55444   0.91388   0.19506   0.00000  Uiso   1.00
H508   H     0.39778   0.81266   0.45613   0.00000  Uiso   1.00
H509   H     0.56549   0.87541   0.15720   0.00000  Uiso   1.00
H510   H     0.44851   0.84545   0.11307   0.00000  Uiso   1.00
H511   H     0.55321   0.81751   0.38809   0.00000  Uiso   1.00
H512   H     0.63794   0.81775   0.10639   0.00000  Uiso   1.00
H513   H     0.36072   0.85771   0.39207   0.00000  Uiso   1.00
H514   H     0.66440   0.87154   0.47228   0.00000  Uiso   1.00
H515   H     0.66615   0.81107   0.02503   0.00000  Uiso   1.00
H516   H     0.51599   0.86613   0.07957   0.00000  Uiso   1.00
N517   N     0.45069   0.83334   0.24999   0.00000  Uiso   1.00
N518   N     0.54931   0.83332   0.25001   0.00000  Uiso   1.00
N519   N     0.43347   0.78322   0.31042   0.00000  Uiso   1.00
N520   N     0.56651   0.88349   0.18961   0.00000  Uiso   1.00
O521   O     0.37291   0.77322   0.25000   0.00000  Uiso   1.00
O522   O     0.62709   0.89345   0.25000   0.00000  Uiso   1.00
O523   O     0.62706   0.77321   0.25001   0.00000  Uiso   1.00
O524   O     0.37294   0.89346   0.25000   0.00000  Uiso   1.00
O525   O     0.35186   0.83334   0.31492   0.00000  Uiso   1.00
O526   O     0.64814   0.83332   0.18509   0.00000  Uiso   1.00
O527   O     0.60600   0.83333   0.31492   0.00000  Uiso   1.00
O528   O     0.39400   0.83333   0.18508   0.00000  Uiso   1.00
C529   C     0.66667   0.75404   0.25005   0.00000  Uiso   1.00
C530   C     0.70930   0.68788   0.24955   0.00000  Uiso   1.00
C531   C     0.99998   0.95725   0.24996   0.00000  Uiso   1.00
C532   C     0.66668   0.70941   0.25006   0.00000  Uiso   1.00
C533   C     0.84993   0.80906   0.27927   0.00000  Uiso   1.00
C534   C     0.81673   0.85762   0.22074   0.00000  Uiso   1.00
C535   C     0.80022   0.80898   0.27940   0.00000  Uiso   1.00
C536   C     0.86645   0.85770   0.22061   0.00000  Uiso   1.00
C537   C     0.97281   0.83374   0.33607   0.00000  Uiso   1.00
C538   C     0.69386   0.83329   0.16390   0.00000  Uiso   1.00
C539   C     0.95770   0.83760   0.38502   0.00000  Uiso   1.00
C540   C     1.00000   0.91263   0.24996   0.00000  Uiso   1.00
C541   C     0.70883   0.83246   0.11470   0.00000  Uiso   1.00
C542   C     0.97263   0.85992   0.45449   0.00000  Uiso   1.00
C543   C     0.69196   0.81954   0.04351   0.00000  Uiso   1.00
C544   C     0.98966   0.85181   0.40886   0.00000  Uiso   1.00
C545   C     0.67583   0.82326   0.08989   0.00000  Uiso   1.00
C546   C     0.90907   0.83047   0.40738   0.00000  Uiso   1.00
C547   C     0.75763   0.83931   0.09260   0.00000  Uiso   1.00
C548   C     0.89047   0.83993   0.45301   0.00000  Uiso   1.00
C549   C     0.77473   0.83669   0.04569   0.00000  Uiso   1.00
C550   C     0.92346   0.85417   0.47667   0.00000  Uiso   1.00
C551   C     0.85871   0.85761   0.04476   0.00000  Uiso   1.00
C552   C     0.74104   0.82578   0.02132   0.00000  Uiso   1.00
C553   C     0.84023   0.83585   0.47560   0.00000  Uiso   1.00
C554   C     0.82444   0.84329   0.02259   0.00000  Uiso   1.00
C555   C     0.80513   0.82551   0.45262   0.00000  Uiso   1.00
C556   C     0.90709   0.86304   0.02210   0.00000  Uiso   1.00
C557   C     0.75660   0.82079   0.47512   0.00000  Uiso   1.00
C558   C     0.95737   0.68803   0.25053   0.00000  Uiso   1.00
C559   C     0.70929   0.97864   0.24949   0.00000  Uiso   1.00
C560   C     0.95736   0.97879   0.25047   0.00000  Uiso   1.00
Cu561  Cu    0.71355   0.83334   0.25000   0.00000  Uiso   1.00
Cu562  Cu    0.95311   0.83333   0.25000   0.00000  Uiso   1.00
H563   H     0.93193   0.87432   0.04039   0.00000  Uiso   1.00
H564   H     0.81351   0.82164   0.41686   0.00000  Uiso   1.00
H565   H     0.92402   0.70409   0.25096   0.00000  Uiso   1.00
H566   H     0.74264   0.96257   0.24906   0.00000  Uiso   1.00
H567   H     0.92402   0.96284   0.25087   0.00000  Uiso   1.00
H568   H     0.74264   0.70382   0.24916   0.00000  Uiso   1.00
H569   H     0.86216   0.78958   0.30261   0.00000  Uiso   1.00
H570   H     0.80450   0.87710   0.19740   0.00000  Uiso   1.00
H571   H     0.76781   0.79135   0.34282   0.00000  Uiso   1.00
H572   H     0.77889   0.75283   0.30502   0.00000  Uiso   1.00
H573   H     0.88777   0.91388   0.19506   0.00000  Uiso   1.00
H574   H     0.73112   0.81266   0.45613   0.00000  Uiso   1.00
H575   H     0.89882   0.87541   0.15720   0.00000  Uiso   1.00
H576   H     0.78184   0.84545   0.11307   0.00000  Uiso   1.00
H577   H     0.88655   0.81751   0.38809   0.00000  Uiso   1.00
H578   H     0.97127   0.81775   0.10639   0.00000  Uiso   1.00
H579   H     0.69405   0.85771   0.39207   0.00000  Uiso   1.00
H580   H     0.99773   0.87154   0.47228   0.00000  Uiso   1.00
H581   H     0.99948   0.81107   0.02503   0.00000  Uiso   1.00
H582   H     0.84932   0.86613   0.07957   0.00000  Uiso   1.00
N583   N     0.78403   0.83334   0.24999   0.00000  Uiso   1.00
N584   N     0.88264   0.83332   0.25001   0.00000  Uiso   1.00
N585   N     0.76681   0.78322   0.31042   0.00000  Uiso   1.00
N586   N     0.89985   0.88349   0.18961   0.00000  Uiso   1.00
O587   O     0.70625   0.77322   0.25000   0.00000  Uiso   1.00
O588   O     0.96042   0.89345   0.25000   0.00000  Uiso   1.00
O589   O     0.96039   0.77321   0.25001   0.00000  Uiso   1.00
O590   O     0.70628   0.89346   0.25000   0.00000  Uiso   1.00
O591   O     0.68519   0.83334   0.31492   0.00000  Uiso   1.00
O592   O     0.98148   0.83332   0.18509   0.00000  Uiso   1.00
O593   O     0.93933   0.83333   0.31492   0.00000  Uiso   1.00
O594   O     0.72733   0.83333   0.18508   0.00000  Uiso   1.00
C595   C     0.00000   0.08737   0.75005   0.00000  Uiso   1.00
C596   C     0.04263   0.02121   0.74955   0.00000  Uiso   1.00
C597   C     0.33332   0.29059   0.74996   0.00000  Uiso   1.00
C598   C     0.00001   0.04275   0.75006   0.00000  Uiso   1.00
C599   C     0.18326   0.14239   0.77927   0.00000  Uiso   1.00
C600   C     0.15007   0.19095   0.72074   0.00000  Uiso   1.00
C601   C     0.13355   0.14231   0.77940   0.00000  Uiso   1.00
C602   C     0.19978   0.19103   0.72061   0.00000  Uiso   1.00
C603   C     0.30614   0.16707   0.83607   0.00000  Uiso   1.00
C604   C     0.02719   0.16662   0.66390   0.00000  Uiso   1.00
C605   C     0.29103   0.17093   0.88502   0.00000  Uiso   1.00
C606   C     0.33333   0.24596   0.74996   0.00000  Uiso   1.00
C607   C     0.04216   0.16579   0.61470   0.00000  Uiso   1.00
C608   C     0.30596   0.19325   0.95449   0.00000  Uiso   1.00
C609   C     0.02529   0.15287   0.54351   0.00000  Uiso   1.00
C610   C     0.32299   0.18515   0.90886   0.00000  Uiso   1.00
C611   C     0.00916   0.15659   0.58989   0.00000  Uiso   1.00
C612   C     0.24240   0.16380   0.90738   0.00000  Uiso   1.00
C613   C     0.09096   0.17264   0.59260   0.00000  Uiso   1.00
C614   C     0.22380   0.17326   0.95301   0.00000  Uiso   1.00
C615   C     0.10807   0.17002   0.54569   0.00000  Uiso   1.00
C616   C     0.25679   0.18750   0.97667   0.00000  Uiso   1.00
C617   C     0.19204   0.19095   0.54476   0.00000  Uiso   1.00
C618   C     0.07437   0.15911   0.52132   0.00000  Uiso   1.00
C619   C     0.17357   0.16919   0.97560   0.00000  Uiso   1.00
C620   C     0.15777   0.17663   0.52259   0.00000  Uiso   1.00
C621   C     0.13846   0.15885   0.95262   0.00000  Uiso   1.00
C622   C     0.24042   0.19637   0.52210   0.00000  Uiso   1.00
C623   C     0.08994   0.15412   0.97512   0.00000  Uiso   1.00
C624   C     0.29070   0.02136   0.75053   0.00000  Uiso   1.00
C625   C     0.04262   0.31197   0.74949   0.00000  Uiso   1.00
C626   C     0.29069   0.31212   0.75047   0.00000  Uiso   1.00
Cu627  Cu    0.04689   0.16667   0.75000   0.00000  Uiso   1.00
Cu628  Cu    0.28645   0.16666   0.75000   0.00000  Uiso   1.00
H629   H     0.26527   0.20766   0.54039   0.00000  Uiso   1.00
H630   H     0.14684   0.15497   0.91686   0.00000  Uiso   1.00
H631   H     0.25736   0.03742   0.75096   0.00000  Uiso   1.00
H632   H     0.07597   0.29591   0.74906   0.00000  Uiso   1.00
H633   H     0.25735   0.29618   0.75087   0.00000  Uiso   1.00
H634   H     0.07597   0.03715   0.74916   0.00000  Uiso   1.00
H635   H     0.19550   0.12292   0.80261   0.00000  Uiso   1.00
H636   H     0.13783   0.21043   0.69740   0.00000  Uiso   1.00
H637   H     0.10114   0.12468   0.84282   0.00000  Uiso   1.00
H638   H     0.11223   0.08616   0.80502   0.00000  Uiso   1.00
H639   H     0.22110   0.24721   0.69506   0.00000  Uiso   1.00
H640   H     0.06445   0.14599   0.95613   0.00000  Uiso   1.00
H641   H     0.23215   0.20874   0.65720   0.00000  Uiso   1.00
H642   H     0.11518   0.17878   0.61307   0.00000  Uiso   1.00
H643   H     0.21988   0.15084   0.88809   0.00000  Uiso   1.00
H644   H     0.30461   0.15109   0.60639   0.00000  Uiso   1.00
H645   H     0.02739   0.19104   0.89207   0.00000  Uiso   1.00
H646   H     0.33107   0.20488   0.97228   0.00000  Uiso   1.00
H647   H     0.33282   0.14440   0.52503   0.00000  Uiso   1.00
H648   H     0.18266   0.19946   0.57957   0.00000  Uiso   1.00
N649   N     0.11736   0.16668   0.74999   0.00000  Uiso   1.00
N650   N     0.21597   0.16666   0.75001   0.00000  Uiso   1.00
N651   N     0.10014   0.11655   0.81042   0.00000  Uiso   1.00
N652   N     0.23318   0.21682   0.68961   0.00000  Uiso   1.00
O653   O     0.03958   0.10655   0.75000   0.00000  Uiso   1.00
O654   O     0.29375   0.22678   0.75000   0.00000  Uiso   1.00
O655   O     0.29372   0.10654   0.75001   0.00000  Uiso   1.00
O656   O     0.03961   0.22679   0.75000   0.00000  Uiso   1.00
O657   O     0.01852   0.16668   0.81492   0.00000  Uiso   1.00
O658   O     0.31481   0.16666   0.68509   0.00000  Uiso   1.00
O659   O     0.27267   0.16667   0.81492   0.00000  Uiso   1.00
O660   O     0.06067   0.16667   0.68508   0.00000  Uiso   1.00
C661   C     0.33334   0.08737   0.75005   0.00000  Uiso   1.00
C662   C     0.37597   0.02121   0.74955   0.00000  Uiso   1.00
C663   C     0.66665   0.29059   0.74996   0.00000  Uiso   1.00
C664   C     0.33335   0.04275   0.75006   0.00000  Uiso   1.00
C665   C     0.51660   0.14239   0.77927   0.00000  Uiso   1.00
C666   C     0.48340   0.19095   0.72074   0.00000  Uiso   1.00
C667   C     0.46688   0.14231   0.77940   0.00000  Uiso   1.00
C668   C     0.53311   0.19103   0.72061   0.00000  Uiso   1.00
C669   C     0.63948   0.16707   0.83607   0.00000  Uiso   1.00
C670   C     0.36053   0.16662   0.66390   0.00000  Uiso   1.00
C671   C     0.62436   0.17093   0.88502   0.00000  Uiso   1.00
C672   C     0.66666   0.24596   0.74996   0.00000  Uiso   1.00
C673   C     0.37549   0.16579   0.61470   0.00000  Uiso   1.00
C674   C     0.63929   0.19325   0.95449   0.00000  Uiso   1.00
C675   C     0.35863   0.15287   0.54351   0.00000  Uiso   1.00
C676   C     0.65632   0.18515   0.90886   0.00000  Uiso   1.00
C677   C     0.34250   0.15659   0.58989   0.00000  Uiso   1.00
C678   C     0.57574   0.16380   0.90738   0.00000  Uiso   1.00
C679   C     0.42430   0.17264   0.59260   0.00000  Uiso   1.00
C680   C     0.55713   0.17326   0.95301   0.00000  Uiso   1.00
C681   C     0.44140   0.17002   0.54569   0.00000  Uiso   1.00
C682   C     0.59012   0.18750   0.97667   0.00000  Uiso   1.00
C683   C     0.52537   0.19095   0.54476   0.00000  Uiso   1.00
C684   C     0.40771   0.15911   0.52132   0.00000  Uiso   1.00
C685   C     0.50690   0.16919   0.97560   0.00000  Uiso   1.00
C686   C     0.49110   0.17663   0.52259   0.00000  Uiso   1.00
C687   C     0.47179   0.15885   0.95262   0.00000  Uiso   1.00
C688   C     0.57376   0.19637   0.52210   0.00000  Uiso   1.00
C689   C     0.42327   0.15412   0.97512   0.00000  Uiso   1.00
C690   C     0.62404   0.02136   0.75053   0.00000  Uiso   1.00
C691   C     0.37596   0.31197   0.74949   0.00000  Uiso   1.00
C692   C     0.62403   0.31212   0.75047   0.00000  Uiso   1.00
Cu693  Cu    0.38022   0.16667   0.75000   0.00000  Uiso   1.00
Cu694  Cu    0.61978   0.16666   0.75000   0.00000  Uiso   1.00
H695   H     0.59860   0.20766   0.54039   0.00000  Uiso   1.00
H696   H     0.48017   0.15497   0.91686   0.00000  Uiso   1.00
H697   H     0.59069   0.03742   0.75096   0.00000  Uiso   1.00
H698   H     0.40930   0.29591   0.74906   0.00000  Uiso   1.00
H699   H     0.59069   0.29618   0.75087   0.00000  Uiso   1.00
H700   H     0.40931   0.03715   0.74916   0.00000  Uiso   1.00
H701   H     0.52883   0.12292   0.80261   0.00000  Uiso   1.00
H702   H     0.47117   0.21043   0.69740   0.00000  Uiso   1.00
H703   H     0.43448   0.12468   0.84282   0.00000  Uiso   1.00
H704   H     0.44556   0.08616   0.80502   0.00000  Uiso   1.00
H705   H     0.55444   0.24721   0.69506   0.00000  Uiso   1.00
H706   H     0.39778   0.14599   0.95613   0.00000  Uiso   1.00
H707   H     0.56549   0.20874   0.65720   0.00000  Uiso   1.00
H708   H     0.44851   0.17878   0.61307   0.00000  Uiso   1.00
H709   H     0.55321   0.15084   0.88809   0.00000  Uiso   1.00
H710   H     0.63794   0.15109   0.60639   0.00000  Uiso   1.00
H711   H     0.36072   0.19104   0.89207   0.00000  Uiso   1.00
H712   H     0.66440   0.20488   0.97228   0.00000  Uiso   1.00
H713   H     0.66615   0.14440   0.52503   0.00000  Uiso   1.00
H714   H     0.51599   0.19946   0.57957   0.00000  Uiso   1.00
N715   N     0.45069   0.16668   0.74999   0.00000  Uiso   1.00
N716   N     0.54931   0.16666   0.75001   0.00000  Uiso   1.00
N717   N     0.43347   0.11655   0.81042   0.00000  Uiso   1.00
N718   N     0.56651   0.21682   0.68961   0.00000  Uiso   1.00
O719   O     0.37291   0.10655   0.75000   0.00000  Uiso   1.00
O720   O     0.62709   0.22678   0.75000   0.00000  Uiso   1.00
O721   O     0.62706   0.10654   0.75001   0.00000  Uiso   1.00
O722   O     0.37294   0.22679   0.75000   0.00000  Uiso   1.00
O723   O     0.35186   0.16668   0.81492   0.00000  Uiso   1.00
O724   O     0.64814   0.16666   0.68509   0.00000  Uiso   1.00
O725   O     0.60600   0.16667   0.81492   0.00000  Uiso   1.00
O726   O     0.39400   0.16667   0.68508   0.00000  Uiso   1.00
C727   C     0.66667   0.08737   0.75005   0.00000  Uiso   1.00
C728   C     0.70930   0.02121   0.74955   0.00000  Uiso   1.00
C729   C     0.99998   0.29059   0.74996   0.00000  Uiso   1.00
C730   C     0.66668   0.04275   0.75006   0.00000  Uiso   1.00
C731   C     0.84993   0.14239   0.77927   0.00000  Uiso   1.00
C732   C     0.81673   0.19095   0.72074   0.00000  Uiso   1.00
C733   C     0.80022   0.14231   0.77940   0.00000  Uiso   1.00
C734   C     0.86645   0.19103   0.72061   0.00000  Uiso   1.00
C735   C     0.97281   0.16707   0.83607   0.00000  Uiso   1.00
C736   C     0.69386   0.16662   0.66390   0.00000  Uiso   1.00
C737   C     0.95770   0.17093   0.88502   0.00000  Uiso   1.00
C738   C     1.00000   0.24596   0.74996   0.00000  Uiso   1.00
C739   C     0.70883   0.16579   0.61470   0.00000  Uiso   1.00
C740   C     0.97263   0.19325   0.95449   0.00000  Uiso   1.00
C741   C     0.69196   0.15287   0.54351   0.00000  Uiso   1.00
C742   C     0.98966   0.18515   0.90886   0.00000  Uiso   1.00
C743   C     0.67583   0.15659   0.58989   0.00000  Uiso   1.00
C744   C     0.90907   0.16380   0.90738   0.00000  Uiso   1.00
C745   C     0.75763   0.17264   0.59260   0.00000  Uiso   1.00
C746   C     0.89047   0.17326   0.95301   0.00000  Uiso   1.00
C747   C     0.77473   0.17002   0.54569   0.00000  Uiso   1.00
C748   C     0.92346   0.18750   0.97667   0.00000  Uiso   1.00
C749   C     0.85871   0.19095   0.54476   0.00000  Uiso   1.00
C750   C     0.74104   0.15911   0.52132   0.00000  Uiso   1.00
C751   C     0.84023   0.16919   0.97560   0.00000  Uiso   1.00
C752   C     0.82444   0.17663   0.52259   0.00000  Uiso   1.00
C753   C     0.80513   0.15885   0.95262   0.00000  Uiso   1.00
C754   C     0.90709   0.19637   0.52210   0.00000  Uiso   1.00
C755   C     0.75660   0.15412   0.97512   0.00000  Uiso   1.00
C756   C     0.95737   0.02136   0.75053   0.00000  Uiso   1.00
C757   C     0.70929   0.31197   0.74949   0.00000  Uiso   1.00
C758   C     0.95736   0.31212   0.75047   0.00000  Uiso   1.00
Cu759  Cu    0.71355   0.16667   0.75000   0.00000  Uiso   1.00
Cu760  Cu    0.95311   0.16666   0.75000   0.00000  Uiso   1.00
H761   H     0.93193   0.20766   0.54039   0.00000  Uiso   1.00
H762   H     0.81351   0.15497   0.91686   0.00000  Uiso   1.00
H763   H     0.92402   0.03742   0.75096   0.00000  Uiso   1.00
H764   H     0.74264   0.29591   0.74906   0.00000  Uiso   1.00
H765   H     0.92402   0.29618   0.75087   0.00000  Uiso   1.00
H766   H     0.74264   0.03715   0.74916   0.00000  Uiso   1.00
H767   H     0.86216   0.12292   0.80261   0.00000  Uiso   1.00
H768   H     0.80450   0.21043   0.69740   0.00000  Uiso   1.00
H769   H     0.76781   0.12468   0.84282   0.00000  Uiso   1.00
H770   H     0.77889   0.08616   0.80502   0.00000  Uiso   1.00
H771   H     0.88777   0.24721   0.69506   0.00000  Uiso   1.00
H772   H     0.73112   0.14599   0.95613   0.00000  Uiso   1.00
H773   H     0.89882   0.20874   0.65720   0.00000  Uiso   1.00
H774   H     0.78184   0.17878   0.61307   0.00000  Uiso   1.00
H775   H     0.88655   0.15084   0.88809   0.00000  Uiso   1.00
H776   H     0.97127   0.15109   0.60639   0.00000  Uiso   1.00
H777   H     0.69405   0.19104   0.89207   0.00000  Uiso   1.00
H778   H     0.99773   0.20488   0.97228   0.00000  Uiso   1.00
H779   H     0.99948   0.14440   0.52503   0.00000  Uiso   1.00
H780   H     0.84932   0.19946   0.57957   0.00000  Uiso   1.00
N781   N     0.78403   0.16668   0.74999   0.00000  Uiso   1.00
N782   N     0.88264   0.16666   0.75001   0.00000  Uiso   1.00
N783   N     0.76681   0.11655   0.81042   0.00000  Uiso   1.00
N784   N     0.89985   0.21682   0.68961   0.00000  Uiso   1.00
O785   O     0.70625   0.10655   0.75000   0.00000  Uiso   1.00
O786   O     0.96042   0.22678   0.75000   0.00000  Uiso   1.00
O787   O     0.96039   0.10654   0.75001   0.00000  Uiso   1.00
O788   O     0.70628   0.22679   0.75000   0.00000  Uiso   1.00
O789   O     0.68519   0.16668   0.81492   0.00000  Uiso   1.00
O790   O     0.98148   0.16666   0.68509   0.00000  Uiso   1.00
O791   O     0.93933   0.16667   0.81492   0.00000  Uiso   1.00
O792   O     0.72733   0.16667   0.68508   0.00000  Uiso   1.00
C793   C     0.00000   0.42070   0.75005   0.00000  Uiso   1.00
C794   C     0.04263   0.35454   0.74955   0.00000  Uiso   1.00
C795   C     0.33332   0.62392   0.74996   0.00000  Uiso   1.00
C796   C     0.00001   0.37608   0.75006   0.00000  Uiso   1.00
C797   C     0.18326   0.47572   0.77927   0.00000  Uiso   1.00
C798   C     0.15007   0.52429   0.72074   0.00000  Uiso   1.00
C799   C     0.13355   0.47564   0.77940   0.00000  Uiso   1.00
C800   C     0.19978   0.52437   0.72061   0.00000  Uiso   1.00
C801   C     0.30614   0.50041   0.83607   0.00000  Uiso   1.00
C802   C     0.02719   0.49995   0.66390   0.00000  Uiso   1.00
C803   C     0.29103   0.50426   0.88502   0.00000  Uiso   1.00
C804   C     0.33333   0.57930   0.74996   0.00000  Uiso   1.00
C805   C     0.04216   0.49913   0.61470   0.00000  Uiso   1.00
C806   C     0.30596   0.52658   0.95449   0.00000  Uiso   1.00
C807   C     0.02529   0.48621   0.54351   0.00000  Uiso   1.00
C808   C     0.32299   0.51848   0.90886   0.00000  Uiso   1.00
C809   C     0.00916   0.48993   0.58989   0.00000  Uiso   1.00
C810   C     0.24240   0.49714   0.90738   0.00000  Uiso   1.00
C811   C     0.09096   0.50598   0.59260   0.00000  Uiso   1.00
C812   C     0.22380   0.50659   0.95301   0.00000  Uiso   1.00
C813   C     0.10807   0.50335   0.54569   0.00000  Uiso   1.00
C814   C     0.25679   0.52083   0.97667   0.00000  Uiso   1.00
C815   C     0.19204   0.52428   0.54476   0.00000  Uiso   1.00
C816   C     0.07437   0.49245   0.52132   0.00000  Uiso   1.00
C817   C     0.17357   0.50252   0.97560   0.00000  Uiso   1.00
C818   C     0.15777   0.50996   0.52259   0.00000  Uiso   1.00
C819   C     0.13846   0.49218   0.95262   0.00000  Uiso   1.00
C820   C     0.24042   0.52970   0.52210   0.00000  Uiso   1.00
C821   C     0.08994   0.48745   0.97512   0.00000  Uiso   1.00
C822   C     0.29070   0.35469   0.75053   0.00000  Uiso   1.00
C823   C     0.04262   0.64531   0.74949   0.00000  Uiso   1.00
C824   C     0.29069   0.64545   0.75047   0.00000  Uiso   1.00
Cu825  Cu    0.04689   0.50001   0.75000   0.00000  Uiso   1.00
Cu826  Cu    0.28645   0.49999   0.75000   0.00000  Uiso   1.00
H827   H     0.26527   0.54099   0.54039   0.00000  Uiso   1.00
H828   H     0.14684   0.48830   0.91686   0.00000  Uiso   1.00
H829   H     0.25736   0.37076   0.75096   0.00000  Uiso   1.00
H830   H     0.07597   0.62924   0.74906   0.00000  Uiso   1.00
H831   H     0.25735   0.62951   0.75087   0.00000  Uiso   1.00
H832   H     0.07597   0.37049   0.74916   0.00000  Uiso   1.00
H833   H     0.19550   0.45625   0.80261   0.00000  Uiso   1.00
H834   H     0.13783   0.54377   0.69740   0.00000  Uiso   1.00
H835   H     0.10114   0.45802   0.84282   0.00000  Uiso   1.00
H836   H     0.11223   0.41949   0.80502   0.00000  Uiso   1.00
H837   H     0.22110   0.58054   0.69506   0.00000  Uiso   1.00
H838   H     0.06445   0.47933   0.95613   0.00000  Uiso   1.00
H839   H     0.23215   0.54208   0.65720   0.00000  Uiso   1.00
H840   H     0.11518   0.51211   0.61307   0.00000  Uiso   1.00
H841   H     0.21988   0.48417   0.88809   0.00000  Uiso   1.00
H842   H     0.30461   0.48442   0.60639   0.00000  Uiso   1.00
H843   H     0.02739   0.52437   0.89207   0.00000  Uiso   1.00
H844   H     0.33107   0.53821   0.97228   0.00000  Uiso   1.00
H845   H     0.33282   0.47773   0.52503   0.00000  Uiso   1.00
H846   H     0.18266   0.53280   0.57957   0.00000  Uiso   1.00
N847   N     0.11736   0.50001   0.74999   0.00000  Uiso   1.00
N848   N     0.21597   0.49999   0.75001   0.00000  Uiso   1.00
N849   N     0.10014   0.44989   0.81042   0.00000  Uiso   1.00
N850   N     0.23318   0.55015   0.68961   0.00000  Uiso   1.00
O851   O     0.03958   0.43989   0.75000   0.00000  Uiso   1.00
O852   O     0.29375   0.56011   0.75000   0.00000  Uiso   1.00
O853   O     0.29372   0.43988   0.75001   0.00000  Uiso   1.00
O854   O     0.03961   0.56012   0.75000   0.00000  Uiso   1.00
O855   O     0.01852   0.50001   0.81492   0.00000  Uiso   1.00
O856   O     0.31481   0.49999   0.68509   0.00000  Uiso   1.00
O857   O     0.27267   0.50000   0.81492   0.00000  Uiso   1.00
O858   O     0.06067   0.50000   0.68508   0.00000  Uiso   1.00
C859   C     0.33334   0.42070   0.75005   0.00000  Uiso   1.00
C860   C     0.37597   0.35454   0.74955   0.00000  Uiso   1.00
C861   C     0.66665   0.62392   0.74996   0.00000  Uiso   1.00
C862   C     0.33335   0.37608   0.75006   0.00000  Uiso   1.00
C863   C     0.51660   0.47572   0.77927   0.00000  Uiso   1.00
C864   C     0.48340   0.52429   0.72074   0.00000  Uiso   1.00
C865   C     0.46688   0.47564   0.77940   0.00000  Uiso   1.00
C866   C     0.53311   0.52437   0.72061   0.00000  Uiso   1.00
C867   C     0.63948   0.50041   0.83607   0.00000  Uiso   1.00
C868   C     0.36053   0.49995   0.66390   0.00000  Uiso   1.00
C869   C     0.62436   0.50426   0.88502   0.00000  Uiso   1.00
C870   C     0.66666   0.57930   0.74996   0.00000  Uiso   1.00
C871   C     0.37549   0.49913   0.61470   0.00000  Uiso   1.00
C872   C     0.63929   0.52658   0.95449   0.00000  Uiso   1.00
C873   C     0.35863   0.48621   0.54351   0.00000  Uiso   1.00
C874   C     0.65632   0.51848   0.90886   0.00000  Uiso   1.00
C875   C     0.34250   0.48993   0.58989   0.00000  Uiso   1.00
C876   C     0.57574   0.49714   0.90738   0.00000  Uiso   1.00
C877   C     0.42430   0.50598   0.59260   0.00000  Uiso   1.00
C878   C     0.55713   0.50659   0.95301   0.00000  Uiso   1.00
C879   C     0.44140   0.50335   0.54569   0.00000  Uiso   1.00
C880   C     0.59012   0.52083   0.97667   0.00000  Uiso   1.00
C881   C     0.52537   0.52428   0.54476   0.00000  Uiso   1.00
C882   C     0.40771   0.49245   0.52132   0.00000  Uiso   1.00
C883   C     0.50690   0.50252   0.97560   0.00000  Uiso   1.00
C884   C     0.49110   0.50996   0.52259   0.00000  Uiso   1.00
C885   C     0.47179   0.49218   0.95262   0.00000  Uiso   1.00
C886   C     0.57376   0.52970   0.52210   0.00000  Uiso   1.00
C887   C     0.42327   0.48745   0.97512   0.00000  Uiso   1.00
C888   C     0.62404   0.35469   0.75053   0.00000  Uiso   1.00
C889   C     0.37596   0.64531   0.74949   0.00000  Uiso   1.00
C890   C     0.62403   0.64545   0.75047   0.00000  Uiso   1.00
Cu891  Cu    0.38022   0.50001   0.75000   0.00000  Uiso   1.00
Cu892  Cu    0.61978   0.49999   0.75000   0.00000  Uiso   1.00
H893   H     0.59860   0.54099   0.54039   0.00000  Uiso   1.00
H894   H     0.48017   0.48830   0.91686   0.00000  Uiso   1.00
H895   H     0.59069   0.37076   0.75096   0.00000  Uiso   1.00
H896   H     0.40930   0.62924   0.74906   0.00000  Uiso   1.00
H897   H     0.59069   0.62951   0.75087   0.00000  Uiso   1.00
H898   H     0.40931   0.37049   0.74916   0.00000  Uiso   1.00
H899   H     0.52883   0.45625   0.80261   0.00000  Uiso   1.00
H900   H     0.47117   0.54377   0.69740   0.00000  Uiso   1.00
H901   H     0.43448   0.45802   0.84282   0.00000  Uiso   1.00
H902   H     0.44556   0.41949   0.80502   0.00000  Uiso   1.00
H903   H     0.55444   0.58054   0.69506   0.00000  Uiso   1.00
H904   H     0.39778   0.47933   0.95613   0.00000  Uiso   1.00
H905   H     0.56549   0.54208   0.65720   0.00000  Uiso   1.00
H906   H     0.44851   0.51211   0.61307   0.00000  Uiso   1.00
H907   H     0.55321   0.48417   0.88809   0.00000  Uiso   1.00
H908   H     0.63794   0.48442   0.60639   0.00000  Uiso   1.00
H909   H     0.36072   0.52437   0.89207   0.00000  Uiso   1.00
H910   H     0.66440   0.53821   0.97228   0.00000  Uiso   1.00
H911   H     0.66615   0.47773   0.52503   0.00000  Uiso   1.00
H912   H     0.51599   0.53280   0.57957   0.00000  Uiso   1.00
N913   N     0.45069   0.50001   0.74999   0.00000  Uiso   1.00
N914   N     0.54931   0.49999   0.75001   0.00000  Uiso   1.00
N915   N     0.43347   0.44989   0.81042   0.00000  Uiso   1.00
N916   N     0.56651   0.55015   0.68961   0.00000  Uiso   1.00
O917   O     0.37291   0.43989   0.75000   0.00000  Uiso   1.00
O918   O     0.62709   0.56011   0.75000   0.00000  Uiso   1.00
O919   O     0.62706   0.43988   0.75001   0.00000  Uiso   1.00
O920   O     0.37294   0.56012   0.75000   0.00000  Uiso   1.00
O921   O     0.35186   0.50001   0.81492   0.00000  Uiso   1.00
O922   O     0.64814   0.49999   0.68509   0.00000  Uiso   1.00
O923   O     0.60600   0.50000   0.81492   0.00000  Uiso   1.00
O924   O     0.39400   0.50000   0.68508   0.00000  Uiso   1.00
C925   C     0.66667   0.42070   0.75005   0.00000  Uiso   1.00
C926   C     0.70930   0.35454   0.74955   0.00000  Uiso   1.00
C927   C     0.99998   0.62392   0.74996   0.00000  Uiso   1.00
C928   C     0.66668   0.37608   0.75006   0.00000  Uiso   1.00
C929   C     0.84993   0.47572   0.77927   0.00000  Uiso   1.00
C930   C     0.81673   0.52429   0.72074   0.00000  Uiso   1.00
C931   C     0.80022   0.47564   0.77940   0.00000  Uiso   1.00
C932   C     0.86645   0.52437   0.72061   0.00000  Uiso   1.00
C933   C     0.97281   0.50041   0.83607   0.00000  Uiso   1.00
C934   C     0.69386   0.49995   0.66390   0.00000  Uiso   1.00
C935   C     0.95770   0.50426   0.88502   0.00000  Uiso   1.00
C936   C     1.00000   0.57930   0.74996   0.00000  Uiso   1.00
C937   C     0.70883   0.49913   0.61470   0.00000  Uiso   1.00
C938   C     0.97263   0.52658   0.95449   0.00000  Uiso   1.00
C939   C     0.69196   0.48621   0.54351   0.00000  Uiso   1.00
C940   C     0.98966   0.51848   0.90886   0.00000  Uiso   1.00
C941   C     0.67583   0.48993   0.58989   0.00000  Uiso   1.00
C942   C     0.90907   0.49714   0.90738   0.00000  Uiso   1.00
C943   C     0.75763   0.50598   0.59260   0.00000  Uiso   1.00
C944   C     0.89047   0.50659   0.95301   0.00000  Uiso   1.00
C945   C     0.77473   0.50335   0.54569   0.00000  Uiso   1.00
C946   C     0.92346   0.52083   0.97667   0.00000  Uiso   1.00
C947   C     0.85871   0.52428   0.54476   0.00000  Uiso   1.00
C948   C     0.74104   0.49245   0.52132   0.00000  Uiso   1.00
C949   C     0.84023   0.50252   0.97560   0.00000  Uiso   1.00
C950   C     0.82444   0.50996   0.52259   0.00000  Uiso   1.00
C951   C     0.80513   0.49218   0.95262   0.00000  Uiso   1.00
C952   C     0.90709   0.52970   0.52210   0.00000  Uiso   1.00
C953   C     0.75660   0.48745   0.97512   0.00000  Uiso   1.00
C954   C     0.95737   0.35469   0.75053   0.00000  Uiso   1.00
C955   C     0.70929   0.64531   0.74949   0.00000  Uiso   1.00
C956   C     0.95736   0.64545   0.75047   0.00000  Uiso   1.00
Cu957  Cu    0.71355   0.50001   0.75000   0.00000  Uiso   1.00
Cu958  Cu    0.95311   0.49999   0.75000   0.00000  Uiso   1.00
H959   H     0.93193   0.54099   0.54039   0.00000  Uiso   1.00
H960   H     0.81351   0.48830   0.91686   0.00000  Uiso   1.00
H961   H     0.92402   0.37076   0.75096   0.00000  Uiso   1.00
H962   H     0.74264   0.62924   0.74906   0.00000  Uiso   1.00
H963   H     0.92402   0.62951   0.75087   0.00000  Uiso   1.00
H964   H     0.74264   0.37049   0.74916   0.00000  Uiso   1.00
H965   H     0.86216   0.45625   0.80261   0.00000  Uiso   1.00
H966   H     0.80450   0.54377   0.69740   0.00000  Uiso   1.00
H967   H     0.76781   0.45802   0.84282   0.00000  Uiso   1.00
H968   H     0.77889   0.41949   0.80502   0.00000  Uiso   1.00
H969   H     0.88777   0.58054   0.69506   0.00000  Uiso   1.00
H970   H     0.73112   0.47933   0.95613   0.00000  Uiso   1.00
H971   H     0.89882   0.54208   0.65720   0.00000  Uiso   1.00
H972   H     0.78184   0.51211   0.61307   0.00000  Uiso   1.00
H973   H     0.88655   0.48417   0.88809   0.00000  Uiso   1.00
H974   H     0.97127   0.48442   0.60639   0.00000  Uiso   1.00
H975   H     0.69405   0.52437   0.89207   0.00000  Uiso   1.00
H976   H     0.99773   0.53821   0.97228   0.00000  Uiso   1.00
H977   H     0.99948   0.47773   0.52503   0.00000  Uiso   1.00
H978   H     0.84932   0.53280   0.57957   0.00000  Uiso   1.00
N979   N     0.78403   0.50001   0.74999   0.00000  Uiso   1.00
N980   N     0.88264   0.49999   0.75001   0.00000  Uiso   1.00
N981   N     0.76681   0.44989   0.81042   0.00000  Uiso   1.00
N982   N     0.89985   0.55015   0.68961   0.00000  Uiso   1.00
O983   O     0.70625   0.43989   0.75000   0.00000  Uiso   1.00
O984   O     0.96042   0.56011   0.75000   0.00000  Uiso   1.00
O985   O     0.96039   0.43988   0.75001   0.00000  Uiso   1.00
O986   O     0.70628   0.56012   0.75000   0.00000  Uiso   1.00
O987   O     0.68519   0.50001   0.81492   0.00000  Uiso   1.00
O988   O     0.98148   0.49999   0.68509   0.00000  Uiso   1.00
O989   O     0.93933   0.50000   0.81492   0.00000  Uiso   1.00
O990   O     0.72733   0.50000   0.68508   0.00000  Uiso   1.00
C991   C     0.00000   0.75404   0.75005   0.00000  Uiso   1.00
C992   C     0.04263   0.68788   0.74955   0.00000  Uiso   1.00
C993   C     0.33332   0.95725   0.74996   0.00000  Uiso   1.00
C994   C     0.00001   0.70941   0.75006   0.00000  Uiso   1.00
C995   C     0.18326   0.80906   0.77927   0.00000  Uiso   1.00
C996   C     0.15007   0.85762   0.72074   0.00000  Uiso   1.00
C997   C     0.13355   0.80898   0.77940   0.00000  Uiso   1.00
C998   C     0.19978   0.85770   0.72061   0.00000  Uiso   1.00
C999   C     0.30614   0.83374   0.83607   0.00000  Uiso   1.00
C1000  C     0.02719   0.83329   0.66390   0.00000  Uiso   1.00
C1001  C     0.29103   0.83760   0.88502   0.00000  Uiso   1.00
C1002  C     0.33333   0.91263   0.74996   0.00000  Uiso   1.00
C1003  C     0.04216   0.83246   0.61470   0.00000  Uiso   1.00
C1004  C     0.30596   0.85992   0.95449   0.00000  Uiso   1.00
C1005  C     0.02529   0.81954   0.54351   0.00000  Uiso   1.00
C1006  C     0.32299   0.85181   0.90886   0.00000  Uiso   1.00
C1007  C     0.00916   0.82326   0.58989   0.00000  Uiso   1.00
C1008  C     0.24240   0.83047   0.90738   0.00000  Uiso   1.00
C1009  C     0.09096   0.83931   0.59260   0.00000  Uiso   1.00
C1010  C     0.22380   0.83993   0.95301   0.00000  Uiso   1.00
C1011  C     0.10807   0.83669   0.54569   0.00000  Uiso   1.00
C1012  C     0.25679   0.85417   0.97667   0.00000  Uiso   1.00
C1013  C     0.19204   0.85761   0.54476   0.00000  Uiso   1.00
C1014  C     0.07437   0.82578   0.52132   0.00000  Uiso   1.00
C1015  C     0.17357   0.83585   0.97560   0.00000  Uiso   1.00
C1016  C     0.15777   0.84329   0.52259   0.00000  Uiso   1.00
C1017  C     0.13846   0.82551   0.95262   0.00000  Uiso   1.00
C1018  C     0.24042   0.86304   0.52210   0.00000  Uiso   1.00
C1019  C     0.08994   0.82079   0.97512   0.00000  Uiso   1.00
C1020  C     0.29070   0.68803   0.75053   0.00000  Uiso   1.00
C1021  C     0.04262   0.97864   0.74949   0.00000  Uiso   1.00
C1022  C     0.29069   0.97879   0.75047   0.00000  Uiso   1.00
Cu1023 Cu    0.04689   0.83334   0.75000   0.00000  Uiso   1.00
Cu1024 Cu    0.28645   0.83333   0.75000   0.00000  Uiso   1.00
H1025  H     0.26527   0.87432   0.54039   0.00000  Uiso   1.00
H1026  H     0.14684   0.82164   0.91686   0.00000  Uiso   1.00
H1027  H     0.25736   0.70409   0.75096   0.00000  Uiso   1.00
H1028  H     0.07597   0.96257   0.74906   0.00000  Uiso   1.00
H1029  H     0.25735   0.96284   0.75087   0.00000  Uiso   1.00
H1030  H     0.07597   0.70382   0.74916   0.00000  Uiso   1.00
H1031  H     0.19550   0.78958   0.80261   0.00000  Uiso   1.00
H1032  H     0.13783   0.87710   0.69740   0.00000  Uiso   1.00
H1033  H     0.10114   0.79135   0.84282   0.00000  Uiso   1.00
H1034  H     0.11223   0.75283   0.80502   0.00000  Uiso   1.00
H1035  H     0.22110   0.91388   0.69506   0.00000  Uiso   1.00
H1036  H     0.06445   0.81266   0.95613   0.00000  Uiso   1.00
H1037  H     0.23215   0.87541   0.65720   0.00000  Uiso   1.00
H1038  H     0.11518   0.84545   0.61307   0.00000  Uiso   1.00
H1039  H     0.21988   0.81751   0.88809   0.00000  Uiso   1.00
H1040  H     0.30461   0.81775   0.60639   0.00000  Uiso   1.00
H1041  H     0.02739   0.85771   0.89207   0.00000  Uiso   1.00
H1042  H     0.33107   0.87154   0.97228   0.00000  Uiso   1.00
H1043  H     0.33282   0.81107   0.52503   0.00000  Uiso   1.00
H1044  H     0.18266   0.86613   0.57957   0.00000  Uiso   1.00
N1045  N     0.11736   0.83334   0.74999   0.00000  Uiso   1.00
N1046  N     0.21597   0.83332   0.75001   0.00000  Uiso   1.00
N1047  N     0.10014   0.78322   0.81042   0.00000  Uiso   1.00
N1048  N     0.23318   0.88349   0.68961   0.00000  Uiso   1.00
O1049  O     0.03958   0.77322   0.75000   0.00000  Uiso   1.00
O1050  O     0.29375   0.89345   0.75000   0.00000  Uiso   1.00
O1051  O     0.29372   0.77321   0.75001   0.00000  Uiso   1.00
O1052  O     0.03961   0.89346   0.75000   0.00000  Uiso   1.00
O1053  O     0.01852   0.83334   0.81492   0.00000  Uiso   1.00
O1054  O     0.31481   0.83332   0.68509   0.00000  Uiso   1.00
O1055  O     0.27267   0.83333   0.81492   0.00000  Uiso   1.00
O1056  O     0.06067   0.83333   0.68508   0.00000  Uiso   1.00
C1057  C     0.33334   0.75404   0.75005   0.00000  Uiso   1.00
C1058  C     0.37597   0.68788   0.74955   0.00000  Uiso   1.00
C1059  C     0.66665   0.95725   0.74996   0.00000  Uiso   1.00
C1060  C     0.33335   0.70941   0.75006   0.00000  Uiso   1.00
C1061  C     0.51660   0.80906   0.77927   0.00000  Uiso   1.00
C1062  C     0.48340   0.85762   0.72074   0.00000  Uiso   1.00
C1063  C     0.46688   0.80898   0.77940   0.00000  Uiso   1.00
C1064  C     0.53311   0.85770   0.72061   0.00000  Uiso   1.00
C1065  C     0.63948   0.83374   0.83607   0.00000  Uiso   1.00
C1066  C     0.36053   0.83329   0.66390   0.00000  Uiso   1.00
C1067  C     0.62436   0.83760   0.88502   0.00000  Uiso   1.00
C1068  C     0.66666   0.91263   0.74996   0.00000  Uiso   1.00
C1069  C     0.37549   0.83246   0.61470   0.00000  Uiso   1.00
C1070  C     0.63929   0.85992   0.95449   0.00000  Uiso   1.00
C1071  C     0.35863   0.81954   0.54351   0.00000  Uiso   1.00
C1072  C     0.65632   0.85181   0.90886   0.00000  Uiso   1.00
C1073  C     0.34250   0.82326   0.58989   0.00000  Uiso   1.00
C1074  C     0.57574   0.83047   0.90738   0.00000  Uiso   1.00
C1075  C     0.42430   0.83931   0.59260   0.00000  Uiso   1.00
C1076  C     0.55713   0.83993   0.95301   0.00000  Uiso   1.00
C1077  C     0.44140   0.83669   0.54569   0.00000  Uiso   1.00
C1078  C     0.59012   0.85417   0.97667   0.00000  Uiso   1.00
C1079  C     0.52537   0.85761   0.54476   0.00000  Uiso   1.00
C1080  C     0.40771   0.82578   0.52132   0.00000  Uiso   1.00
C1081  C     0.50690   0.83585   0.97560   0.00000  Uiso   1.00
C1082  C     0.49110   0.84329   0.52259   0.00000  Uiso   1.00
C1083  C     0.47179   0.82551   0.95262   0.00000  Uiso   1.00
C1084  C     0.57376   0.86304   0.52210   0.00000  Uiso   1.00
C1085  C     0.42327   0.82079   0.97512   0.00000  Uiso   1.00
C1086  C     0.62404   0.68803   0.75053   0.00000  Uiso   1.00
C1087  C     0.37596   0.97864   0.74949   0.00000  Uiso   1.00
C1088  C     0.62403   0.97879   0.75047   0.00000  Uiso   1.00
Cu1089 Cu    0.38022   0.83334   0.75000   0.00000  Uiso   1.00
Cu1090 Cu    0.61978   0.83333   0.75000   0.00000  Uiso   1.00
H1091  H     0.59860   0.87432   0.54039   0.00000  Uiso   1.00
H1092  H     0.48017   0.82164   0.91686   0.00000  Uiso   1.00
H1093  H     0.59069   0.70409   0.75096   0.00000  Uiso   1.00
H1094  H     0.40930   0.96257   0.74906   0.00000  Uiso   1.00
H1095  H     0.59069   0.96284   0.75087   0.00000  Uiso   1.00
H1096  H     0.40931   0.70382   0.74916   0.00000  Uiso   1.00
H1097  H     0.52883   0.78958   0.80261   0.00000  Uiso   1.00
H1098  H     0.47117   0.87710   0.69740   0.00000  Uiso   1.00
H1099  H     0.43448   0.79135   0.84282   0.00000  Uiso   1.00
H1100  H     0.44556   0.75283   0.80502   0.00000  Uiso   1.00
H1101  H     0.55444   0.91388   0.69506   0.00000  Uiso   1.00
H1102  H     0.39778   0.81266   0.95613   0.00000  Uiso   1.00
H1103  H     0.56549   0.87541   0.65720   0.00000  Uiso   1.00
H1104  H     0.44851   0.84545   0.61307   0.00000  Uiso   1.00
H1105  H     0.55321   0.81751   0.88809   0.00000  Uiso   1.00
H1106  H     0.63794   0.81775   0.60639   0.00000  Uiso   1.00
H1107  H     0.36072   0.85771   0.89207   0.00000  Uiso   1.00
H1108  H     0.66440   0.87154   0.97228   0.00000  Uiso   1.00
H1109  H     0.66615   0.81107   0.52503   0.00000  Uiso   1.00
H1110  H     0.51599   0.86613   0.57957   0.00000  Uiso   1.00
N1111  N     0.45069   0.83334   0.74999   0.00000  Uiso   1.00
N1112  N     0.54931   0.83332   0.75001   0.00000  Uiso   1.00
N1113  N     0.43347   0.78322   0.81042   0.00000  Uiso   1.00
N1114  N     0.56651   0.88349   0.68961   0.00000  Uiso   1.00
O1115  O     0.37291   0.77322   0.75000   0.00000  Uiso   1.00
O1116  O     0.62709   0.89345   0.75000   0.00000  Uiso   1.00
O1117  O     0.62706   0.77321   0.75001   0.00000  Uiso   1.00
O1118  O     0.37294   0.89346   0.75000   0.00000  Uiso   1.00
O1119  O     0.35186   0.83334   0.81492   0.00000  Uiso   1.00
O1120  O     0.64814   0.83332   0.68509   0.00000  Uiso   1.00
O1121  O     0.60600   0.83333   0.81492   0.00000  Uiso   1.00
O1122  O     0.39400   0.83333   0.68508   0.00000  Uiso   1.00
C1123  C     0.66667   0.75404   0.75005   0.00000  Uiso   1.00
C1124  C     0.70930   0.68788   0.74955   0.00000  Uiso   1.00
C1125  C     0.99998   0.95725   0.74996   0.00000  Uiso   1.00
C1126  C     0.66668   0.70941   0.75006   0.00000  Uiso   1.00
C1127  C     0.84993   0.80906   0.77927   0.00000  Uiso   1.00
C1128  C     0.81673   0.85762   0.72074   0.00000  Uiso   1.00
C1129  C     0.80022   0.80898   0.77940   0.00000  Uiso   1.00
C1130  C     0.86645   0.85770   0.72061   0.00000  Uiso   1.00
C1131  C     0.97281   0.83374   0.83607   0.00000  Uiso   1.00
C1132  C     0.69386   0.83329   0.66390   0.00000  Uiso   1.00
C1133  C     0.95770   0.83760   0.88502   0.00000  Uiso   1.00
C1134  C     1.00000   0.91263   0.74996   0.00000  Uiso   1.00
C1135  C     0.70883   0.83246   0.61470   0.00000  Uiso   1.00
C1136  C     0.97263   0.85992   0.95449   0.00000  Uiso   1.00
C1137  C     0.69196   0.81954   0.54351   0.00000  Uiso   1.00
C1138  C     0.98966   0.85181   0.90886   0.00000  Uiso   1.00
C1139  C     0.67583   0.82326   0.58989   0.00000  Uiso   1.00
C1140  C     0.90907   0.83047   0.90738   0.00000  Uiso   1.00
C1141  C     0.75763   0.83931   0.59260   0.00000  Uiso   1.00
C1142  C     0.89047   0.83993   0.95301   0.00000  Uiso   1.00
C1143  C     0.77473   0.83669   0.54569   0.00000  Uiso   1.00
C1144  C     0.92346   0.85417   0.97667   0.00000  Uiso   1.00
C1145  C     0.85871   0.85761   0.54476   0.00000  Uiso   1.00
C1146  C     0.74104   0.82578   0.52132   0.00000  Uiso   1.00
C1147  C     0.84023   0.83585   0.97560   0.00000  Uiso   1.00
C1148  C     0.82444   0.84329   0.52259   0.00000  Uiso   1.00
C1149  C     0.80513   0.82551   0.95262   0.00000  Uiso   1.00
C1150  C     0.90709   0.86304   0.52210   0.00000  Uiso   1.00
C1151  C     0.75660   0.82079   0.97512   0.00000  Uiso   1.00
C1152  C     0.95737   0.68803   0.75053   0.00000  Uiso   1.00
C1153  C     0.70929   0.97864   0.74949   0.00000  Uiso   1.00
C1154  C     0.95736   0.97879   0.75047   0.00000  Uiso   1.00
Cu1155 Cu    0.71355   0.83334   0.75000   0.00000  Uiso   1.00
Cu1156 Cu    0.95311   0.83333   0.75000   0.00000  Uiso   1.00
H1157  H     0.93193   0.87432   0.54039   0.00000  Uiso   1.00
H1158  H     0.81351   0.82164   0.91686   0.00000  Uiso   1.00
H1159  H     0.92402   0.70409   0.75096   0.00000  Uiso   1.00
H1160  H     0.74264   0.96257   0.74906   0.00000  Uiso   1.00
H1161  H     0.92402   0.96284   0.75087   0.00000  Uiso   1.00
H1162  H     0.74264   0.70382   0.74916   0.00000  Uiso   1.00
H1163  H     0.86216   0.78958   0.80261   0.00000  Uiso   1.00
H1164  H     0.80450   0.87710   0.69740   0.00000  Uiso   1.00
H1165  H     0.76781   0.79135   0.84282   0.00000  Uiso   1.00
H1166  H     0.77889   0.75283   0.80502   0.00000  Uiso   1.00
H1167  H     0.88777   0.91388   0.69506   0.00000  Uiso   1.00
H1168  H     0.73112   0.81266   0.95613   0.00000  Uiso   1.00
H1169  H     0.89882   0.87541   0.65720   0.00000  Uiso   1.00
H1170  H     0.78184   0.84545   0.61307   0.00000  Uiso   1.00
H1171  H     0.88655   0.81751   0.88809   0.00000  Uiso   1.00
H1172  H     0.97127   0.81775   0.60639   0.00000  Uiso   1.00
H1173  H     0.69405   0.85771   0.89207   0.00000  Uiso   1.00
H1174  H     0.99773   0.87154   0.97228   0.00000  Uiso   1.00
H1175  H     0.99948   0.81107   0.52503   0.00000  Uiso   1.00
H1176  H     0.84932   0.86613   0.57957   0.00000  Uiso   1.00
N1177  N     0.78403   0.83334   0.74999   0.00000  Uiso   1.00
N1178  N     0.88264   0.83332   0.75001   0.00000  Uiso   1.00
N1179  N     0.76681   0.78322   0.81042   0.00000  Uiso   1.00
N1180  N     0.89985   0.88349   0.68961   0.00000  Uiso   1.00
O1181  O     0.70625   0.77322   0.75000   0.00000  Uiso   1.00
O1182  O     0.96042   0.89345   0.75000   0.00000  Uiso   1.00
O1183  O     0.96039   0.77321   0.75001   0.00000  Uiso   1.00
O1184  O     0.70628   0.89346   0.75000   0.00000  Uiso   1.00
O1185  O     0.68519   0.83334   0.81492   0.00000  Uiso   1.00
O1186  O     0.98148   0.83332   0.68509   0.00000  Uiso   1.00
O1187  O     0.93933   0.83333   0.81492   0.00000  Uiso   1.00
O1188  O     0.72733   0.83333   0.68508   0.00000  Uiso   1.00
loop_
_geom_bond_atom_site_label_1
_geom_bond_atom_site_label_2
_geom_bond_distance
_geom_bond_site_symmetry_2
_ccdc_geom_bond_type
C1     C4      1.450   .     S
C1     O59     1.293   .     A
C1     O193    1.292   1_455 S
C2     C4      1.401   .     A
C2     H40     1.083   .     S
C2     C427    1.384   1_545 S
C3     C32     1.401   .     A
C3     C12     1.450   .     S
C3     C97     1.401   .     S
C4     C162    1.401   1_455 S
C5     N56     1.364   .     A
C5     C7      1.421   .     A
C5     H41     1.082   .     S
C6     N55     1.364   .     A
C6     H42     1.082   .     S
C6     C8      1.421   .     A
C7     N55     1.372   .     A
C7     N57     1.429   .     S
C8     N56     1.372   .     A
C8     N58     1.429   .     S
C9     C11     1.466   .     S
C9     O65     1.295   .     A
C9     O129    1.298   .     S
C10    O66     1.295   .     A
C10    C13     1.468   .     S
C10    O196    1.298   1_455 S
C11    C18     1.398   .     A
C11    C16     1.398   .     A
C12    O60     1.293   .     A
C12    O128    1.292   .     S
C13    C17     1.399   .     A
C13    C19     1.400   .     A
C14    C22     1.404   .     A
C14    H52     1.083   .     S
C14    C16     1.392   .     A
C15    C24     1.404   .     A
C15    C17     1.392   .     A
C15    H185    1.083   1_455 S
C16    H117    1.083   .     S
C17    H182    1.083   1_455 S
C18    C20     1.406   .     A
C18    H49     1.075   .     S
C19    C21     1.406   .     A
C19    H48     1.074   .     S
C20    C22     1.418   .     A
C20    C25     1.427   .     A
C21    C26     1.428   .     A
C21    C24     1.418   .     A
C22    C622    1.390   .     S
C23    C28     1.387   .     A
C23    C26     1.417   .     A
C23    H54     1.076   .     S
C24    C623    1.390   1_554 S
C25    C27     1.417   .     A
C25    C620    1.425   .     S
C26    C619    1.425   1_554 S
C27    H36     1.076   .     S
C27    C29     1.386   .     A
C28    H35     1.085   .     S
C28    C616    1.390   1_554 S
C29    H46     1.084   .     S
C29    C618    1.390   .     S
C30    H37     1.083   .     S
C30    C70     1.401   .     S
C30    C428    1.384   1_545 S
C31    H38     1.083   .     S
C31    C135    1.401   1_455 S
C31    C200    1.384   .     S
C32    H39     1.083   .     S
C32    C228    1.384   .     S
Cu33   N55     2.015   .     S
Cu33   O63     1.956   .     S
Cu33   O59     1.965   .     S
Cu33   O66     1.941   .     S
Cu33   O62     1.964   .     S
Cu33   Cu166   2.682   1_455 S
Cu34   N56     2.015   .     S
Cu34   O64     1.956   .     S
Cu34   O60     1.965   .     S
Cu34   O65     1.941   .     S
Cu34   O61     1.964   .     S
Cu34   Cu99    2.682   .     S
H43    N57     1.046   .     S
H44    N57     1.045   .     S
H45    N58     1.045   .     S
H47    N58     1.046   .     S
H50    C83     1.083   .     S
H51    C148    1.083   1_455 S
H53    C81     1.083   .     S
O61    C67     1.292   .     S
O62    C144    1.292   1_455 S
O63    C141    1.298   1_455 S
O64    C76     1.298   .     S
C67    C70     1.450   .     S
C67    O125    1.293   .     A
C68    C70     1.401   .     A
C68    H106    1.083   .     S
C68    C493    1.384   1_545 S
C69    C98     1.401   .     A
C69    C78     1.450   .     S
C69    C163    1.401   .     S
C71    N122    1.364   .     A
C71    C73     1.421   .     A
C71    H107    1.082   .     S
C72    N121    1.364   .     A
C72    H108    1.082   .     S
C72    C74     1.421   .     A
C73    N121    1.372   .     A
C73    N123    1.429   .     S
C74    N122    1.372   .     A
C74    N124    1.429   .     S
C75    C77     1.466   .     S
C75    O131    1.295   .     A
C75    O195    1.298   .     S
C76    O132    1.295   .     A
C76    C79     1.468   .     S
C77    C84     1.398   .     A
C77    C82     1.398   .     A
C78    O126    1.293   .     A
C78    O194    1.292   .     S
C79    C83     1.399   .     A
C79    C85     1.400   .     A
C80    C88     1.404   .     A
C80    H118    1.083   .     S
C80    C82     1.392   .     A
C81    C90     1.404   .     A
C81    C83     1.392   .     A
C82    H183    1.083   .     S
C84    C86     1.406   .     A
C84    H115    1.075   .     S
C85    C87     1.406   .     A
C85    H114    1.074   .     S
C86    C88     1.418   .     A
C86    C91     1.427   .     A
C87    C92     1.428   .     A
C87    C90     1.418   .     A
C88    C688    1.390   .     S
C89    C94     1.387   .     A
C89    C92     1.417   .     A
C89    H120    1.076   .     S
C90    C689    1.390   1_554 S
C91    C93     1.417   .     A
C91    C686    1.425   .     S
C92    C685    1.425   1_554 S
C93    H102    1.076   .     S
C93    C95     1.386   .     A
C94    H101    1.085   .     S
C94    C682    1.390   1_554 S
C95    H112    1.084   .     S
C95    C684    1.390   .     S
C96    H103    1.083   .     S
C96    C136    1.401   .     S
C96    C494    1.384   1_545 S
C97    H104    1.083   .     S
C97    C266    1.384   .     S
C98    H105    1.083   .     S
C98    C294    1.384   .     S
Cu99   N121    2.015   .     S
Cu99   O129    1.956   .     S
Cu99   O125    1.965   .     S
Cu99   O132    1.941   .     S
Cu99   O128    1.964   .     S
Cu100  N122    2.015   .     S
Cu100  O130    1.956   .     S
Cu100  O126    1.965   .     S
Cu100  O131    1.941   .     S
Cu100  O127    1.964   .     S
Cu100  Cu165   2.682   .     S
H109   N123    1.046   .     S
H110   N123    1.045   .     S
H111   N124    1.045   .     S
H113   N124    1.046   .     S
H116   C149    1.083   .     S
H119   C147    1.083   .     S
O127   C133    1.292   .     S
O130   C142    1.298   .     S
C133   C136    1.450   .     S
C133   O191    1.293   .     A
C134   C136    1.401   .     A
C134   H172    1.083   .     S
C134   C559    1.384   1_545 S
C135   C164    1.401   .     A
C135   C144    1.450   .     S
C135   C31     1.401   1_655 S
C137   N188    1.364   .     A
C137   C139    1.421   .     A
C137   H173    1.082   .     S
C138   N187    1.364   .     A
C138   H174    1.082   .     S
C138   C140    1.421   .     A
C139   N187    1.372   .     A
C139   N189    1.429   .     S
C140   N188    1.372   .     A
C140   N190    1.429   .     S
C141   C143    1.466   .     S
C141   O197    1.295   .     A
C141   O63     1.298   1_655 S
C142   O198    1.295   .     A
C142   C145    1.468   .     S
C143   C150    1.398   .     A
C143   C148    1.398   .     A
C144   O192    1.293   .     A
C144   O62     1.292   1_655 S
C145   C149    1.399   .     A
C145   C151    1.400   .     A
C146   C154    1.404   .     A
C146   H184    1.083   .     S
C146   C148    1.392   .     A
C147   C156    1.404   .     A
C147   C149    1.392   .     A
C148   H51     1.083   1_655 S
C150   C152    1.406   .     A
C150   H181    1.075   .     S
C151   C153    1.406   .     A
C151   H180    1.074   .     S
C152   C154    1.418   .     A
C152   C157    1.427   .     A
C153   C158    1.428   .     A
C153   C156    1.418   .     A
C154   C754    1.390   .     S
C155   C160    1.387   .     A
C155   C158    1.417   .     A
C155   H186    1.076   .     S
C156   C755    1.390   1_554 S
C157   C159    1.417   .     A
C157   C752    1.425   .     S
C158   C751    1.425   1_554 S
C159   H168    1.076   .     S
C159   C161    1.386   .     A
C160   H167    1.085   .     S
C160   C748    1.390   1_554 S
C161   H178    1.084   .     S
C161   C750    1.390   .     S
C162   H169    1.083   .     S
C162   C4      1.401   1_655 S
C162   C560    1.384   1_545 S
C163   H170    1.083   .     S
C163   C332    1.384   .     S
C164   H171    1.083   .     S
C164   C360    1.384   .     S
Cu165  N187    2.015   .     S
Cu165  O195    1.956   .     S
Cu165  O191    1.965   .     S
Cu165  O198    1.941   .     S
Cu165  O194    1.964   .     S
Cu166  N188    2.015   .     S
Cu166  O196    1.956   .     S
Cu166  O192    1.965   .     S
Cu166  O197    1.941   .     S
Cu166  O193    1.964   .     S
Cu166  Cu33    2.682   1_655 S
H175   N189    1.046   .     S
H176   N189    1.045   .     S
H177   N190    1.045   .     S
H179   N190    1.046   .     S
H182   C17     1.083   1_655 S
H185   C15     1.083   1_655 S
O193   C1      1.292   1_655 S
O196   C10     1.298   1_655 S
C199   C202    1.450   .     S
C199   O257    1.293   .     A
C199   O391    1.292   1_455 S
C200   C202    1.401   .     A
C200   H238    1.083   .     S
C201   C230    1.401   .     A
C201   C210    1.450   .     S
C201   C295    1.401   .     S
C202   C360    1.401   1_455 S
C203   N254    1.364   .     A
C203   C205    1.421   .     A
C203   H239    1.082   .     S
C204   N253    1.364   .     A
C204   H240    1.082   .     S
C204   C206    1.421   .     A
C205   N253    1.372   .     A
C205   N255    1.429   .     S
C206   N254    1.372   .     A
C206   N256    1.429   .     S
C207   C209    1.466   .     S
C207   O263    1.295   .     A
C207   O327    1.298   .     S
C208   O264    1.295   .     A
C208   C211    1.468   .     S
C208   O394    1.298   1_455 S
C209   C216    1.398   .     A
C209   C214    1.398   .     A
C210   O258    1.293   .     A
C210   O326    1.292   .     S
C211   C215    1.399   .     A
C211   C217    1.400   .     A
C212   C220    1.404   .     A
C212   H250    1.083   .     S
C212   C214    1.392   .     A
C213   C222    1.404   .     A
C213   C215    1.392   .     A
C213   H383    1.083   1_455 S
C214   H315    1.083   .     S
C215   H380    1.083   1_455 S
C216   C218    1.406   .     A
C216   H247    1.075   .     S
C217   C219    1.406   .     A
C217   H246    1.074   .     S
C218   C220    1.418   .     A
C218   C223    1.427   .     A
C219   C224    1.428   .     A
C219   C222    1.418   .     A
C220   C820    1.390   .     S
C221   C226    1.387   .     A
C221   C224    1.417   .     A
C221   H252    1.076   .     S
C222   C821    1.390   1_554 S
C223   C225    1.417   .     A
C223   C818    1.425   .     S
C224   C817    1.425   1_554 S
C225   H234    1.076   .     S
C225   C227    1.386   .     A
C226   H233    1.085   .     S
C226   C814    1.390   1_554 S
C227   H244    1.084   .     S
C227   C816    1.390   .     S
C228   H235    1.083   .     S
C228   C268    1.401   .     S
C229   H236    1.083   .     S
C229   C333    1.401   1_455 S
C229   C398    1.384   .     S
C230   H237    1.083   .     S
C230   C426    1.384   .     S
Cu231  N253    2.015   .     S
Cu231  O261    1.956   .     S
Cu231  O257    1.965   .     S
Cu231  O264    1.941   .     S
Cu231  O260    1.964   .     S
Cu231  Cu364   2.682   1_455 S
Cu232  N254    2.015   .     S
Cu232  O262    1.956   .     S
Cu232  O258    1.965   .     S
Cu232  O263    1.941   .     S
Cu232  O259    1.964   .     S
Cu232  Cu297   2.682   .     S
H241   N255    1.046   .     S
H242   N255    1.045   .     S
H243   N256    1.045   .     S
H245   N256    1.046   .     S
H248   C281    1.083   .     S
H249   C346    1.083   1_455 S
H251   C279    1.083   .     S
O259   C265    1.292   .     S
O260   C342    1.292   1_455 S
O261   C339    1.298   1_455 S
O262   C274    1.298   .     S
C265   C268    1.450   .     S
C265   O323    1.293   .     A
C266   C268    1.401   .     A
C266   H304    1.083   .     S
C267   C296    1.401   .     A
C267   C276    1.450   .     S
C267   C361    1.401   .     S
C269   N320    1.364   .     A
C269   C271    1.421   .     A
C269   H305    1.082   .     S
C270   N319    1.364   .     A
C270   H306    1.082   .     S
C270   C272    1.421   .     A
C271   N319    1.372   .     A
C271   N321    1.429   .     S
C272   N320    1.372   .     A
C272   N322    1.429   .     S
C273   C275    1.466   .     S
C273   O329    1.295   .     A
C273   O393    1.298   .     S
C274   O330    1.295   .     A
C274   C277    1.468   .     S
C275   C282    1.398   .     A
C275   C280    1.398   .     A
C276   O324    1.293   .     A
C276   O392    1.292   .     S
C277   C281    1.399   .     A
C277   C283    1.400   .     A
C278   C286    1.404   .     A
C278   H316    1.083   .     S
C278   C280    1.392   .     A
C279   C288    1.404   .     A
C279   C281    1.392   .     A
C280   H381    1.083   .     S
C282   C284    1.406   .     A
C282   H313    1.075   .     S
C283   C285    1.406   .     A
C283   H312    1.074   .     S
C284   C286    1.418   .     A
C284   C289    1.427   .     A
C285   C290    1.428   .     A
C285   C288    1.418   .     A
C286   C886    1.390   .     S
C287   C292    1.387   .     A
C287   C290    1.417   .     A
C287   H318    1.076   .     S
C288   C887    1.390   1_554 S
C289   C291    1.417   .     A
C289   C884    1.425   .     S
C290   C883    1.425   1_554 S
C291   H300    1.076   .     S
C291   C293    1.386   .     A
C292   H299    1.085   .     S
C292   C880    1.390   1_554 S
C293   H310    1.084   .     S
C293   C882    1.390   .     S
C294   H301    1.083   .     S
C294   C334    1.401   .     S
C295   H302    1.083   .     S
C295   C464    1.384   .     S
C296   H303    1.083   .     S
C296   C492    1.384   .     S
Cu297  N319    2.015   .     S
Cu297  O327    1.956   .     S
Cu297  O323    1.965   .     S
Cu297  O330    1.941   .     S
Cu297  O326    1.964   .     S
Cu298  N320    2.015   .     S
Cu298  O328    1.956   .     S
Cu298  O324    1.965   .     S
Cu298  O329    1.941   .     S
Cu298  O325    1.964   .     S
Cu298  Cu363   2.682   .     S
H307   N321    1.046   .     S
H308   N321    1.045   .     S
H309   N322    1.045   .     S
H311   N322    1.046   .     S
H314   C347    1.083   .     S
H317   C345    1.083   .     S
O325   C331    1.292   .     S
O328   C340    1.298   .     S
C331   C334    1.450   .     S
C331   O389    1.293   .     A
C332   C334    1.401   .     A
C332   H370    1.083   .     S
C333   C362    1.401   .     A
C333   C342    1.450   .     S
C333   C229    1.401   1_655 S
C335   N386    1.364   .     A
C335   C337    1.421   .     A
C335   H371    1.082   .     S
C336   N385    1.364   .     A
C336   H372    1.082   .     S
C336   C338    1.421   .     A
C337   N385    1.372   .     A
C337   N387    1.429   .     S
C338   N386    1.372   .     A
C338   N388    1.429   .     S
C339   C341    1.466   .     S
C339   O395    1.295   .     A
C339   O261    1.298   1_655 S
C340   O396    1.295   .     A
C340   C343    1.468   .     S
C341   C348    1.398   .     A
C341   C346    1.398   .     A
C342   O390    1.293   .     A
C342   O260    1.292   1_655 S
C343   C347    1.399   .     A
C343   C349    1.400   .     A
C344   C352    1.404   .     A
C344   H382    1.083   .     S
C344   C346    1.392   .     A
C345   C354    1.404   .     A
C345   C347    1.392   .     A
C346   H249    1.083   1_655 S
C348   C350    1.406   .     A
C348   H379    1.075   .     S
C349   C351    1.406   .     A
C349   H378    1.074   .     S
C350   C352    1.418   .     A
C350   C355    1.427   .     A
C351   C356    1.428   .     A
C351   C354    1.418   .     A
C352   C952    1.390   .     S
C353   C358    1.387   .     A
C353   C356    1.417   .     A
C353   H384    1.076   .     S
C354   C953    1.390   1_554 S
C355   C357    1.417   .     A
C355   C950    1.425   .     S
C356   C949    1.425   1_554 S
C357   H366    1.076   .     S
C357   C359    1.386   .     A
C358   H365    1.085   .     S
C358   C946    1.390   1_554 S
C359   H376    1.084   .     S
C359   C948    1.390   .     S
C360   H367    1.083   .     S
C360   C202    1.401   1_655 S
C361   H368    1.083   .     S
C361   C530    1.384   .     S
C362   H369    1.083   .     S
C362   C558    1.384   .     S
Cu363  N385    2.015   .     S
Cu363  O393    1.956   .     S
Cu363  O389    1.965   .     S
Cu363  O396    1.941   .     S
Cu363  O392    1.964   .     S
Cu364  N386    2.015   .     S
Cu364  O394    1.956   .     S
Cu364  O390    1.965   .     S
Cu364  O395    1.941   .     S
Cu364  O391    1.964   .     S
Cu364  Cu231   2.682   1_655 S
H373   N387    1.046   .     S
H374   N387    1.045   .     S
H375   N388    1.045   .     S
H377   N388    1.046   .     S
H380   C215    1.083   1_655 S
H383   C213    1.083   1_655 S
O391   C199    1.292   1_655 S
O394   C208    1.298   1_655 S
C397   C400    1.450   .     S
C397   O455    1.293   .     A
C397   O589    1.292   1_455 S
C398   C400    1.401   .     A
C398   H436    1.083   .     S
C399   C428    1.401   .     A
C399   C408    1.450   .     S
C399   C493    1.401   .     S
C400   C558    1.401   1_455 S
C401   N452    1.364   .     A
C401   C403    1.421   .     A
C401   H437    1.082   .     S
C402   N451    1.364   .     A
C402   H438    1.082   .     S
C402   C404    1.421   .     A
C403   N451    1.372   .     A
C403   N453    1.429   .     S
C404   N452    1.372   .     A
C404   N454    1.429   .     S
C405   C407    1.466   .     S
C405   O461    1.295   .     A
C405   O525    1.298   .     S
C406   O462    1.295   .     A
C406   C409    1.468   .     S
C406   O592    1.298   1_455 S
C407   C414    1.398   .     A
C407   C412    1.398   .     A
C408   O456    1.293   .     A
C408   O524    1.292   .     S
C409   C413    1.399   .     A
C409   C415    1.400   .     A
C410   C418    1.404   .     A
C410   H448    1.083   .     S
C410   C412    1.392   .     A
C411   C420    1.404   .     A
C411   C413    1.392   .     A
C411   H581    1.083   1_455 S
C412   H513    1.083   .     S
C413   H578    1.083   1_455 S
C414   C416    1.406   .     A
C414   H445    1.075   .     S
C415   C417    1.406   .     A
C415   H444    1.074   .     S
C416   C418    1.418   .     A
C416   C421    1.427   .     A
C417   C422    1.428   .     A
C417   C420    1.418   .     A
C418   C1018   1.390   .     S
C419   C424    1.387   .     A
C419   C422    1.417   .     A
C419   H450    1.076   .     S
C420   C1019   1.390   1_554 S
C421   C423    1.417   .     A
C421   C1016   1.425   .     S
C422   C1015   1.425   1_554 S
C423   H432    1.076   .     S
C423   C425    1.386   .     A
C424   H431    1.085   .     S
C424   C1012   1.390   1_554 S
C425   H442    1.084   .     S
C425   C1014   1.390   .     S
C426   H433    1.083   .     S
C426   C466    1.401   .     S
C427   H434    1.083   .     S
C427   C531    1.401   1_455 S
C427   C2      1.384   1_565 S
C428   H435    1.083   .     S
C428   C30     1.384   1_565 S
Cu429  N451    2.015   .     S
Cu429  O459    1.956   .     S
Cu429  O455    1.965   .     S
Cu429  O462    1.941   .     S
Cu429  O458    1.964   .     S
Cu429  Cu562   2.682   1_455 S
Cu430  N452    2.015   .     S
Cu430  O460    1.956   .     S
Cu430  O456    1.965   .     S
Cu430  O461    1.941   .     S
Cu430  O457    1.964   .     S
Cu430  Cu495   2.682   .     S
H439   N453    1.046   .     S
H440   N453    1.045   .     S
H441   N454    1.045   .     S
H443   N454    1.046   .     S
H446   C479    1.083   .     S
H447   C544    1.083   1_455 S
H449   C477    1.083   .     S
O457   C463    1.292   .     S
O458   C540    1.292   1_455 S
O459   C537    1.298   1_455 S
O460   C472    1.298   .     S
C463   C466    1.450   .     S
C463   O521    1.293   .     A
C464   C466    1.401   .     A
C464   H502    1.083   .     S
C465   C494    1.401   .     A
C465   C474    1.450   .     S
C465   C559    1.401   .     S
C467   N518    1.364   .     A
C467   C469    1.421   .     A
C467   H503    1.082   .     S
C468   N517    1.364   .     A
C468   H504    1.082   .     S
C468   C470    1.421   .     A
C469   N517    1.372   .     A
C469   N519    1.429   .     S
C470   N518    1.372   .     A
C470   N520    1.429   .     S
C471   C473    1.466   .     S
C471   O527    1.295   .     A
C471   O591    1.298   .     S
C472   O528    1.295   .     A
C472   C475    1.468   .     S
C473   C480    1.398   .     A
C473   C478    1.398   .     A
C474   O522    1.293   .     A
C474   O590    1.292   .     S
C475   C479    1.399   .     A
C475   C481    1.400   .     A
C476   C484    1.404   .     A
C476   H514    1.083   .     S
C476   C478    1.392   .     A
C477   C486    1.404   .     A
C477   C479    1.392   .     A
C478   H579    1.083   .     S
C480   C482    1.406   .     A
C480   H511    1.075   .     S
C481   C483    1.406   .     A
C481   H510    1.074   .     S
C482   C484    1.418   .     A
C482   C487    1.427   .     A
C483   C488    1.428   .     A
C483   C486    1.418   .     A
C484   C1084   1.390   .     S
C485   C490    1.387   .     A
C485   C488    1.417   .     A
C485   H516    1.076   .     S
C486   C1085   1.390   1_554 S
C487   C489    1.417   .     A
C487   C1082   1.425   .     S
C488   C1081   1.425   1_554 S
C489   H498    1.076   .     S
C489   C491    1.386   .     A
C490   H497    1.085   .     S
C490   C1078   1.390   1_554 S
C491   H508    1.084   .     S
C491   C1080   1.390   .     S
C492   H499    1.083   .     S
C492   C532    1.401   .     S
C493   H500    1.083   .     S
C493   C68     1.384   1_565 S
C494   H501    1.083   .     S
C494   C96     1.384   1_565 S
Cu495  N517    2.015   .     S
Cu495  O525    1.956   .     S
Cu495  O521    1.965   .     S
Cu495  O528    1.941   .     S
Cu495  O524    1.964   .     S
Cu496  N518    2.015   .     S
Cu496  O526    1.956   .     S
Cu496  O522    1.965   .     S
Cu496  O527    1.941   .     S
Cu496  O523    1.964   .     S
Cu496  Cu561   2.682   .     S
H505   N519    1.046   .     S
H506   N519    1.045   .     S
H507   N520    1.045   .     S
H509   N520    1.046   .     S
H512   C545    1.083   .     S
H515   C543    1.083   .     S
O523   C529    1.292   .     S
O526   C538    1.298   .     S
C529   C532    1.450   .     S
C529   O587    1.293   .     A
C530   C532    1.401   .     A
C530   H568    1.083   .     S
C531   C560    1.401   .     A
C531   C540    1.450   .     S
C531   C427    1.401   1_655 S
C533   N584    1.364   .     A
C533   C535    1.421   .     A
C533   H569    1.082   .     S
C534   N583    1.364   .     A
C534   H570    1.082   .     S
C534   C536    1.421   .     A
C535   N583    1.372   .     A
C535   N585    1.429   .     S
C536   N584    1.372   .     A
C536   N586    1.429   .     S
C537   C539    1.466   .     S
C537   O593    1.295   .     A
C537   O459    1.298   1_655 S
C538   O594    1.295   .     A
C538   C541    1.468   .     S
C539   C546    1.398   .     A
C539   C544    1.398   .     A
C540   O588    1.293   .     A
C540   O458    1.292   1_655 S
C541   C545    1.399   .     A
C541   C547    1.400   .     A
C542   C550    1.404   .     A
C542   H580    1.083   .     S
C542   C544    1.392   .     A
C543   C552    1.404   .     A
C543   C545    1.392   .     A
C544   H447    1.083   1_655 S
C546   C548    1.406   .     A
C546   H577    1.075   .     S
C547   C549    1.406   .     A
C547   H576    1.074   .     S
C548   C550    1.418   .     A
C548   C553    1.427   .     A
C549   C554    1.428   .     A
C549   C552    1.418   .     A
C550   C1150   1.390   .     S
C551   C556    1.387   .     A
C551   C554    1.417   .     A
C551   H582    1.076   .     S
C552   C1151   1.390   1_554 S
C553   C555    1.417   .     A
C553   C1148   1.425   .     S
C554   C1147   1.425   1_554 S
C555   H564    1.076   .     S
C555   C557    1.386   .     A
C556   H563    1.085   .     S
C556   C1144   1.390   1_554 S
C557   H574    1.084   .     S
C557   C1146   1.390   .     S
C558   H565    1.083   .     S
C558   C400    1.401   1_655 S
C559   H566    1.083   .     S
C559   C134    1.384   1_565 S
C560   H567    1.083   .     S
C560   C162    1.384   1_565 S
Cu561  N583    2.015   .     S
Cu561  O591    1.956   .     S
Cu561  O587    1.965   .     S
Cu561  O594    1.941   .     S
Cu561  O590    1.964   .     S
Cu562  N584    2.015   .     S
Cu562  O592    1.956   .     S
Cu562  O588    1.965   .     S
Cu562  O593    1.941   .     S
Cu562  O589    1.964   .     S
Cu562  Cu429   2.682   1_655 S
H571   N585    1.046   .     S
H572   N585    1.045   .     S
H573   N586    1.045   .     S
H575   N586    1.046   .     S
H578   C413    1.083   1_655 S
H581   C411    1.083   1_655 S
O589   C397    1.292   1_655 S
O592   C406    1.298   1_655 S
C595   C598    1.450   .     S
C595   O653    1.293   .     A
C595   O787    1.292   1_455 S
C596   C598    1.401   .     A
C596   H634    1.083   .     S
C596   C1021   1.384   1_545 S
C597   C626    1.401   .     A
C597   C606    1.450   .     S
C597   C691    1.401   .     S
C598   C756    1.401   1_455 S
C599   N650    1.364   .     A
C599   C601    1.421   .     A
C599   H635    1.082   .     S
C600   N649    1.364   .     A
C600   H636    1.082   .     S
C600   C602    1.421   .     A
C601   N649    1.372   .     A
C601   N651    1.429   .     S
C602   N650    1.372   .     A
C602   N652    1.429   .     S
C603   C605    1.466   .     S
C603   O659    1.295   .     A
C603   O723    1.298   .     S
C604   O660    1.295   .     A
C604   C607    1.468   .     S
C604   O790    1.298   1_455 S
C605   C612    1.398   .     A
C605   C610    1.398   .     A
C606   O654    1.293   .     A
C606   O722    1.292   .     S
C607   C611    1.399   .     A
C607   C613    1.400   .     A
C608   C616    1.404   .     A
C608   H646    1.083   .     S
C608   C610    1.392   .     A
C609   C618    1.404   .     A
C609   C611    1.392   .     A
C609   H779    1.083   1_455 S
C610   H711    1.083   .     S
C611   H776    1.083   1_455 S
C612   C614    1.406   .     A
C612   H643    1.075   .     S
C613   C615    1.406   .     A
C613   H642    1.074   .     S
C614   C616    1.418   .     A
C614   C619    1.427   .     A
C615   C620    1.428   .     A
C615   C618    1.418   .     A
C616   C28     1.390   1_556 S
C617   C622    1.387   .     A
C617   C620    1.417   .     A
C617   H648    1.076   .     S
C619   C621    1.417   .     A
C619   C26     1.425   1_556 S
C621   H630    1.076   .     S
C621   C623    1.386   .     A
C622   H629    1.085   .     S
C623   H640    1.084   .     S
C623   C24     1.390   1_556 S
C624   H631    1.083   .     S
C624   C664    1.401   .     S
C624   C1022   1.384   1_545 S
C625   H632    1.083   .     S
C625   C729    1.401   1_455 S
C625   C794    1.384   .     S
C626   H633    1.083   .     S
C626   C822    1.384   .     S
Cu627  N649    2.015   .     S
Cu627  O657    1.956   .     S
Cu627  O653    1.965   .     S
Cu627  O660    1.941   .     S
Cu627  O656    1.964   .     S
Cu627  Cu760   2.682   1_455 S
Cu628  N650    2.015   .     S
Cu628  O658    1.956   .     S
Cu628  O654    1.965   .     S
Cu628  O659    1.941   .     S
Cu628  O655    1.964   .     S
Cu628  Cu693   2.682   .     S
H637   N651    1.046   .     S
H638   N651    1.045   .     S
H639   N652    1.045   .     S
H641   N652    1.046   .     S
H644   C677    1.083   .     S
H645   C742    1.083   1_455 S
H647   C675    1.083   .     S
O655   C661    1.292   .     S
O656   C738    1.292   1_455 S
O657   C735    1.298   1_455 S
O658   C670    1.298   .     S
C661   C664    1.450   .     S
C661   O719    1.293   .     A
C662   C664    1.401   .     A
C662   H700    1.083   .     S
C662   C1087   1.384   1_545 S
C663   C692    1.401   .     A
C663   C672    1.450   .     S
C663   C757    1.401   .     S
C665   N716    1.364   .     A
C665   C667    1.421   .     A
C665   H701    1.082   .     S
C666   N715    1.364   .     A
C666   H702    1.082   .     S
C666   C668    1.421   .     A
C667   N715    1.372   .     A
C667   N717    1.429   .     S
C668   N716    1.372   .     A
C668   N718    1.429   .     S
C669   C671    1.466   .     S
C669   O725    1.295   .     A
C669   O789    1.298   .     S
C670   O726    1.295   .     A
C670   C673    1.468   .     S
C671   C678    1.398   .     A
C671   C676    1.398   .     A
C672   O720    1.293   .     A
C672   O788    1.292   .     S
C673   C677    1.399   .     A
C673   C679    1.400   .     A
C674   C682    1.404   .     A
C674   H712    1.083   .     S
C674   C676    1.392   .     A
C675   C684    1.404   .     A
C675   C677    1.392   .     A
C676   H777    1.083   .     S
C678   C680    1.406   .     A
C678   H709    1.075   .     S
C679   C681    1.406   .     A
C679   H708    1.074   .     S
C680   C682    1.418   .     A
C680   C685    1.427   .     A
C681   C686    1.428   .     A
C681   C684    1.418   .     A
C682   C94     1.390   1_556 S
C683   C688    1.387   .     A
C683   C686    1.417   .     A
C683   H714    1.076   .     S
C685   C687    1.417   .     A
C685   C92     1.425   1_556 S
C687   H696    1.076   .     S
C687   C689    1.386   .     A
C688   H695    1.085   .     S
C689   H706    1.084   .     S
C689   C90     1.390   1_556 S
C690   H697    1.083   .     S
C690   C730    1.401   .     S
C690   C1088   1.384   1_545 S
C691   H698    1.083   .     S
C691   C860    1.384   .     S
C692   H699    1.083   .     S
C692   C888    1.384   .     S
Cu693  N715    2.015   .     S
Cu693  O723    1.956   .     S
Cu693  O719    1.965   .     S
Cu693  O726    1.941   .     S
Cu693  O722    1.964   .     S
Cu694  N716    2.015   .     S
Cu694  O724    1.956   .     S
Cu694  O720    1.965   .     S
Cu694  O725    1.941   .     S
Cu694  O721    1.964   .     S
Cu694  Cu759   2.682   .     S
H703   N717    1.046   .     S
H704   N717    1.045   .     S
H705   N718    1.045   .     S
H707   N718    1.046   .     S
H710   C743    1.083   .     S
H713   C741    1.083   .     S
O721   C727    1.292   .     S
O724   C736    1.298   .     S
C727   C730    1.450   .     S
C727   O785    1.293   .     A
C728   C730    1.401   .     A
C728   H766    1.083   .     S
C728   C1153   1.384   1_545 S
C729   C758    1.401   .     A
C729   C738    1.450   .     S
C729   C625    1.401   1_655 S
C731   N782    1.364   .     A
C731   C733    1.421   .     A
C731   H767    1.082   .     S
C732   N781    1.364   .     A
C732   H768    1.082   .     S
C732   C734    1.421   .     A
C733   N781    1.372   .     A
C733   N783    1.429   .     S
C734   N782    1.372   .     A
C734   N784    1.429   .     S
C735   C737    1.466   .     S
C735   O791    1.295   .     A
C735   O657    1.298   1_655 S
C736   O792    1.295   .     A
C736   C739    1.468   .     S
C737   C744    1.398   .     A
C737   C742    1.398   .     A
C738   O786    1.293   .     A
C738   O656    1.292   1_655 S
C739   C743    1.399   .     A
C739   C745    1.400   .     A
C740   C748    1.404   .     A
C740   H778    1.083   .     S
C740   C742    1.392   .     A
C741   C750    1.404   .     A
C741   C743    1.392   .     A
C742   H645    1.083   1_655 S
C744   C746    1.406   .     A
C744   H775    1.075   .     S
C745   C747    1.406   .     A
C745   H774    1.074   .     S
C746   C748    1.418   .     A
C746   C751    1.427   .     A
C747   C752    1.428   .     A
C747   C750    1.418   .     A
C748   C160    1.390   1_556 S
C749   C754    1.387   .     A
C749   C752    1.417   .     A
C749   H780    1.076   .     S
C751   C753    1.417   .     A
C751   C158    1.425   1_556 S
C753   H762    1.076   .     S
C753   C755    1.386   .     A
C754   H761    1.085   .     S
C755   H772    1.084   .     S
C755   C156    1.390   1_556 S
C756   H763    1.083   .     S
C756   C598    1.401   1_655 S
C756   C1154   1.384   1_545 S
C757   H764    1.083   .     S
C757   C926    1.384   .     S
C758   H765    1.083   .     S
C758   C954    1.384   .     S
Cu759  N781    2.015   .     S
Cu759  O789    1.956   .     S
Cu759  O785    1.965   .     S
Cu759  O792    1.941   .     S
Cu759  O788    1.964   .     S
Cu760  N782    2.015   .     S
Cu760  O790    1.956   .     S
Cu760  O786    1.965   .     S
Cu760  O791    1.941   .     S
Cu760  O787    1.964   .     S
Cu760  Cu627   2.682   1_655 S
H769   N783    1.046   .     S
H770   N783    1.045   .     S
H771   N784    1.045   .     S
H773   N784    1.046   .     S
H776   C611    1.083   1_655 S
H779   C609    1.083   1_655 S
O787   C595    1.292   1_655 S
O790   C604    1.298   1_655 S
C793   C796    1.450   .     S
C793   O851    1.293   .     A
C793   O985    1.292   1_455 S
C794   C796    1.401   .     A
C794   H832    1.083   .     S
C795   C824    1.401   .     A
C795   C804    1.450   .     S
C795   C889    1.401   .     S
C796   C954    1.401   1_455 S
C797   N848    1.364   .     A
C797   C799    1.421   .     A
C797   H833    1.082   .     S
C798   N847    1.364   .     A
C798   H834    1.082   .     S
C798   C800    1.421   .     A
C799   N847    1.372   .     A
C799   N849    1.429   .     S
C800   N848    1.372   .     A
C800   N850    1.429   .     S
C801   C803    1.466   .     S
C801   O857    1.295   .     A
C801   O921    1.298   .     S
C802   O858    1.295   .     A
C802   C805    1.468   .     S
C802   O988    1.298   1_455 S
C803   C810    1.398   .     A
C803   C808    1.398   .     A
C804   O852    1.293   .     A
C804   O920    1.292   .     S
C805   C809    1.399   .     A
C805   C811    1.400   .     A
C806   C814    1.404   .     A
C806   H844    1.083   .     S
C806   C808    1.392   .     A
C807   C816    1.404   .     A
C807   C809    1.392   .     A
C807   H977    1.083   1_455 S
C808   H909    1.083   .     S
C809   H974    1.083   1_455 S
C810   C812    1.406   .     A
C810   H841    1.075   .     S
C811   C813    1.406   .     A
C811   H840    1.074   .     S
C812   C814    1.418   .     A
C812   C817    1.427   .     A
C813   C818    1.428   .     A
C813   C816    1.418   .     A
C814   C226    1.390   1_556 S
C815   C820    1.387   .     A
C815   C818    1.417   .     A
C815   H846    1.076   .     S
C817   C819    1.417   .     A
C817   C224    1.425   1_556 S
C819   H828    1.076   .     S
C819   C821    1.386   .     A
C820   H827    1.085   .     S
C821   H838    1.084   .     S
C821   C222    1.390   1_556 S
C822   H829    1.083   .     S
C822   C862    1.401   .     S
C823   H830    1.083   .     S
C823   C927    1.401   1_455 S
C823   C992    1.384   .     S
C824   H831    1.083   .     S
C824   C1020   1.384   .     S
Cu825  N847    2.015   .     S
Cu825  O855    1.956   .     S
Cu825  O851    1.965   .     S
Cu825  O858    1.941   .     S
Cu825  O854    1.964   .     S
Cu825  Cu958   2.682   1_455 S
Cu826  N848    2.015   .     S
Cu826  O856    1.956   .     S
Cu826  O852    1.965   .     S
Cu826  O857    1.941   .     S
Cu826  O853    1.964   .     S
Cu826  Cu891   2.682   .     S
H835   N849    1.046   .     S
H836   N849    1.045   .     S
H837   N850    1.045   .     S
H839   N850    1.046   .     S
H842   C875    1.083   .     S
H843   C940    1.083   1_455 S
H845   C873    1.083   .     S
O853   C859    1.292   .     S
O854   C936    1.292   1_455 S
O855   C933    1.298   1_455 S
O856   C868    1.298   .     S
C859   C862    1.450   .     S
C859   O917    1.293   .     A
C860   C862    1.401   .     A
C860   H898    1.083   .     S
C861   C890    1.401   .     A
C861   C870    1.450   .     S
C861   C955    1.401   .     S
C863   N914    1.364   .     A
C863   C865    1.421   .     A
C863   H899    1.082   .     S
C864   N913    1.364   .     A
C864   H900    1.082   .     S
C864   C866    1.421   .     A
C865   N913    1.372   .     A
C865   N915    1.429   .     S
C866   N914    1.372   .     A
C866   N916    1.429   .     S
C867   C869    1.466   .     S
C867   O923    1.295   .     A
C867   O987    1.298   .     S
C868   O924    1.295   .     A
C868   C871    1.468   .     S
C869   C876    1.398   .     A
C869   C874    1.398   .     A
C870   O918    1.293   .     A
C870   O986    1.292   .     S
C871   C875    1.399   .     A
C871   C877    1.400   .     A
C872   C880    1.404   .     A
C872   H910    1.083   .     S
C872   C874    1.392   .     A
C873   C882    1.404   .     A
C873   C875    1.392   .     A
C874   H975    1.083   .     S
C876   C878    1.406   .     A
C876   H907    1.075   .     S
C877   C879    1.406   .     A
C877   H906    1.074   .     S
C878   C880    1.418   .     A
C878   C883    1.427   .     A
C879   C884    1.428   .     A
C879   C882    1.418   .     A
C880   C292    1.390   1_556 S
C881   C886    1.387   .     A
C881   C884    1.417   .     A
C881   H912    1.076   .     S
C883   C885    1.417   .     A
C883   C290    1.425   1_556 S
C885   H894    1.076   .     S
C885   C887    1.386   .     A
C886   H893    1.085   .     S
C887   H904    1.084   .     S
C887   C288    1.390   1_556 S
C888   H895    1.083   .     S
C888   C928    1.401   .     S
C889   H896    1.083   .     S
C889   C1058   1.384   .     S
C890   H897    1.083   .     S
C890   C1086   1.384   .     S
Cu891  N913    2.015   .     S
Cu891  O921    1.956   .     S
Cu891  O917    1.965   .     S
Cu891  O924    1.941   .     S
Cu891  O920    1.964   .     S
Cu892  N914    2.015   .     S
Cu892  O922    1.956   .     S
Cu892  O918    1.965   .     S
Cu892  O923    1.941   .     S
Cu892  O919    1.964   .     S
Cu892  Cu957   2.682   .     S
H901   N915    1.046   .     S
H902   N915    1.045   .     S
H903   N916    1.045   .     S
H905   N916    1.046   .     S
H908   C941    1.083   .     S
H911   C939    1.083   .     S
O919   C925    1.292   .     S
O922   C934    1.298   .     S
C925   C928    1.450   .     S
C925   O983    1.293   .     A
C926   C928    1.401   .     A
C926   H964    1.083   .     S
C927   C956    1.401   .     A
C927   C936    1.450   .     S
C927   C823    1.401   1_655 S
C929   N980    1.364   .     A
C929   C931    1.421   .     A
C929   H965    1.082   .     S
C930   N979    1.364   .     A
C930   H966    1.082   .     S
C930   C932    1.421   .     A
C931   N979    1.372   .     A
C931   N981    1.429   .     S
C932   N980    1.372   .     A
C932   N982    1.429   .     S
C933   C935    1.466   .     S
C933   O989    1.295   .     A
C933   O855    1.298   1_655 S
C934   O990    1.295   .     A
C934   C937    1.468   .     S
C935   C942    1.398   .     A
C935   C940    1.398   .     A
C936   O984    1.293   .     A
C936   O854    1.292   1_655 S
C937   C941    1.399   .     A
C937   C943    1.400   .     A
C938   C946    1.404   .     A
C938   H976    1.083   .     S
C938   C940    1.392   .     A
C939   C948    1.404   .     A
C939   C941    1.392   .     A
C940   H843    1.083   1_655 S
C942   C944    1.406   .     A
C942   H973    1.075   .     S
C943   C945    1.406   .     A
C943   H972    1.074   .     S
C944   C946    1.418   .     A
C944   C949    1.427   .     A
C945   C950    1.428   .     A
C945   C948    1.418   .     A
C946   C358    1.390   1_556 S
C947   C952    1.387   .     A
C947   C950    1.417   .     A
C947   H978    1.076   .     S
C949   C951    1.417   .     A
C949   C356    1.425   1_556 S
C951   H960    1.076   .     S
C951   C953    1.386   .     A
C952   H959    1.085   .     S
C953   H970    1.084   .     S
C953   C354    1.390   1_556 S
C954   H961    1.083   .     S
C954   C796    1.401   1_655 S
C955   H962    1.083   .     S
C955   C1124   1.384   .     S
C956   H963    1.083   .     S
C956   C1152   1.384   .     S
Cu957  N979    2.015   .     S
Cu957  O987    1.956   .     S
Cu957  O983    1.965   .     S
Cu957  O990    1.941   .     S
Cu957  O986    1.964   .     S
Cu958  N980    2.015   .     S
Cu958  O988    1.956   .     S
Cu958  O984    1.965   .     S
Cu958  O989    1.941   .     S
Cu958  O985    1.964   .     S
Cu958  Cu825   2.682   1_655 S
H967   N981    1.046   .     S
H968   N981    1.045   .     S
H969   N982    1.045   .     S
H971   N982    1.046   .     S
H974   C809    1.083   1_655 S
H977   C807    1.083   1_655 S
O985   C793    1.292   1_655 S
O988   C802    1.298   1_655 S
C991   C994    1.450   .     S
C991   O1049   1.293   .     A
C991   O1183   1.292   1_455 S
C992   C994    1.401   .     A
C992   H1030   1.083   .     S
C993   C1022   1.401   .     A
C993   C1002   1.450   .     S
C993   C1087   1.401   .     S
C994   C1152   1.401   1_455 S
C995   N1046   1.364   .     A
C995   C997    1.421   .     A
C995   H1031   1.082   .     S
C996   N1045   1.364   .     A
C996   H1032   1.082   .     S
C996   C998    1.421   .     A
C997   N1045   1.372   .     A
C997   N1047   1.429   .     S
C998   N1046   1.372   .     A
C998   N1048   1.429   .     S
C999   C1001   1.466   .     S
C999   O1055   1.295   .     A
C999   O1119   1.298   .     S
C1000  O1056   1.295   .     A
C1000  C1003   1.468   .     S
C1000  O1186   1.298   1_455 S
C1001  C1008   1.398   .     A
C1001  C1006   1.398   .     A
C1002  O1050   1.293   .     A
C1002  O1118   1.292   .     S
C1003  C1007   1.399   .     A
C1003  C1009   1.400   .     A
C1004  C1012   1.404   .     A
C1004  H1042   1.083   .     S
C1004  C1006   1.392   .     A
C1005  C1014   1.404   .     A
C1005  C1007   1.392   .     A
C1005  H1175   1.083   1_455 S
C1006  H1107   1.083   .     S
C1007  H1172   1.083   1_455 S
C1008  C1010   1.406   .     A
C1008  H1039   1.075   .     S
C1009  C1011   1.406   .     A
C1009  H1038   1.074   .     S
C1010  C1012   1.418   .     A
C1010  C1015   1.427   .     A
C1011  C1016   1.428   .     A
C1011  C1014   1.418   .     A
C1012  C424    1.390   1_556 S
C1013  C1018   1.387   .     A
C1013  C1016   1.417   .     A
C1013  H1044   1.076   .     S
C1015  C1017   1.417   .     A
C1015  C422    1.425   1_556 S
C1017  H1026   1.076   .     S
C1017  C1019   1.386   .     A
C1018  H1025   1.085   .     S
C1019  H1036   1.084   .     S
C1019  C420    1.390   1_556 S
C1020  H1027   1.083   .     S
C1020  C1060   1.401   .     S
C1021  H1028   1.083   .     S
C1021  C1125   1.401   1_455 S
C1021  C596    1.384   1_565 S
C1022  H1029   1.083   .     S
C1022  C624    1.384   1_565 S
Cu1023 N1045   2.015   .     S
Cu1023 O1053   1.956   .     S
Cu1023 O1049   1.965   .     S
Cu1023 O1056   1.941   .     S
Cu1023 O1052   1.964   .     S
Cu1023 Cu1156  2.682   1_455 S
Cu1024 N1046   2.015   .     S
Cu1024 O1054   1.956   .     S
Cu1024 O1050   1.965   .     S
Cu1024 O1055   1.941   .     S
Cu1024 O1051   1.964   .     S
Cu1024 Cu1089  2.682   .     S
H1033  N1047   1.046   .     S
H1034  N1047   1.045   .     S
H1035  N1048   1.045   .     S
H1037  N1048   1.046   .     S
H1040  C1073   1.083   .     S
H1041  C1138   1.083   1_455 S
H1043  C1071   1.083   .     S
O1051  C1057   1.292   .     S
O1052  C1134   1.292   1_455 S
O1053  C1131   1.298   1_455 S
O1054  C1066   1.298   .     S
C1057  C1060   1.450   .     S
C1057  O1115   1.293   .     A
C1058  C1060   1.401   .     A
C1058  H1096   1.083   .     S
C1059  C1088   1.401   .     A
C1059  C1068   1.450   .     S
C1059  C1153   1.401   .     S
C1061  N1112   1.364   .     A
C1061  C1063   1.421   .     A
C1061  H1097   1.082   .     S
C1062  N1111   1.364   .     A
C1062  H1098   1.082   .     S
C1062  C1064   1.421   .     A
C1063  N1111   1.372   .     A
C1063  N1113   1.429   .     S
C1064  N1112   1.372   .     A
C1064  N1114   1.429   .     S
C1065  C1067   1.466   .     S
C1065  O1121   1.295   .     A
C1065  O1185   1.298   .     S
C1066  O1122   1.295   .     A
C1066  C1069   1.468   .     S
C1067  C1074   1.398   .     A
C1067  C1072   1.398   .     A
C1068  O1116   1.293   .     A
C1068  O1184   1.292   .     S
C1069  C1073   1.399   .     A
C1069  C1075   1.400   .     A
C1070  C1078   1.404   .     A
C1070  H1108   1.083   .     S
C1070  C1072   1.392   .     A
C1071  C1080   1.404   .     A
C1071  C1073   1.392   .     A
C1072  H1173   1.083   .     S
C1074  C1076   1.406   .     A
C1074  H1105   1.075   .     S
C1075  C1077   1.406   .     A
C1075  H1104   1.074   .     S
C1076  C1078   1.418   .     A
C1076  C1081   1.427   .     A
C1077  C1082   1.428   .     A
C1077  C1080   1.418   .     A
C1078  C490    1.390   1_556 S
C1079  C1084   1.387   .     A
C1079  C1082   1.417   .     A
C1079  H1110   1.076   .     S
C1081  C1083   1.417   .     A
C1081  C488    1.425   1_556 S
C1083  H1092   1.076   .     S
C1083  C1085   1.386   .     A
C1084  H1091   1.085   .     S
C1085  H1102   1.084   .     S
C1085  C486    1.390   1_556 S
C1086  H1093   1.083   .     S
C1086  C1126   1.401   .     S
C1087  H1094   1.083   .     S
C1087  C662    1.384   1_565 S
C1088  H1095   1.083   .     S
C1088  C690    1.384   1_565 S
Cu1089 N1111   2.015   .     S
Cu1089 O1119   1.956   .     S
Cu1089 O1115   1.965   .     S
Cu1089 O1122   1.941   .     S
Cu1089 O1118   1.964   .     S
Cu1090 N1112   2.015   .     S
Cu1090 O1120   1.956   .     S
Cu1090 O1116   1.965   .     S
Cu1090 O1121   1.941   .     S
Cu1090 O1117   1.964   .     S
Cu1090 Cu1155  2.682   .     S
H1099  N1113   1.046   .     S
H1100  N1113   1.045   .     S
H1101  N1114   1.045   .     S
H1103  N1114   1.046   .     S
H1106  C1139   1.083   .     S
H1109  C1137   1.083   .     S
O1117  C1123   1.292   .     S
O1120  C1132   1.298   .     S
C1123  C1126   1.450   .     S
C1123  O1181   1.293   .     A
C1124  C1126   1.401   .     A
C1124  H1162   1.083   .     S
C1125  C1154   1.401   .     A
C1125  C1134   1.450   .     S
C1125  C1021   1.401   1_655 S
C1127  N1178   1.364   .     A
C1127  C1129   1.421   .     A
C1127  H1163   1.082   .     S
C1128  N1177   1.364   .     A
C1128  H1164   1.082   .     S
C1128  C1130   1.421   .     A
C1129  N1177   1.372   .     A
C1129  N1179   1.429   .     S
C1130  N1178   1.372   .     A
C1130  N1180   1.429   .     S
C1131  C1133   1.466   .     S
C1131  O1187   1.295   .     A
C1131  O1053   1.298   1_655 S
C1132  O1188   1.295   .     A
C1132  C1135   1.468   .     S
C1133  C1140   1.398   .     A
C1133  C1138   1.398   .     A
C1134  O1182   1.293   .     A
C1134  O1052   1.292   1_655 S
C1135  C1139   1.399   .     A
C1135  C1141   1.400   .     A
C1136  C1144   1.404   .     A
C1136  H1174   1.083   .     S
C1136  C1138   1.392   .     A
C1137  C1146   1.404   .     A
C1137  C1139   1.392   .     A
C1138  H1041   1.083   1_655 S
C1140  C1142   1.406   .     A
C1140  H1171   1.075   .     S
C1141  C1143   1.406   .     A
C1141  H1170   1.074   .     S
C1142  C1144   1.418   .     A
C1142  C1147   1.427   .     A
C1143  C1148   1.428   .     A
C1143  C1146   1.418   .     A
C1144  C556    1.390   1_556 S
C1145  C1150   1.387   .     A
C1145  C1148   1.417   .     A
C1145  H1176   1.076   .     S
C1147  C1149   1.417   .     A
C1147  C554    1.425   1_556 S
C1149  H1158   1.076   .     S
C1149  C1151   1.386   .     A
C1150  H1157   1.085   .     S
C1151  H1168   1.084   .     S
C1151  C552    1.390   1_556 S
C1152  H1159   1.083   .     S
C1152  C994    1.401   1_655 S
C1153  H1160   1.083   .     S
C1153  C728    1.384   1_565 S
C1154  H1161   1.083   .     S
C1154  C756    1.384   1_565 S
Cu1155 N1177   2.015   .     S
Cu1155 O1185   1.956   .     S
Cu1155 O1181   1.965   .     S
Cu1155 O1188   1.941   .     S
Cu1155 O1184   1.964   .     S
Cu1156 N1178   2.015   .     S
Cu1156 O1186   1.956   .     S
Cu1156 O1182   1.965   .     S
Cu1156 O1187   1.941   .     S
Cu1156 O1183   1.964   .     S
Cu1156 Cu1023  2.682   1_655 S
H1165  N1179   1.046   .     S
H1166  N1179   1.045   .     S
H1167  N1180   1.045   .     S
H1169  N1180   1.046   .     S
H1172  C1007   1.083   1_655 S
H1175  C1005   1.083   1_655 S
O1183  C991    1.292   1_655 S
O1186  C1000   1.298   1_655 S
